MODEL 1
REMARK VINA RESULT:      -6.6      0.000      0.000
REMARK  Name = 
REMARK  8 active torsions:
REMARK  status: ('A' for Active; 'I' for Inactive)
REMARK    1  A    between atoms: C_1  and  C_2
REMARK    2  A    between atoms: C_2  and  C_3
REMARK    3  A    between atoms: C_2  and  C_5
REMARK    4  A    between atoms: C_2  and  N_7
REMARK    5  A    between atoms: C_3  and  O_4
REMARK    6  A    between atoms: C_5  and  O_6
REMARK    7  A    between atoms: C_8  and  C_10
REMARK    8  A    between atoms: C_21  and  C_22
REMARK                            x       y       z     vdW  Elec       q    Type
REMARK                         _______ _______ _______ _____ _____    ______ ____
ROOT
ATOM      1  C   UNL     1      -0.919  15.665  21.645  0.00  0.00    +0.000 A 
ATOM      2  C   UNL     1       0.039  16.700  21.543  0.00  0.00    +0.000 A 
ATOM      3  N   UNL     1       0.916  16.521  20.559  0.00  0.00    +0.000 NA
ATOM      4  N   UNL     1       0.548  15.344  20.006  0.00  0.00    +0.000 N 
ATOM      5  C   UNL     1       1.194  14.675  18.980  0.00  0.00    +0.000 A 
ATOM      6  C   UNL     1       0.717  13.512  18.527  0.00  0.00    +0.000 A 
ATOM      7  C   UNL     1      -0.573  13.032  19.135  0.00  0.00    +0.000 A 
ATOM      8  N   UNL     1      -1.173  11.900  18.629  0.00  0.00    +0.000 N 
ATOM      9  C   UNL     1      -2.509  11.956  18.057  0.00  0.00    +0.000 C 
ATOM     10  C   UNL     1      -2.914  10.497  17.984  0.00  0.00    +0.000 C 
ATOM     11  C   UNL     1      -1.612   9.803  17.602  0.00  0.00    +0.000 C 
ATOM     12  C   UNL     1      -0.508  10.640  18.281  0.00  0.00    +0.000 C 
ATOM     13  N   UNL     1      -1.187  13.669  20.114  0.00  0.00    +0.000 NA
ATOM     14  C   UNL     1      -0.608  14.816  20.596  0.00  0.00    +0.000 A 
ENDROOT
BRANCH  12  15
ATOM     15  C   UNL     1       0.056   9.926  19.495  0.00  0.00    +0.000 A 
ATOM     16  C   UNL     1      -0.535  10.007  20.763  0.00  0.00    +0.000 A 
ATOM     17  C   UNL     1      -0.001   9.290  21.834  0.00  0.00    +0.000 A 
ATOM     18  F   UNL     1      -0.576   9.386  23.038  0.00  0.00    +0.000 F 
ATOM     19  C   UNL     1       1.111   8.475  21.667  0.00  0.00    +0.000 A 
ATOM     20  C   UNL     1       1.708   8.379  20.411  0.00  0.00    +0.000 A 
ATOM     21  C   UNL     1       1.180   9.099  19.343  0.00  0.00    +0.000 A 
ATOM     22  F   UNL     1       1.761   8.985  18.140  0.00  0.00    +0.000 F 
ENDBRANCH  12  15
BRANCH   1  24
ATOM     23  N   UNL     1      -2.492  14.395  22.982  0.00  0.00    +0.000 N 
ATOM     24  C   UNL     1      -1.946  15.619  22.666  0.00  0.00    +0.000 C 
ATOM     25  O   UNL     1      -2.281  16.649  23.244  0.00  0.00    +0.000 OA
ATOM     26  H   UNL     1      -2.224  13.592  22.412  0.00  0.00    +0.000 HD
BRANCH  23  28
ATOM     27  C   UNL     1      -3.014  14.759  25.378  0.00  0.00    +0.000 C 
ATOM     28  C   UNL     1      -3.534  14.221  24.027  0.00  0.00    +0.000 C 
BRANCH  28  29
ATOM     29  C   UNL     1      -3.942  12.724  24.169  0.00  0.00    +0.000 C 
BRANCH  29  30
ATOM     30  O   UNL     1      -4.508  12.439  25.450  0.00  0.00    +0.000 OA
ATOM     31  H   UNL     1      -3.767  12.352  26.076  0.00  0.00    +0.000 HD
ENDBRANCH  29  30
ENDBRANCH  28  29
BRANCH  28  32
ATOM     32  C   UNL     1      -4.813  15.014  23.632  0.00  0.00    +0.000 C 
BRANCH  32  33
ATOM     33  O   UNL     1      -5.983  14.496  24.270  0.00  0.00    +0.000 OA
ATOM     34  H   UNL     1      -6.059  14.945  25.130  0.00  0.00    +0.000 HD
ENDBRANCH  32  33
ENDBRANCH  28  32
ENDBRANCH  23  28
ENDBRANCH   1  24
TORSDOF 7
ENDMDL
MODEL 2
REMARK VINA RESULT:      -6.2      0.737      1.371
REMARK  Name = 
REMARK  8 active torsions:
REMARK  status: ('A' for Active; 'I' for Inactive)
REMARK    1  A    between atoms: C_1  and  C_2
REMARK    2  A    between atoms: C_2  and  C_3
REMARK    3  A    between atoms: C_2  and  C_5
REMARK    4  A    between atoms: C_2  and  N_7
REMARK    5  A    between atoms: C_3  and  O_4
REMARK    6  A    between atoms: C_5  and  O_6
REMARK    7  A    between atoms: C_8  and  C_10
REMARK    8  A    between atoms: C_21  and  C_22
REMARK                            x       y       z     vdW  Elec       q    Type
REMARK                         _______ _______ _______ _____ _____    ______ ____
ROOT
ATOM      1  C   UNL     1      -1.732  15.570  21.316  0.00  0.00    +0.000 A 
ATOM      2  C   UNL     1      -0.875  16.694  21.309  0.00  0.00    +0.000 A 
ATOM      3  N   UNL     1       0.140  16.587  20.457  0.00  0.00    +0.000 NA
ATOM      4  N   UNL     1      -0.033  15.369  19.898  0.00  0.00    +0.000 N 
ATOM      5  C   UNL     1       0.808  14.749  18.988  0.00  0.00    +0.000 A 
ATOM      6  C   UNL     1       0.513  13.536  18.514  0.00  0.00    +0.000 A 
ATOM      7  C   UNL     1      -0.794  12.939  18.960  0.00  0.00    +0.000 A 
ATOM      8  N   UNL     1      -1.206  11.743  18.416  0.00  0.00    +0.000 N 
ATOM      9  C   UNL     1      -2.452  11.652  17.670  0.00  0.00    +0.000 C 
ATOM     10  C   UNL     1      -2.698  10.158  17.590  0.00  0.00    +0.000 C 
ATOM     11  C   UNL     1      -1.294   9.593  17.408  0.00  0.00    +0.000 C 
ATOM     12  C   UNL     1      -0.379  10.551  18.200  0.00  0.00    +0.000 C 
ATOM     13  N   UNL     1      -1.594  13.528  19.828  0.00  0.00    +0.000 NA
ATOM     14  C   UNL     1      -1.201  14.737  20.346  0.00  0.00    +0.000 A 
ENDROOT
BRANCH  12  15
ATOM     15  C   UNL     1       0.083   9.920  19.500  0.00  0.00    +0.000 A 
ATOM     16  C   UNL     1      -0.594  10.106  20.714  0.00  0.00    +0.000 A 
ATOM     17  C   UNL     1      -0.152   9.462  21.869  0.00  0.00    +0.000 A 
ATOM     18  F   UNL     1      -0.808   9.658  23.019  0.00  0.00    +0.000 F 
ATOM     19  C   UNL     1       0.950   8.618  21.843  0.00  0.00    +0.000 A 
ATOM     20  C   UNL     1       1.631   8.419  20.644  0.00  0.00    +0.000 A 
ATOM     21  C   UNL     1       1.196   9.065  19.490  0.00  0.00    +0.000 A 
ATOM     22  F   UNL     1       1.857   8.852  18.344  0.00  0.00    +0.000 F 
ENDBRANCH  12  15
BRANCH   1  24
ATOM     23  N   UNL     1      -3.143  14.200  22.734  0.00  0.00    +0.000 N 
ATOM     24  C   UNL     1      -2.879  15.439  22.193  0.00  0.00    +0.000 C 
ATOM     25  O   UNL     1      -3.561  16.423  22.459  0.00  0.00    +0.000 OA
ATOM     26  H   UNL     1      -2.584  13.410  22.412  0.00  0.00    +0.000 HD
BRANCH  23  28
ATOM     27  C   UNL     1      -5.570  13.709  22.855  0.00  0.00    +0.000 C 
ATOM     28  C   UNL     1      -4.276  13.950  23.663  0.00  0.00    +0.000 C 
BRANCH  28  29
ATOM     29  C   UNL     1      -4.473  15.146  24.643  0.00  0.00    +0.000 C 
BRANCH  29  30
ATOM     30  O   UNL     1      -5.745  15.774  24.477  0.00  0.00    +0.000 OA
ATOM     31  H   UNL     1      -6.069  16.002  25.367  0.00  0.00    +0.000 HD
ENDBRANCH  29  30
ENDBRANCH  28  29
BRANCH  28  32
ATOM     32  C   UNL     1      -3.982  12.689  24.525  0.00  0.00    +0.000 C 
BRANCH  32  33
ATOM     33  O   UNL     1      -5.137  11.861  24.674  0.00  0.00    +0.000 OA
ATOM     34  H   UNL     1      -5.701  12.017  23.897  0.00  0.00    +0.000 HD
ENDBRANCH  32  33
ENDBRANCH  28  32
ENDBRANCH  23  28
ENDBRANCH   1  24
TORSDOF 7
ENDMDL
MODEL 3
REMARK VINA RESULT:      -6.2      3.841      6.762
REMARK  Name = 
REMARK  8 active torsions:
REMARK  status: ('A' for Active; 'I' for Inactive)
REMARK    1  A    between atoms: C_1  and  C_2
REMARK    2  A    between atoms: C_2  and  C_3
REMARK    3  A    between atoms: C_2  and  C_5
REMARK    4  A    between atoms: C_2  and  N_7
REMARK    5  A    between atoms: C_3  and  O_4
REMARK    6  A    between atoms: C_5  and  O_6
REMARK    7  A    between atoms: C_8  and  C_10
REMARK    8  A    between atoms: C_21  and  C_22
REMARK                            x       y       z     vdW  Elec       q    Type
REMARK                         _______ _______ _______ _____ _____    ______ ____
ROOT
ATOM      1  C   UNL     1      -2.466  11.142  18.091  0.00  0.00    +0.000 A 
ATOM      2  C   UNL     1      -1.786  10.050  17.505  0.00  0.00    +0.000 A 
ATOM      3  N   UNL     1      -0.478  10.042  17.748  0.00  0.00    +0.000 NA
ATOM      4  N   UNL     1      -0.280  11.152  18.493  0.00  0.00    +0.000 N 
ATOM      5  C   UNL     1       0.935  11.637  18.948  0.00  0.00    +0.000 A 
ATOM      6  C   UNL     1       0.984  12.752  19.681  0.00  0.00    +0.000 A 
ATOM      7  C   UNL     1      -0.335  13.384  20.036  0.00  0.00    +0.000 A 
ATOM      8  N   UNL     1      -0.353  14.468  20.884  0.00  0.00    +0.000 N 
ATOM      9  C   UNL     1      -1.063  14.411  22.153  0.00  0.00    +0.000 C 
ATOM     10  C   UNL     1      -1.148  15.868  22.566  0.00  0.00    +0.000 C 
ATOM     11  C   UNL     1       0.195  16.427  22.112  0.00  0.00    +0.000 C 
ATOM     12  C   UNL     1       0.542  15.629  20.838  0.00  0.00    +0.000 C 
ATOM     13  N   UNL     1      -1.491  12.922  19.601  0.00  0.00    +0.000 NA
ATOM     14  C   UNL     1      -1.478  11.821  18.783  0.00  0.00    +0.000 A 
ENDROOT
BRANCH  12  15
ATOM     15  C   UNL     1       0.342  16.469  19.591  0.00  0.00    +0.000 A 
ATOM     16  C   UNL     1      -0.894  17.041  19.254  0.00  0.00    +0.000 A 
ATOM     17  C   UNL     1      -1.009  17.845  18.120  0.00  0.00    +0.000 A 
ATOM     18  F   UNL     1      -2.198  18.376  17.813  0.00  0.00    +0.000 F 
ATOM     19  C   UNL     1       0.090  18.107  17.312  0.00  0.00    +0.000 A 
ATOM     20  C   UNL     1       1.326  17.550  17.636  0.00  0.00    +0.000 A 
ATOM     21  C   UNL     1       1.442  16.742  18.763  0.00  0.00    +0.000 A 
ATOM     22  F   UNL     1       2.641  16.225  19.064  0.00  0.00    +0.000 F 
ENDBRANCH  12  15
BRANCH   1  24
ATOM     23  N   UNL     1      -4.612  11.754  19.037  0.00  0.00    +0.000 N 
ATOM     24  C   UNL     1      -3.885  11.385  17.927  0.00  0.00    +0.000 C 
ATOM     25  O   UNL     1      -4.398  11.292  16.816  0.00  0.00    +0.000 OA
ATOM     26  H   UNL     1      -4.141  11.738  19.942  0.00  0.00    +0.000 HD
BRANCH  23  28
ATOM     27  C   UNL     1      -6.853  10.762  18.661  0.00  0.00    +0.000 C 
ATOM     28  C   UNL     1      -6.067  12.051  18.988  0.00  0.00    +0.000 C 
BRANCH  28  29
ATOM     29  C   UNL     1      -6.380  13.151  17.928  0.00  0.00    +0.000 C 
BRANCH  29  30
ATOM     30  O   UNL     1      -7.001  12.612  16.760  0.00  0.00    +0.000 OA
ATOM     31  H   UNL     1      -7.044  11.646  16.879  0.00  0.00    +0.000 HD
ENDBRANCH  29  30
ENDBRANCH  28  29
BRANCH  28  32
ATOM     32  C   UNL     1      -6.543  12.589  20.368  0.00  0.00    +0.000 C 
BRANCH  32  33
ATOM     33  O   UNL     1      -5.741  12.092  21.442  0.00  0.00    +0.000 OA
ATOM     34  H   UNL     1      -5.396  12.866  21.920  0.00  0.00    +0.000 HD
ENDBRANCH  32  33
ENDBRANCH  28  32
ENDBRANCH  23  28
ENDBRANCH   1  24
TORSDOF 7
ENDMDL
MODEL 4
REMARK VINA RESULT:      -6.2      1.242      1.874
REMARK  Name = 
REMARK  8 active torsions:
REMARK  status: ('A' for Active; 'I' for Inactive)
REMARK    1  A    between atoms: C_1  and  C_2
REMARK    2  A    between atoms: C_2  and  C_3
REMARK    3  A    between atoms: C_2  and  C_5
REMARK    4  A    between atoms: C_2  and  N_7
REMARK    5  A    between atoms: C_3  and  O_4
REMARK    6  A    between atoms: C_5  and  O_6
REMARK    7  A    between atoms: C_8  and  C_10
REMARK    8  A    between atoms: C_21  and  C_22
REMARK                            x       y       z     vdW  Elec       q    Type
REMARK                         _______ _______ _______ _____ _____    ______ ____
ROOT
ATOM      1  C   UNL     1      -2.328  15.102  21.826  0.00  0.00    +0.000 A 
ATOM      2  C   UNL     1      -1.593  16.308  21.892  0.00  0.00    +0.000 A 
ATOM      3  N   UNL     1      -0.652  16.412  20.958  0.00  0.00    +0.000 NA
ATOM      4  N   UNL     1      -0.751  15.254  20.268  0.00  0.00    +0.000 N 
ATOM      5  C   UNL     1       0.063  14.840  19.227  0.00  0.00    +0.000 A 
ATOM      6  C   UNL     1      -0.149  13.664  18.630  0.00  0.00    +0.000 A 
ATOM      7  C   UNL     1      -1.344  12.879  19.098  0.00  0.00    +0.000 A 
ATOM      8  N   UNL     1      -1.680  11.715  18.444  0.00  0.00    +0.000 N 
ATOM      9  C   UNL     1      -2.973  11.573  17.790  0.00  0.00    +0.000 C 
ATOM     10  C   UNL     1      -3.073  10.080  17.546  0.00  0.00    +0.000 C 
ATOM     11  C   UNL     1      -1.642   9.698  17.188  0.00  0.00    +0.000 C 
ATOM     12  C   UNL     1      -0.761  10.654  18.020  0.00  0.00    +0.000 C 
ATOM     13  N   UNL     1      -2.118  13.273  20.091  0.00  0.00    +0.000 NA
ATOM     14  C   UNL     1      -1.805  14.450  20.723  0.00  0.00    +0.000 A 
ENDROOT
BRANCH  12  15
ATOM     15  C   UNL     1      -0.123   9.934  19.192  0.00  0.00    +0.000 A 
ATOM     16  C   UNL     1      -0.732   9.854  20.453  0.00  0.00    +0.000 A 
ATOM     17  C   UNL     1      -0.122   9.137  21.482  0.00  0.00    +0.000 A 
ATOM     18  F   UNL     1      -0.716   9.079  22.680  0.00  0.00    +0.000 F 
ATOM     19  C   UNL     1       1.084   8.478  21.281  0.00  0.00    +0.000 A 
ATOM     20  C   UNL     1       1.699   8.544  20.033  0.00  0.00    +0.000 A 
ATOM     21  C   UNL     1       1.096   9.264  19.005  0.00  0.00    +0.000 A 
ATOM     22  F   UNL     1       1.697   9.305  17.808  0.00  0.00    +0.000 F 
ENDBRANCH  12  15
BRANCH   1  24
ATOM     23  N   UNL     1      -4.416  13.971  22.312  0.00  0.00    +0.000 N 
ATOM     24  C   UNL     1      -3.372  14.745  22.766  0.00  0.00    +0.000 C 
ATOM     25  O   UNL     1      -3.292  15.106  23.936  0.00  0.00    +0.000 OA
ATOM     26  H   UNL     1      -4.461  13.771  21.312  0.00  0.00    +0.000 HD
BRANCH  23  28
ATOM     27  C   UNL     1      -6.513  12.650  22.377  0.00  0.00    +0.000 C 
ATOM     28  C   UNL     1      -5.531  13.525  23.187  0.00  0.00    +0.000 C 
BRANCH  28  29
ATOM     29  C   UNL     1      -6.283  14.742  23.803  0.00  0.00    +0.000 C 
BRANCH  29  30
ATOM     30  O   UNL     1      -7.278  15.264  22.921  0.00  0.00    +0.000 OA
ATOM     31  H   UNL     1      -7.214  16.235  22.962  0.00  0.00    +0.000 HD
ENDBRANCH  29  30
ENDBRANCH  28  29
BRANCH  28  32
ATOM     32  C   UNL     1      -4.968  12.682  24.368  0.00  0.00    +0.000 C 
BRANCH  32  33
ATOM     33  O   UNL     1      -3.805  11.942  23.992  0.00  0.00    +0.000 OA
ATOM     34  H   UNL     1      -3.479  12.328  23.161  0.00  0.00    +0.000 HD
ENDBRANCH  32  33
ENDBRANCH  28  32
ENDBRANCH  23  28
ENDBRANCH   1  24
TORSDOF 7
ENDMDL
MODEL 5
REMARK VINA RESULT:      -6.2      1.178      1.346
REMARK  Name = 
REMARK  8 active torsions:
REMARK  status: ('A' for Active; 'I' for Inactive)
REMARK    1  A    between atoms: C_1  and  C_2
REMARK    2  A    between atoms: C_2  and  C_3
REMARK    3  A    between atoms: C_2  and  C_5
REMARK    4  A    between atoms: C_2  and  N_7
REMARK    5  A    between atoms: C_3  and  O_4
REMARK    6  A    between atoms: C_5  and  O_6
REMARK    7  A    between atoms: C_8  and  C_10
REMARK    8  A    between atoms: C_21  and  C_22
REMARK                            x       y       z     vdW  Elec       q    Type
REMARK                         _______ _______ _______ _____ _____    ______ ____
ROOT
ATOM      1  C   UNL     1      -1.811  15.053  21.724  0.00  0.00    +0.000 A 
ATOM      2  C   UNL     1      -0.991  16.202  21.797  0.00  0.00    +0.000 A 
ATOM      3  N   UNL     1      -0.041  16.240  20.867  0.00  0.00    +0.000 NA
ATOM      4  N   UNL     1      -0.219  15.094  20.173  0.00  0.00    +0.000 N 
ATOM      5  C   UNL     1       0.568  14.625  19.134  0.00  0.00    +0.000 A 
ATOM      6  C   UNL     1       0.273  13.469  18.534  0.00  0.00    +0.000 A 
ATOM      7  C   UNL     1      -0.978  12.771  18.994  0.00  0.00    +0.000 A 
ATOM      8  N   UNL     1      -1.394  11.636  18.334  0.00  0.00    +0.000 N 
ATOM      9  C   UNL     1      -2.690  11.590  17.675  0.00  0.00    +0.000 C 
ATOM     10  C   UNL     1      -2.897  10.108  17.425  0.00  0.00    +0.000 C 
ATOM     11  C   UNL     1      -1.496   9.625  17.073  0.00  0.00    +0.000 C 
ATOM     12  C   UNL     1      -0.552  10.513  17.911  0.00  0.00    +0.000 C 
ATOM     13  N   UNL     1      -1.726  13.217  19.984  0.00  0.00    +0.000 NA
ATOM     14  C   UNL     1      -1.331  14.367  20.621  0.00  0.00    +0.000 A 
ENDROOT
BRANCH  12  15
ATOM     15  C   UNL     1       0.027   9.745  19.085  0.00  0.00    +0.000 A 
ATOM     16  C   UNL     1      -0.640   9.624  20.312  0.00  0.00    +0.000 A 
ATOM     17  C   UNL     1      -0.083   8.864  21.341  0.00  0.00    +0.000 A 
ATOM     18  F   UNL     1      -0.733   8.766  22.507  0.00  0.00    +0.000 F 
ATOM     19  C   UNL     1       1.127   8.205  21.172  0.00  0.00    +0.000 A 
ATOM     20  C   UNL     1       1.800   8.312  19.956  0.00  0.00    +0.000 A 
ATOM     21  C   UNL     1       1.250   9.074  18.930  0.00  0.00    +0.000 A 
ATOM     22  F   UNL     1       1.906   9.155  17.764  0.00  0.00    +0.000 F 
ENDBRANCH  12  15
BRANCH   1  24
ATOM     23  N   UNL     1      -4.126  14.473  22.147  0.00  0.00    +0.000 N 
ATOM     24  C   UNL     1      -2.882  14.770  22.658  0.00  0.00    +0.000 C 
ATOM     25  O   UNL     1      -2.658  14.768  23.864  0.00  0.00    +0.000 OA
ATOM     26  H   UNL     1      -4.263  14.566  21.140  0.00  0.00    +0.000 HD
BRANCH  23  28
ATOM     27  C   UNL     1      -5.735  15.399  23.790  0.00  0.00    +0.000 C 
ATOM     28  C   UNL     1      -5.294  14.144  23.005  0.00  0.00    +0.000 C 
BRANCH  28  29
ATOM     29  C   UNL     1      -4.958  12.987  23.992  0.00  0.00    +0.000 C 
BRANCH  29  30
ATOM     30  O   UNL     1      -6.096  12.580  24.754  0.00  0.00    +0.000 OA
ATOM     31  H   UNL     1      -6.009  12.987  25.635  0.00  0.00    +0.000 HD
ENDBRANCH  29  30
ENDBRANCH  28  29
BRANCH  28  32
ATOM     32  C   UNL     1      -6.481  13.667  22.119  0.00  0.00    +0.000 C 
BRANCH  32  33
ATOM     33  O   UNL     1      -6.396  12.273  21.816  0.00  0.00    +0.000 OA
ATOM     34  H   UNL     1      -6.745  12.156  20.915  0.00  0.00    +0.000 HD
ENDBRANCH  32  33
ENDBRANCH  28  32
ENDBRANCH  23  28
ENDBRANCH   1  24
TORSDOF 7
ENDMDL
MODEL 6
REMARK VINA RESULT:      -6.2      3.795      6.709
REMARK  Name = 
REMARK  8 active torsions:
REMARK  status: ('A' for Active; 'I' for Inactive)
REMARK    1  A    between atoms: C_1  and  C_2
REMARK    2  A    between atoms: C_2  and  C_3
REMARK    3  A    between atoms: C_2  and  C_5
REMARK    4  A    between atoms: C_2  and  N_7
REMARK    5  A    between atoms: C_3  and  O_4
REMARK    6  A    between atoms: C_5  and  O_6
REMARK    7  A    between atoms: C_8  and  C_10
REMARK    8  A    between atoms: C_21  and  C_22
REMARK                            x       y       z     vdW  Elec       q    Type
REMARK                         _______ _______ _______ _____ _____    ______ ____
ROOT
ATOM      1  C   UNL     1      -2.513  11.221  18.149  0.00  0.00    +0.000 A 
ATOM      2  C   UNL     1      -1.818  10.119  17.601  0.00  0.00    +0.000 A 
ATOM      3  N   UNL     1      -0.513  10.128  17.860  0.00  0.00    +0.000 NA
ATOM      4  N   UNL     1      -0.333  11.258  18.578  0.00  0.00    +0.000 N 
ATOM      5  C   UNL     1       0.872  11.764  19.036  0.00  0.00    +0.000 A 
ATOM      6  C   UNL     1       0.904  12.899  19.740  0.00  0.00    +0.000 A 
ATOM      7  C   UNL     1      -0.423  13.530  20.061  0.00  0.00    +0.000 A 
ATOM      8  N   UNL     1      -0.460  14.636  20.879  0.00  0.00    +0.000 N 
ATOM      9  C   UNL     1      -1.186  14.607  22.140  0.00  0.00    +0.000 C 
ATOM     10  C   UNL     1      -1.287  16.073  22.514  0.00  0.00    +0.000 C 
ATOM     11  C   UNL     1       0.057  16.631  22.061  0.00  0.00    +0.000 C 
ATOM     12  C   UNL     1       0.427  15.802  20.813  0.00  0.00    +0.000 C 
ATOM     13  N   UNL     1      -1.571  13.048  19.623  0.00  0.00    +0.000 NA
ATOM     14  C   UNL     1      -1.539  11.925  18.835  0.00  0.00    +0.000 A 
ENDROOT
BRANCH  12  15
ATOM     15  C   UNL     1       0.236  16.607  19.542  0.00  0.00    +0.000 A 
ATOM     16  C   UNL     1      -0.984  17.210  19.204  0.00  0.00    +0.000 A 
ATOM     17  C   UNL     1      -1.089  17.980  18.046  0.00  0.00    +0.000 A 
ATOM     18  F   UNL     1      -2.264  18.541  17.737  0.00  0.00    +0.000 F 
ATOM     19  C   UNL     1       0.006  18.177  17.214  0.00  0.00    +0.000 A 
ATOM     20  C   UNL     1       1.227  17.589  17.539  0.00  0.00    +0.000 A 
ATOM     21  C   UNL     1       1.332  16.815  18.691  0.00  0.00    +0.000 A 
ATOM     22  F   UNL     1       2.518  16.267  18.992  0.00  0.00    +0.000 F 
ENDBRANCH  12  15
BRANCH   1  24
ATOM     23  N   UNL     1      -4.663  11.909  19.034  0.00  0.00    +0.000 N 
ATOM     24  C   UNL     1      -3.932  11.449  17.962  0.00  0.00    +0.000 C 
ATOM     25  O   UNL     1      -4.442  11.262  16.861  0.00  0.00    +0.000 OA
ATOM     26  H   UNL     1      -4.194  11.970  19.939  0.00  0.00    +0.000 HD
BRANCH  23  28
ATOM     27  C   UNL     1      -6.370  13.324  17.925  0.00  0.00    +0.000 C 
ATOM     28  C   UNL     1      -6.117  12.201  18.955  0.00  0.00    +0.000 C 
BRANCH  28  29
ATOM     29  C   UNL     1      -6.684  12.614  20.347  0.00  0.00    +0.000 C 
BRANCH  29  30
ATOM     30  O   UNL     1      -6.056  11.906  21.416  0.00  0.00    +0.000 OA
ATOM     31  H   UNL     1      -5.822  11.024  21.075  0.00  0.00    +0.000 HD
ENDBRANCH  29  30
ENDBRANCH  28  29
BRANCH  28  32
ATOM     32  C   UNL     1      -6.886  10.926  18.502  0.00  0.00    +0.000 C 
BRANCH  32  33
ATOM     33  O   UNL     1      -7.544  10.281  19.595  0.00  0.00    +0.000 OA
ATOM     34  H   UNL     1      -7.129  10.611  20.411  0.00  0.00    +0.000 HD
ENDBRANCH  32  33
ENDBRANCH  28  32
ENDBRANCH  23  28
ENDBRANCH   1  24
TORSDOF 7
ENDMDL
MODEL 7
REMARK VINA RESULT:      -6.2      3.937      6.766
REMARK  Name = 
REMARK  8 active torsions:
REMARK  status: ('A' for Active; 'I' for Inactive)
REMARK    1  A    between atoms: C_1  and  C_2
REMARK    2  A    between atoms: C_2  and  C_3
REMARK    3  A    between atoms: C_2  and  C_5
REMARK    4  A    between atoms: C_2  and  N_7
REMARK    5  A    between atoms: C_3  and  O_4
REMARK    6  A    between atoms: C_5  and  O_6
REMARK    7  A    between atoms: C_8  and  C_10
REMARK    8  A    between atoms: C_21  and  C_22
REMARK                            x       y       z     vdW  Elec       q    Type
REMARK                         _______ _______ _______ _____ _____    ______ ____
ROOT
ATOM      1  C   UNL     1      -2.243  11.120  18.295  0.00  0.00    +0.000 A 
ATOM      2  C   UNL     1      -1.543  10.035  17.720  0.00  0.00    +0.000 A 
ATOM      3  N   UNL     1      -0.230  10.081  17.919  0.00  0.00    +0.000 NA
ATOM      4  N   UNL     1      -0.047  11.220  18.623  0.00  0.00    +0.000 N 
ATOM      5  C   UNL     1       1.163  11.761  19.021  0.00  0.00    +0.000 A 
ATOM      6  C   UNL     1       1.197  12.901  19.718  0.00  0.00    +0.000 A 
ATOM      7  C   UNL     1      -0.132  13.497  20.097  0.00  0.00    +0.000 A 
ATOM      8  N   UNL     1      -0.161  14.607  20.911  0.00  0.00    +0.000 N 
ATOM      9  C   UNL     1      -0.827  14.565  22.204  0.00  0.00    +0.000 C 
ATOM     10  C   UNL     1      -0.951  16.031  22.575  0.00  0.00    +0.000 C 
ATOM     11  C   UNL     1       0.355  16.622  22.059  0.00  0.00    +0.000 C 
ATOM     12  C   UNL     1       0.690  15.796  20.798  0.00  0.00    +0.000 C 
ATOM     13  N   UNL     1      -1.285  12.982  19.716  0.00  0.00    +0.000 NA
ATOM     14  C   UNL     1      -1.258  11.855  18.932  0.00  0.00    +0.000 A 
ENDROOT
BRANCH  12  15
ATOM     15  C   UNL     1       0.418  16.588  19.534  0.00  0.00    +0.000 A 
ATOM     16  C   UNL     1      -0.839  17.133  19.237  0.00  0.00    +0.000 A 
ATOM     17  C   UNL     1      -1.019  17.894  18.082  0.00  0.00    +0.000 A 
ATOM     18  F   UNL     1      -2.228  18.400  17.814  0.00  0.00    +0.000 F 
ATOM     19  C   UNL     1       0.036  18.140  17.213  0.00  0.00    +0.000 A 
ATOM     20  C   UNL     1       1.293  17.609  17.496  0.00  0.00    +0.000 A 
ATOM     21  C   UNL     1       1.474  16.843  18.645  0.00  0.00    +0.000 A 
ATOM     22  F   UNL     1       2.693  16.351  18.905  0.00  0.00    +0.000 F 
ENDBRANCH  12  15
BRANCH   1  24
ATOM     23  N   UNL     1      -4.260  12.323  18.896  0.00  0.00    +0.000 N 
ATOM     24  C   UNL     1      -3.675  11.309  18.172  0.00  0.00    +0.000 C 
ATOM     25  O   UNL     1      -4.323  10.594  17.414  0.00  0.00    +0.000 OA
ATOM     26  H   UNL     1      -3.678  12.829  19.564  0.00  0.00    +0.000 HD
BRANCH  23  28
ATOM     27  C   UNL     1      -6.006  13.944  19.583  0.00  0.00    +0.000 C 
ATOM     28  C   UNL     1      -5.713  12.626  18.834  0.00  0.00    +0.000 C 
BRANCH  28  29
ATOM     29  C   UNL     1      -6.555  11.465  19.445  0.00  0.00    +0.000 C 
BRANCH  29  30
ATOM     30  O   UNL     1      -7.159  10.649  18.439  0.00  0.00    +0.000 OA
ATOM     31  H   UNL     1      -7.997  10.316  18.808  0.00  0.00    +0.000 HD
ENDBRANCH  29  30
ENDBRANCH  28  29
BRANCH  28  32
ATOM     32  C   UNL     1      -6.155  12.786  17.350  0.00  0.00    +0.000 C 
BRANCH  32  33
ATOM     33  O   UNL     1      -7.462  13.354  17.239  0.00  0.00    +0.000 OA
ATOM     34  H   UNL     1      -7.816  13.083  16.374  0.00  0.00    +0.000 HD
ENDBRANCH  32  33
ENDBRANCH  28  32
ENDBRANCH  23  28
ENDBRANCH   1  24
TORSDOF 7
ENDMDL
MODEL 8
REMARK VINA RESULT:      -6.2      2.626      4.821
REMARK  Name = 
REMARK  8 active torsions:
REMARK  status: ('A' for Active; 'I' for Inactive)
REMARK    1  A    between atoms: C_1  and  C_2
REMARK    2  A    between atoms: C_2  and  C_3
REMARK    3  A    between atoms: C_2  and  C_5
REMARK    4  A    between atoms: C_2  and  N_7
REMARK    5  A    between atoms: C_3  and  O_4
REMARK    6  A    between atoms: C_5  and  O_6
REMARK    7  A    between atoms: C_8  and  C_10
REMARK    8  A    between atoms: C_21  and  C_22
REMARK                            x       y       z     vdW  Elec       q    Type
REMARK                         _______ _______ _______ _____ _____    ______ ____
ROOT
ATOM      1  C   UNL     1      -5.320  12.625  19.350  0.00  0.00    +0.000 A 
ATOM      2  C   UNL     1      -6.189  12.591  18.236  0.00  0.00    +0.000 A 
ATOM      3  N   UNL     1      -5.637  12.072  17.144  0.00  0.00    +0.000 NA
ATOM      4  N   UNL     1      -4.378  11.768  17.529  0.00  0.00    +0.000 N 
ATOM      5  C   UNL     1      -3.367  11.261  16.729  0.00  0.00    +0.000 A 
ATOM      6  C   UNL     1      -2.162  11.005  17.245  0.00  0.00    +0.000 A 
ATOM      7  C   UNL     1      -2.004  11.222  18.726  0.00  0.00    +0.000 A 
ATOM      8  N   UNL     1      -0.821  10.866  19.333  0.00  0.00    +0.000 N 
ATOM      9  C   UNL     1      -0.796   9.865  20.389  0.00  0.00    +0.000 C 
ATOM     10  C   UNL     1       0.574  10.054  21.012  0.00  0.00    +0.000 C 
ATOM     11  C   UNL     1       1.453  10.365  19.806  0.00  0.00    +0.000 C 
ATOM     12  C   UNL     1       0.532  11.135  18.836  0.00  0.00    +0.000 C 
ATOM     13  N   UNL     1      -2.967  11.706  19.487  0.00  0.00    +0.000 NA
ATOM     14  C   UNL     1      -4.158  12.029  18.889  0.00  0.00    +0.000 A 
ENDROOT
BRANCH  12  15
ATOM     15  C   UNL     1       0.863  12.615  18.822  0.00  0.00    +0.000 A 
ATOM     16  C   UNL     1       0.053  13.578  19.441  0.00  0.00    +0.000 A 
ATOM     17  C   UNL     1       0.432  14.920  19.438  0.00  0.00    +0.000 A 
ATOM     18  F   UNL     1      -0.359  15.824  20.029  0.00  0.00    +0.000 F 
ATOM     19  C   UNL     1       1.617  15.330  18.841  0.00  0.00    +0.000 A 
ATOM     20  C   UNL     1       2.435  14.385  18.226  0.00  0.00    +0.000 A 
ATOM     21  C   UNL     1       2.057  13.045  18.221  0.00  0.00    +0.000 A 
ATOM     22  F   UNL     1       2.863  12.150  17.635  0.00  0.00    +0.000 F 
ENDBRANCH  12  15
BRANCH   1  24
ATOM     23  N   UNL     1      -5.056  12.696  21.759  0.00  0.00    +0.000 N 
ATOM     24  C   UNL     1      -5.683  13.187  20.636  0.00  0.00    +0.000 C 
ATOM     25  O   UNL     1      -6.505  14.097  20.696  0.00  0.00    +0.000 OA
ATOM     26  H   UNL     1      -4.441  11.890  21.647  0.00  0.00    +0.000 HD
BRANCH  23  28
ATOM     27  C   UNL     1      -6.745  12.780  23.572  0.00  0.00    +0.000 C 
ATOM     28  C   UNL     1      -5.330  13.209  23.126  0.00  0.00    +0.000 C 
BRANCH  28  29
ATOM     29  C   UNL     1      -5.201  14.762  23.180  0.00  0.00    +0.000 C 
BRANCH  29  30
ATOM     30  O   UNL     1      -4.897  15.232  24.494  0.00  0.00    +0.000 OA
ATOM     31  H   UNL     1      -5.504  14.779  25.107  0.00  0.00    +0.000 HD
ENDBRANCH  29  30
ENDBRANCH  28  29
BRANCH  28  32
ATOM     32  C   UNL     1      -4.291  12.624  24.127  0.00  0.00    +0.000 C 
BRANCH  32  33
ATOM     33  O   UNL     1      -4.898  11.742  25.074  0.00  0.00    +0.000 OA
ATOM     34  H   UNL     1      -5.373  12.298  25.715  0.00  0.00    +0.000 HD
ENDBRANCH  32  33
ENDBRANCH  28  32
ENDBRANCH  23  28
ENDBRANCH   1  24
TORSDOF 7
ENDMDL
MODEL 9
REMARK VINA RESULT:      -6.1      1.207      1.588
REMARK  Name = 
REMARK  8 active torsions:
REMARK  status: ('A' for Active; 'I' for Inactive)
REMARK    1  A    between atoms: C_1  and  C_2
REMARK    2  A    between atoms: C_2  and  C_3
REMARK    3  A    between atoms: C_2  and  C_5
REMARK    4  A    between atoms: C_2  and  N_7
REMARK    5  A    between atoms: C_3  and  O_4
REMARK    6  A    between atoms: C_5  and  O_6
REMARK    7  A    between atoms: C_8  and  C_10
REMARK    8  A    between atoms: C_21  and  C_22
REMARK                            x       y       z     vdW  Elec       q    Type
REMARK                         _______ _______ _______ _____ _____    ______ ____
ROOT
ATOM      1  C   UNL     1      -1.541  16.106  20.882  0.00  0.00    +0.000 A 
ATOM      2  C   UNL     1      -0.616  17.174  20.900  0.00  0.00    +0.000 A 
ATOM      3  N   UNL     1       0.519  16.909  20.259  0.00  0.00    +0.000 NA
ATOM      4  N   UNL     1       0.354  15.642  19.819  0.00  0.00    +0.000 N 
ATOM      5  C   UNL     1       1.289  14.872  19.147  0.00  0.00    +0.000 A 
ATOM      6  C   UNL     1       0.990  13.626  18.768  0.00  0.00    +0.000 A 
ATOM      7  C   UNL     1      -0.413  13.158  19.040  0.00  0.00    +0.000 A 
ATOM      8  N   UNL     1      -0.814  11.928  18.569  0.00  0.00    +0.000 N 
ATOM      9  C   UNL     1      -1.919  11.812  17.630  0.00  0.00    +0.000 C 
ATOM     10  C   UNL     1      -2.257  10.334  17.676  0.00  0.00    +0.000 C 
ATOM     11  C   UNL     1      -0.888   9.678  17.810  0.00  0.00    +0.000 C 
ATOM     12  C   UNL     1      -0.053  10.676  18.639  0.00  0.00    +0.000 C 
ATOM     13  N   UNL     1      -1.303  13.892  19.681  0.00  0.00    +0.000 NA
ATOM     14  C   UNL     1      -0.916  15.133  20.121  0.00  0.00    +0.000 A 
ENDROOT
BRANCH  12  15
ATOM     15  C   UNL     1       0.135  10.188  20.062  0.00  0.00    +0.000 A 
ATOM     16  C   UNL     1      -0.632  10.667  21.134  0.00  0.00    +0.000 A 
ATOM     17  C   UNL     1      -0.449  10.146  22.415  0.00  0.00    +0.000 A 
ATOM     18  F   UNL     1      -1.186  10.622  23.426  0.00  0.00    +0.000 F 
ATOM     19  C   UNL     1       0.477   9.140  22.655  0.00  0.00    +0.000 A 
ATOM     20  C   UNL     1       1.243   8.649  21.600  0.00  0.00    +0.000 A 
ATOM     21  C   UNL     1       1.068   9.172  20.321  0.00  0.00    +0.000 A 
ATOM     22  F   UNL     1       1.806   8.678  19.317  0.00  0.00    +0.000 F 
ENDBRANCH  12  15
BRANCH   1  24
ATOM     23  N   UNL     1      -3.547  14.975  21.641  0.00  0.00    +0.000 N 
ATOM     24  C   UNL     1      -2.826  16.145  21.551  0.00  0.00    +0.000 C 
ATOM     25  O   UNL     1      -3.227  17.194  22.046  0.00  0.00    +0.000 OA
ATOM     26  H   UNL     1      -3.192  14.158  21.143  0.00  0.00    +0.000 HD
BRANCH  23  28
ATOM     27  C   UNL     1      -5.865  15.853  21.651  0.00  0.00    +0.000 C 
ATOM     28  C   UNL     1      -4.864  14.888  22.323  0.00  0.00    +0.000 C 
BRANCH  28  29
ATOM     29  C   UNL     1      -4.735  15.223  23.840  0.00  0.00    +0.000 C 
BRANCH  29  30
ATOM     30  O   UNL     1      -4.889  14.065  24.662  0.00  0.00    +0.000 OA
ATOM     31  H   UNL     1      -4.310  13.374  24.293  0.00  0.00    +0.000 HD
ENDBRANCH  29  30
ENDBRANCH  28  29
BRANCH  28  32
ATOM     32  C   UNL     1      -5.419  13.438  22.215  0.00  0.00    +0.000 C 
BRANCH  32  33
ATOM     33  O   UNL     1      -4.392  12.458  22.379  0.00  0.00    +0.000 OA
ATOM     34  H   UNL     1      -3.549  12.890  22.157  0.00  0.00    +0.000 HD
ENDBRANCH  32  33
ENDBRANCH  28  32
ENDBRANCH  23  28
ENDBRANCH   1  24
TORSDOF 7
ENDMDL
