MODEL 1
REMARK VINA RESULT:      -7.8      0.000      0.000
REMARK  Name = 
REMARK  4 active torsions:
REMARK  status: ('A' for Active; 'I' for Inactive)
REMARK    1  A    between atoms: C_4  and  C_5
REMARK    2  A    between atoms: C_5  and  C_6
REMARK    3  A    between atoms: N_9  and  C_10
REMARK    4  A    between atoms: C_10  and  C_11
REMARK                            x       y       z     vdW  Elec       q    Type
REMARK                         _______ _______ _______ _____ _____    ______ ____
ROOT
ATOM      1  C   UNL     1       6.329   5.364  16.786  0.00  0.00    +0.000 C 
ATOM      2  C   UNL     1       6.370   5.058  18.294  0.00  0.00    +0.000 C 
ATOM      3  C   UNL     1       4.998   5.022  18.975  0.00  0.00    +0.000 C 
ATOM      4  N   UNL     1       4.200   6.210  18.675  0.00  0.00    +0.000 NA
ATOM      5  C   UNL     1       3.987   6.362  17.235  0.00  0.00    +0.000 C 
ATOM      6  C   UNL     1       5.315   6.484  16.485  0.00  0.00    +0.000 C 
ENDROOT
BRANCH   1   7
ATOM      7  C   UNL     1       6.075   4.118  15.903  0.00  0.00    +0.000 C 
BRANCH   7  11
ATOM      8  C   UNL     1       7.224   4.400  11.731  0.00  0.00    +0.000 A 
ATOM      9  C   UNL     1       7.847   5.195  12.691  0.00  0.00    +0.000 A 
ATOM     10  C   UNL     1       7.450   5.125  14.030  0.00  0.00    +0.000 A 
ATOM     11  C   UNL     1       6.421   4.258  14.431  0.00  0.00    +0.000 A 
ATOM     12  C   UNL     1       5.806   3.462  13.452  0.00  0.00    +0.000 A 
ATOM     13  C   UNL     1       6.201   3.538  12.111  0.00  0.00    +0.000 A 
ENDBRANCH   7  11
ENDBRANCH   1   7
BRANCH   4  14
ATOM     14  C   UNL     1       2.945   6.278  19.451  0.00  0.00    +0.000 C 
BRANCH  14  15
ATOM     15  C   UNL     1       2.258   4.960  19.751  0.00  0.00    +0.000 A 
ATOM     16  C   UNL     1       2.213   4.461  21.063  0.00  0.00    +0.000 A 
ATOM     17  C   UNL     1       1.625   3.226  21.338  0.00  0.00    +0.000 A 
ATOM     18  C   UNL     1       1.061   2.479  20.306  0.00  0.00    +0.000 A 
ATOM     19  C   UNL     1       1.078   2.969  19.002  0.00  0.00    +0.000 A 
ATOM     20  C   UNL     1       1.670   4.203  18.726  0.00  0.00    +0.000 A 
ENDBRANCH  14  15
ENDBRANCH   4  14
TORSDOF 4
ENDMDL
MODEL 2
REMARK VINA RESULT:      -7.8      0.265      1.109
REMARK  Name = 
REMARK  4 active torsions:
REMARK  status: ('A' for Active; 'I' for Inactive)
REMARK    1  A    between atoms: C_4  and  C_5
REMARK    2  A    between atoms: C_5  and  C_6
REMARK    3  A    between atoms: N_9  and  C_10
REMARK    4  A    between atoms: C_10  and  C_11
REMARK                            x       y       z     vdW  Elec       q    Type
REMARK                         _______ _______ _______ _____ _____    ______ ____
ROOT
ATOM      1  C   UNL     1       6.028   5.607  16.716  0.00  0.00    +0.000 C 
ATOM      2  C   UNL     1       6.209   5.359  18.224  0.00  0.00    +0.000 C 
ATOM      3  C   UNL     1       4.901   5.240  19.012  0.00  0.00    +0.000 C 
ATOM      4  N   UNL     1       3.988   6.351  18.741  0.00  0.00    +0.000 NA
ATOM      5  C   UNL     1       3.655   6.434  17.319  0.00  0.00    +0.000 C 
ATOM      6  C   UNL     1       4.906   6.633  16.463  0.00  0.00    +0.000 C 
ENDROOT
BRANCH   1   7
ATOM      7  C   UNL     1       5.809   4.315  15.892  0.00  0.00    +0.000 C 
BRANCH   7  11
ATOM      8  C   UNL     1       7.293   4.421  11.820  0.00  0.00    +0.000 A 
ATOM      9  C   UNL     1       6.253   3.562  12.171  0.00  0.00    +0.000 A 
ATOM     10  C   UNL     1       5.801   3.507  13.493  0.00  0.00    +0.000 A 
ATOM     11  C   UNL     1       6.383   4.310  14.487  0.00  0.00    +0.000 A 
ATOM     12  C   UNL     1       7.427   5.172  14.115  0.00  0.00    +0.000 A 
ATOM     13  C   UNL     1       7.882   5.220  12.791  0.00  0.00    +0.000 A 
ENDBRANCH   7  11
ENDBRANCH   1   7
BRANCH   4  14
ATOM     14  C   UNL     1       2.795   6.348  19.612  0.00  0.00    +0.000 C 
BRANCH  14  15
ATOM     15  C   UNL     1       2.208   4.992  19.957  0.00  0.00    +0.000 A 
ATOM     16  C   UNL     1       2.340   4.467  21.253  0.00  0.00    +0.000 A 
ATOM     17  C   UNL     1       1.843   3.200  21.563  0.00  0.00    +0.000 A 
ATOM     18  C   UNL     1       1.196   2.447  20.586  0.00  0.00    +0.000 A 
ATOM     19  C   UNL     1       1.037   2.963  19.301  0.00  0.00    +0.000 A 
ATOM     20  C   UNL     1       1.538   4.229  18.989  0.00  0.00    +0.000 A 
ENDBRANCH  14  15
ENDBRANCH   4  14
TORSDOF 4
ENDMDL
MODEL 3
REMARK VINA RESULT:      -7.7      0.114      1.528
REMARK  Name = 
REMARK  4 active torsions:
REMARK  status: ('A' for Active; 'I' for Inactive)
REMARK    1  A    between atoms: C_4  and  C_5
REMARK    2  A    between atoms: C_5  and  C_6
REMARK    3  A    between atoms: N_9  and  C_10
REMARK    4  A    between atoms: C_10  and  C_11
REMARK                            x       y       z     vdW  Elec       q    Type
REMARK                         _______ _______ _______ _____ _____    ______ ____
ROOT
ATOM      1  C   UNL     1       6.201   5.426  16.757  0.00  0.00    +0.000 C 
ATOM      2  C   UNL     1       6.335   5.136  18.262  0.00  0.00    +0.000 C 
ATOM      3  C   UNL     1       5.003   5.043  19.014  0.00  0.00    +0.000 C 
ATOM      4  N   UNL     1       4.136   6.191  18.748  0.00  0.00    +0.000 NA
ATOM      5  C   UNL     1       3.843   6.320  17.320  0.00  0.00    +0.000 C 
ATOM      6  C   UNL     1       5.123   6.496  16.501  0.00  0.00    +0.000 C 
ENDROOT
BRANCH   1   7
ATOM      7  C   UNL     1       5.960   4.162  15.896  0.00  0.00    +0.000 C 
BRANCH   7  11
ATOM      8  C   UNL     1       7.254   4.437  11.767  0.00  0.00    +0.000 A 
ATOM      9  C   UNL     1       6.248   3.545  12.134  0.00  0.00    +0.000 A 
ATOM     10  C   UNL     1       5.858   3.435  13.473  0.00  0.00    +0.000 A 
ATOM     11  C   UNL     1       6.468   4.217  14.467  0.00  0.00    +0.000 A 
ATOM     12  C   UNL     1       7.477   5.113  14.078  0.00  0.00    +0.000 A 
ATOM     13  C   UNL     1       7.870   5.216  12.738  0.00  0.00    +0.000 A 
ENDBRANCH   7  11
ENDBRANCH   1   7
BRANCH   4  14
ATOM     14  C   UNL     1       2.921   6.209  19.588  0.00  0.00    +0.000 C 
BRANCH  14  15
ATOM     15  C   UNL     1       2.255   4.871  19.850  0.00  0.00    +0.000 A 
ATOM     16  C   UNL     1       1.661   4.152  18.800  0.00  0.00    +0.000 A 
ATOM     17  C   UNL     1       1.006   2.944  19.044  0.00  0.00    +0.000 A 
ATOM     18  C   UNL     1       0.948   2.432  20.338  0.00  0.00    +0.000 A 
ATOM     19  C   UNL     1       1.552   3.123  21.388  0.00  0.00    +0.000 A 
ATOM     20  C   UNL     1       2.204   4.334  21.145  0.00  0.00    +0.000 A 
ENDBRANCH  14  15
ENDBRANCH   4  14
TORSDOF 4
ENDMDL
MODEL 4
REMARK VINA RESULT:      -7.7      0.542      1.198
REMARK  Name = 
REMARK  4 active torsions:
REMARK  status: ('A' for Active; 'I' for Inactive)
REMARK    1  A    between atoms: C_4  and  C_5
REMARK    2  A    between atoms: C_5  and  C_6
REMARK    3  A    between atoms: N_9  and  C_10
REMARK    4  A    between atoms: C_10  and  C_11
REMARK                            x       y       z     vdW  Elec       q    Type
REMARK                         _______ _______ _______ _____ _____    ______ ____
ROOT
ATOM      1  C   UNL     1       6.685   5.706  17.059  0.00  0.00    +0.000 C 
ATOM      2  C   UNL     1       6.426   5.585  18.571  0.00  0.00    +0.000 C 
ATOM      3  C   UNL     1       4.949   5.452  18.956  0.00  0.00    +0.000 C 
ATOM      4  N   UNL     1       4.120   6.486  18.334  0.00  0.00    +0.000 NA
ATOM      5  C   UNL     1       4.214   6.441  16.875  0.00  0.00    +0.000 C 
ATOM      6  C   UNL     1       5.654   6.644  16.402  0.00  0.00    +0.000 C 
ENDROOT
BRANCH   1   7
ATOM      7  C   UNL     1       6.759   4.344  16.327  0.00  0.00    +0.000 C 
BRANCH   7  11
ATOM      8  C   UNL     1       6.989   4.369  11.997  0.00  0.00    +0.000 A 
ATOM      9  C   UNL     1       7.861   5.148  12.756  0.00  0.00    +0.000 A 
ATOM     10  C   UNL     1       7.761   5.162  14.151  0.00  0.00    +0.000 A 
ATOM     11  C   UNL     1       6.785   4.399  14.810  0.00  0.00    +0.000 A 
ATOM     12  C   UNL     1       5.916   3.618  14.030  0.00  0.00    +0.000 A 
ATOM     13  C   UNL     1       6.015   3.609  12.634  0.00  0.00    +0.000 A 
ENDBRANCH   7  11
ENDBRANCH   1   7
BRANCH   4  14
ATOM     14  C   UNL     1       2.725   6.481  18.820  0.00  0.00    +0.000 C 
BRANCH  14  15
ATOM     15  C   UNL     1       2.135   5.132  19.184  0.00  0.00    +0.000 A 
ATOM     16  C   UNL     1       1.764   4.222  18.181  0.00  0.00    +0.000 A 
ATOM     17  C   UNL     1       1.177   2.999  18.509  0.00  0.00    +0.000 A 
ATOM     18  C   UNL     1       0.966   2.664  19.844  0.00  0.00    +0.000 A 
ATOM     19  C   UNL     1       1.348   3.547  20.853  0.00  0.00    +0.000 A 
ATOM     20  C   UNL     1       1.931   4.772  20.525  0.00  0.00    +0.000 A 
ENDBRANCH  14  15
ENDBRANCH   4  14
TORSDOF 4
ENDMDL
MODEL 5
REMARK VINA RESULT:      -7.6      1.026      7.102
REMARK  Name = 
REMARK  4 active torsions:
REMARK  status: ('A' for Active; 'I' for Inactive)
REMARK    1  A    between atoms: C_4  and  C_5
REMARK    2  A    between atoms: C_5  and  C_6
REMARK    3  A    between atoms: N_9  and  C_10
REMARK    4  A    between atoms: C_10  and  C_11
REMARK                            x       y       z     vdW  Elec       q    Type
REMARK                         _______ _______ _______ _____ _____    ______ ____
ROOT
ATOM      1  C   UNL     1       3.712   6.330  18.227  0.00  0.00    +0.000 C 
ATOM      2  C   UNL     1       4.386   7.118  17.090  0.00  0.00    +0.000 C 
ATOM      3  C   UNL     1       5.348   6.294  16.227  0.00  0.00    +0.000 C 
ATOM      4  N   UNL     1       6.317   5.551  17.034  0.00  0.00    +0.000 NA
ATOM      5  C   UNL     1       5.651   4.641  17.965  0.00  0.00    +0.000 C 
ATOM      6  C   UNL     1       4.724   5.397  18.919  0.00  0.00    +0.000 C 
ENDROOT
BRANCH   1   7
ATOM      7  C   UNL     1       2.443   5.561  17.787  0.00  0.00    +0.000 C 
BRANCH   7  11
ATOM      8  C   UNL     1       1.217   2.429  20.524  0.00  0.00    +0.000 A 
ATOM      9  C   UNL     1       1.466   2.139  19.184  0.00  0.00    +0.000 A 
ATOM     10  C   UNL     1       1.828   3.159  18.297  0.00  0.00    +0.000 A 
ATOM     11  C   UNL     1       1.946   4.486  18.738  0.00  0.00    +0.000 A 
ATOM     12  C   UNL     1       1.695   4.760  20.092  0.00  0.00    +0.000 A 
ATOM     13  C   UNL     1       1.327   3.738  20.976  0.00  0.00    +0.000 A 
ENDBRANCH   7  11
ENDBRANCH   1   7
BRANCH   4  14
ATOM     14  C   UNL     1       7.357   4.885  16.224  0.00  0.00    +0.000 C 
BRANCH  14  15
ATOM     15  C   UNL     1       7.020   4.616  14.770  0.00  0.00    +0.000 A 
ATOM     16  C   UNL     1       5.980   3.737  14.429  0.00  0.00    +0.000 A 
ATOM     17  C   UNL     1       5.696   3.450  13.093  0.00  0.00    +0.000 A 
ATOM     18  C   UNL     1       6.441   4.049  12.079  0.00  0.00    +0.000 A 
ATOM     19  C   UNL     1       7.463   4.940  12.400  0.00  0.00    +0.000 A 
ATOM     20  C   UNL     1       7.749   5.224  13.737  0.00  0.00    +0.000 A 
ENDBRANCH  14  15
ENDBRANCH   4  14
TORSDOF 4
ENDMDL
MODEL 6
REMARK VINA RESULT:      -7.5      1.014      7.089
REMARK  Name = 
REMARK  4 active torsions:
REMARK  status: ('A' for Active; 'I' for Inactive)
REMARK    1  A    between atoms: C_4  and  C_5
REMARK    2  A    between atoms: C_5  and  C_6
REMARK    3  A    between atoms: N_9  and  C_10
REMARK    4  A    between atoms: C_10  and  C_11
REMARK                            x       y       z     vdW  Elec       q    Type
REMARK                         _______ _______ _______ _____ _____    ______ ____
ROOT
ATOM      1  C   UNL     1       3.637   6.367  18.230  0.00  0.00    +0.000 C 
ATOM      2  C   UNL     1       4.328   7.088  17.059  0.00  0.00    +0.000 C 
ATOM      3  C   UNL     1       5.297   6.214  16.256  0.00  0.00    +0.000 C 
ATOM      4  N   UNL     1       6.253   5.514  17.115  0.00  0.00    +0.000 NA
ATOM      5  C   UNL     1       5.571   4.659  18.087  0.00  0.00    +0.000 C 
ATOM      6  C   UNL     1       4.636   5.471  18.985  0.00  0.00    +0.000 C 
ENDROOT
BRANCH   1   7
ATOM      7  C   UNL     1       2.370   5.580  17.817  0.00  0.00    +0.000 C 
BRANCH   7  11
ATOM      8  C   UNL     1       1.296   2.391  20.553  0.00  0.00    +0.000 A 
ATOM      9  C   UNL     1       1.601   2.108  19.222  0.00  0.00    +0.000 A 
ATOM     10  C   UNL     1       1.914   3.144  18.336  0.00  0.00    +0.000 A 
ATOM     11  C   UNL     1       1.926   4.480  18.766  0.00  0.00    +0.000 A 
ATOM     12  C   UNL     1       1.619   4.746  20.110  0.00  0.00    +0.000 A 
ATOM     13  C   UNL     1       1.301   3.708  20.994  0.00  0.00    +0.000 A 
ENDBRANCH   7  11
ENDBRANCH   1   7
BRANCH   4  14
ATOM     14  C   UNL     1       7.300   4.799  16.357  0.00  0.00    +0.000 C 
BRANCH  14  15
ATOM     15  C   UNL     1       7.033   4.563  14.882  0.00  0.00    +0.000 A 
ATOM     16  C   UNL     1       7.793   5.225  13.905  0.00  0.00    +0.000 A 
ATOM     17  C   UNL     1       7.520   5.047  12.547  0.00  0.00    +0.000 A 
ATOM     18  C   UNL     1       6.491   4.197  12.150  0.00  0.00    +0.000 A 
ATOM     19  C   UNL     1       5.740   3.517  13.107  0.00  0.00    +0.000 A 
ATOM     20  C   UNL     1       6.011   3.697  14.465  0.00  0.00    +0.000 A 
ENDBRANCH  14  15
ENDBRANCH   4  14
TORSDOF 4
ENDMDL
MODEL 7
REMARK VINA RESULT:      -7.4      1.044      1.305
REMARK  Name = 
REMARK  4 active torsions:
REMARK  status: ('A' for Active; 'I' for Inactive)
REMARK    1  A    between atoms: C_4  and  C_5
REMARK    2  A    between atoms: C_5  and  C_6
REMARK    3  A    between atoms: N_9  and  C_10
REMARK    4  A    between atoms: C_10  and  C_11
REMARK                            x       y       z     vdW  Elec       q    Type
REMARK                         _______ _______ _______ _____ _____    ______ ____
ROOT
ATOM      1  C   UNL     1       6.711   6.013  16.647  0.00  0.00    +0.000 C 
ATOM      2  C   UNL     1       7.014   6.119  18.153  0.00  0.00    +0.000 C 
ATOM      3  C   UNL     1       5.960   5.480  19.062  0.00  0.00    +0.000 C 
ATOM      4  N   UNL     1       4.604   5.927  18.738  0.00  0.00    +0.000 NA
ATOM      5  C   UNL     1       4.256   5.618  17.351  0.00  0.00    +0.000 C 
ATOM      6  C   UNL     1       5.220   6.286  16.370  0.00  0.00    +0.000 C 
ENDROOT
BRANCH   1   7
ATOM      7  C   UNL     1       7.170   4.679  16.011  0.00  0.00    +0.000 C 
BRANCH   7  11
ATOM      8  C   UNL     1       6.757   4.180  11.723  0.00  0.00    +0.000 A 
ATOM      9  C   UNL     1       7.680   5.085  12.244  0.00  0.00    +0.000 A 
ATOM     10  C   UNL     1       7.786   5.267  13.627  0.00  0.00    +0.000 A 
ATOM     11  C   UNL     1       6.968   4.547  14.512  0.00  0.00    +0.000 A 
ATOM     12  C   UNL     1       6.046   3.637  13.970  0.00  0.00    +0.000 A 
ATOM     13  C   UNL     1       5.938   3.461  12.585  0.00  0.00    +0.000 A 
ENDBRANCH   7  11
ENDBRANCH   1   7
BRANCH   4  14
ATOM     14  C   UNL     1       3.591   5.457  19.704  0.00  0.00    +0.000 C 
BRANCH  14  15
ATOM     15  C   UNL     1       2.866   4.170  19.358  0.00  0.00    +0.000 A 
ATOM     16  C   UNL     1       1.477   4.166  19.156  0.00  0.00    +0.000 A 
ATOM     17  C   UNL     1       0.799   2.976  18.884  0.00  0.00    +0.000 A 
ATOM     18  C   UNL     1       1.503   1.778  18.797  0.00  0.00    +0.000 A 
ATOM     19  C   UNL     1       2.886   1.768  18.973  0.00  0.00    +0.000 A 
ATOM     20  C   UNL     1       3.564   2.957  19.249  0.00  0.00    +0.000 A 
ENDBRANCH  14  15
ENDBRANCH   4  14
TORSDOF 4
ENDMDL
MODEL 8
REMARK VINA RESULT:      -7.3      1.033      6.992
REMARK  Name = 
REMARK  4 active torsions:
REMARK  status: ('A' for Active; 'I' for Inactive)
REMARK    1  A    between atoms: C_4  and  C_5
REMARK    2  A    between atoms: C_5  and  C_6
REMARK    3  A    between atoms: N_9  and  C_10
REMARK    4  A    between atoms: C_10  and  C_11
REMARK                            x       y       z     vdW  Elec       q    Type
REMARK                         _______ _______ _______ _____ _____    ______ ____
ROOT
ATOM      1  C   UNL     1       3.741   6.412  18.232  0.00  0.00    +0.000 C 
ATOM      2  C   UNL     1       4.425   7.185  17.090  0.00  0.00    +0.000 C 
ATOM      3  C   UNL     1       5.376   6.346  16.231  0.00  0.00    +0.000 C 
ATOM      4  N   UNL     1       6.336   5.595  17.041  0.00  0.00    +0.000 NA
ATOM      5  C   UNL     1       5.659   4.698  17.978  0.00  0.00    +0.000 C 
ATOM      6  C   UNL     1       4.742   5.470  18.928  0.00  0.00    +0.000 C 
ENDROOT
BRANCH   1   7
ATOM      7  C   UNL     1       2.462   5.657  17.796  0.00  0.00    +0.000 C 
BRANCH   7  11
ATOM      8  C   UNL     1       1.064   2.386  20.275  0.00  0.00    +0.000 A 
ATOM      9  C   UNL     1       1.175   3.672  20.799  0.00  0.00    +0.000 A 
ATOM     10  C   UNL     1       1.659   4.717  20.006  0.00  0.00    +0.000 A 
ATOM     11  C   UNL     1       2.040   4.492  18.673  0.00  0.00    +0.000 A 
ATOM     12  C   UNL     1       1.918   3.190  18.161  0.00  0.00    +0.000 A 
ATOM     13  C   UNL     1       1.440   2.144  18.960  0.00  0.00    +0.000 A 
ENDBRANCH   7  11
ENDBRANCH   1   7
BRANCH   4  14
ATOM     14  C   UNL     1       7.367   4.911  16.235  0.00  0.00    +0.000 C 
BRANCH  14  15
ATOM     15  C   UNL     1       7.002   4.580  14.800  0.00  0.00    +0.000 A 
ATOM     16  C   UNL     1       7.730   5.130  13.733  0.00  0.00    +0.000 A 
ATOM     17  C   UNL     1       7.368   4.866  12.411  0.00  0.00    +0.000 A 
ATOM     18  C   UNL     1       6.281   4.039  12.139  0.00  0.00    +0.000 A 
ATOM     19  C   UNL     1       5.560   3.468  13.187  0.00  0.00    +0.000 A 
ATOM     20  C   UNL     1       5.920   3.735  14.509  0.00  0.00    +0.000 A 
ENDBRANCH  14  15
ENDBRANCH   4  14
TORSDOF 4
ENDMDL
MODEL 9
REMARK VINA RESULT:      -7.3      1.024      7.198
REMARK  Name = 
REMARK  4 active torsions:
REMARK  status: ('A' for Active; 'I' for Inactive)
REMARK    1  A    between atoms: C_4  and  C_5
REMARK    2  A    between atoms: C_5  and  C_6
REMARK    3  A    between atoms: N_9  and  C_10
REMARK    4  A    between atoms: C_10  and  C_11
REMARK                            x       y       z     vdW  Elec       q    Type
REMARK                         _______ _______ _______ _____ _____    ______ ____
ROOT
ATOM      1  C   UNL     1       4.134   6.594  18.320  0.00  0.00    +0.000 C 
ATOM      2  C   UNL     1       4.660   6.936  16.915  0.00  0.00    +0.000 C 
ATOM      3  C   UNL     1       4.873   5.724  16.002  0.00  0.00    +0.000 C 
ATOM      4  N   UNL     1       5.665   4.677  16.648  0.00  0.00    +0.000 NA
ATOM      5  C   UNL     1       5.029   4.210  17.881  0.00  0.00    +0.000 C 
ATOM      6  C   UNL     1       4.849   5.351  18.883  0.00  0.00    +0.000 C 
ENDROOT
BRANCH   1   7
ATOM      7  C   UNL     1       2.595   6.442  18.391  0.00  0.00    +0.000 C 
BRANCH   7  11
ATOM      8  C   UNL     1       0.929   2.741  19.915  0.00  0.00    +0.000 A 
ATOM      9  C   UNL     1       1.307   3.758  20.789  0.00  0.00    +0.000 A 
ATOM     10  C   UNL     1       1.876   4.936  20.295  0.00  0.00    +0.000 A 
ATOM     11  C   UNL     1       2.075   5.116  18.917  0.00  0.00    +0.000 A 
ATOM     12  C   UNL     1       1.685   4.082  18.050  0.00  0.00    +0.000 A 
ATOM     13  C   UNL     1       1.122   2.901  18.548  0.00  0.00    +0.000 A 
ENDBRANCH   7  11
ENDBRANCH   1   7
BRANCH   4  14
ATOM     14  C   UNL     1       6.025   3.573  15.735  0.00  0.00    +0.000 C 
BRANCH  14  15
ATOM     15  C   UNL     1       6.467   3.964  14.337  0.00  0.00    +0.000 A 
ATOM     16  C   UNL     1       5.902   3.344  13.211  0.00  0.00    +0.000 A 
ATOM     17  C   UNL     1       6.339   3.666  11.925  0.00  0.00    +0.000 A 
ATOM     18  C   UNL     1       7.337   4.621  11.747  0.00  0.00    +0.000 A 
ATOM     19  C   UNL     1       7.893   5.261  12.854  0.00  0.00    +0.000 A 
ATOM     20  C   UNL     1       7.459   4.937  14.141  0.00  0.00    +0.000 A 
ENDBRANCH  14  15
ENDBRANCH   4  14
TORSDOF 4
ENDMDL
