MODEL 1
REMARK VINA RESULT:      -8.9      0.000      0.000
REMARK  Name = 
REMARK  0 active torsions:
REMARK  status: ('A' for Active; 'I' for Inactive)
REMARK                            x       y       z     vdW  Elec       q    Type
REMARK                         _______ _______ _______ _____ _____    ______ ____
ROOT
ATOM      1  O   UNL     1       7.514   5.034  12.449  0.00  0.00    +0.000 OA
ATOM      2  C   UNL     1       7.169   4.809  13.603  0.00  0.00    +0.000 A 
ATOM      3  C   UNL     1       5.979   3.993  13.888  0.00  0.00    +0.000 A 
ATOM      4  C   UNL     1       5.618   3.768  15.151  0.00  0.00    +0.000 A 
ATOM      5  C   UNL     1       6.442   4.350  16.250  0.00  0.00    +0.000 A 
ATOM      6  N   UNL     1       6.141   4.169  17.580  0.00  0.00    +0.000 N 
ATOM      7  C   UNL     1       4.945   3.868  18.119  0.00  0.00    +0.000 A 
ATOM      8  N   UNL     1       3.780   3.744  17.524  0.00  0.00    +0.000 NA
ATOM      9  C   UNL     1       2.885   3.426  18.509  0.00  0.00    +0.000 A 
ATOM     10  C   UNL     1       1.510   3.174  18.417  0.00  0.00    +0.000 A 
ATOM     11  C   UNL     1       0.815   2.822  19.579  0.00  0.00    +0.000 A 
ATOM     12  C   UNL     1       1.479   2.735  20.807  0.00  0.00    +0.000 A 
ATOM     13  C   UNL     1       2.850   3.002  20.921  0.00  0.00    +0.000 A 
ATOM     14  C   UNL     1       3.516   3.345  19.744  0.00  0.00    +0.000 A 
ATOM     15  N   UNL     1       4.824   3.658  19.470  0.00  0.00    +0.000 N 
ATOM     16  N   UNL     1       7.521   5.054  16.002  0.00  0.00    +0.000 NA
ATOM     17  N   UNL     1       7.848   5.277  14.696  0.00  0.00    +0.000 N 
ATOM     18  H   UNL     1       6.883   4.526  18.170  0.00  0.00    +0.000 HD
ATOM     19  H   UNL     1       5.576   3.688  20.140  0.00  0.00    +0.000 HD
ATOM     20  H   UNL     1       8.659   5.859  14.522  0.00  0.00    +0.000 HD
ENDROOT
TORSDOF 0
ENDMDL
MODEL 2
REMARK VINA RESULT:      -7.5      2.932      6.626
REMARK  Name = 
REMARK  0 active torsions:
REMARK  status: ('A' for Active; 'I' for Inactive)
REMARK                            x       y       z     vdW  Elec       q    Type
REMARK                         _______ _______ _______ _____ _____    ______ ____
ROOT
ATOM      1  O   UNL     1       1.450   4.428  20.657  0.00  0.00    +0.000 OA
ATOM      2  C   UNL     1       2.368   4.677  19.884  0.00  0.00    +0.000 A 
ATOM      3  C   UNL     1       2.182   4.561  18.431  0.00  0.00    +0.000 A 
ATOM      4  C   UNL     1       3.197   4.829  17.610  0.00  0.00    +0.000 A 
ATOM      5  C   UNL     1       4.503   5.249  18.194  0.00  0.00    +0.000 A 
ATOM      6  N   UNL     1       5.603   5.544  17.421  0.00  0.00    +0.000 N 
ATOM      7  C   UNL     1       5.863   5.127  16.168  0.00  0.00    +0.000 A 
ATOM      8  N   UNL     1       5.176   4.297  15.416  0.00  0.00    +0.000 NA
ATOM      9  C   UNL     1       5.857   4.209  14.232  0.00  0.00    +0.000 A 
ATOM     10  C   UNL     1       5.553   3.469  13.082  0.00  0.00    +0.000 A 
ATOM     11  C   UNL     1       6.396   3.584  11.971  0.00  0.00    +0.000 A 
ATOM     12  C   UNL     1       7.523   4.411  12.015  0.00  0.00    +0.000 A 
ATOM     13  C   UNL     1       7.853   5.143  13.163  0.00  0.00    +0.000 A 
ATOM     14  C   UNL     1       6.990   5.013  14.252  0.00  0.00    +0.000 A 
ATOM     15  N   UNL     1       6.984   5.565  15.509  0.00  0.00    +0.000 N 
ATOM     16  N   UNL     1       4.666   5.384  19.489  0.00  0.00    +0.000 NA
ATOM     17  N   UNL     1       3.608   5.083  20.297  0.00  0.00    +0.000 N 
ATOM     18  H   UNL     1       6.348   5.933  17.987  0.00  0.00    +0.000 HD
ATOM     19  H   UNL     1       7.664   6.214  15.870  0.00  0.00    +0.000 HD
ATOM     20  H   UNL     1       3.765   5.149  21.296  0.00  0.00    +0.000 HD
ENDROOT
TORSDOF 0
ENDMDL
MODEL 3
REMARK VINA RESULT:      -7.5      3.097      3.322
REMARK  Name = 
REMARK  0 active torsions:
REMARK  status: ('A' for Active; 'I' for Inactive)
REMARK                            x       y       z     vdW  Elec       q    Type
REMARK                         _______ _______ _______ _____ _____    ______ ____
ROOT
ATOM      1  O   UNL     1       8.666   9.349  17.779  0.00  0.00    +0.000 OA
ATOM      2  C   UNL     1       8.127   8.279  18.036  0.00  0.00    +0.000 A 
ATOM      3  C   UNL     1       6.892   7.874  17.349  0.00  0.00    +0.000 A 
ATOM      4  C   UNL     1       6.319   6.709  17.650  0.00  0.00    +0.000 A 
ATOM      5  C   UNL     1       6.955   5.839  18.681  0.00  0.00    +0.000 A 
ATOM      6  N   UNL     1       6.430   4.623  19.054  0.00  0.00    +0.000 N 
ATOM      7  C   UNL     1       5.155   4.207  18.939  0.00  0.00    +0.000 A 
ATOM      8  N   UNL     1       4.106   4.874  18.514  0.00  0.00    +0.000 NA
ATOM      9  C   UNL     1       3.052   4.004  18.586  0.00  0.00    +0.000 A 
ATOM     10  C   UNL     1       1.708   4.202  18.243  0.00  0.00    +0.000 A 
ATOM     11  C   UNL     1       0.820   3.128  18.369  0.00  0.00    +0.000 A 
ATOM     12  C   UNL     1       1.266   1.887  18.837  0.00  0.00    +0.000 A 
ATOM     13  C   UNL     1       2.602   1.677  19.203  0.00  0.00    +0.000 A 
ATOM     14  C   UNL     1       3.464   2.765  19.061  0.00  0.00    +0.000 A 
ATOM     15  N   UNL     1       4.804   2.932  19.304  0.00  0.00    +0.000 N 
ATOM     16  N   UNL     1       8.072   6.182  19.276  0.00  0.00    +0.000 NA
ATOM     17  N   UNL     1       8.619   7.391  18.953  0.00  0.00    +0.000 N 
ATOM     18  H   UNL     1       7.068   4.126  19.664  0.00  0.00    +0.000 HD
ATOM     19  H   UNL     1       5.432   2.225  19.651  0.00  0.00    +0.000 HD
ATOM     20  H   UNL     1       9.458   7.659  19.454  0.00  0.00    +0.000 HD
ENDROOT
TORSDOF 0
ENDMDL
MODEL 4
REMARK VINA RESULT:      -7.4      4.162      4.623
REMARK  Name = 
REMARK  0 active torsions:
REMARK  status: ('A' for Active; 'I' for Inactive)
REMARK                            x       y       z     vdW  Elec       q    Type
REMARK                         _______ _______ _______ _____ _____    ______ ____
ROOT
ATOM      1  O   UNL     1       7.790   4.384  16.074  0.00  0.00    +0.000 OA
ATOM      2  C   UNL     1       6.899   4.674  16.862  0.00  0.00    +0.000 A 
ATOM      3  C   UNL     1       5.734   5.458  16.427  0.00  0.00    +0.000 A 
ATOM      4  C   UNL     1       4.779   5.769  17.304  0.00  0.00    +0.000 A 
ATOM      5  C   UNL     1       4.919   5.303  18.714  0.00  0.00    +0.000 A 
ATOM      6  N   UNL     1       3.983   5.580  19.684  0.00  0.00    +0.000 N 
ATOM      7  C   UNL     1       3.090   6.587  19.702  0.00  0.00    +0.000 A 
ATOM      8  N   UNL     1       2.943   7.574  18.847  0.00  0.00    +0.000 NA
ATOM      9  C   UNL     1       1.896   8.323  19.311  0.00  0.00    +0.000 A 
ATOM     10  C   UNL     1       1.319   9.479  18.771  0.00  0.00    +0.000 A 
ATOM     11  C   UNL     1       0.213  10.041  19.421  0.00  0.00    +0.000 A 
ATOM     12  C   UNL     1      -0.296   9.463  20.589  0.00  0.00    +0.000 A 
ATOM     13  C   UNL     1       0.281   8.317  21.153  0.00  0.00    +0.000 A 
ATOM     14  C   UNL     1       1.378   7.778  20.480  0.00  0.00    +0.000 A 
ATOM     15  N   UNL     1       2.176   6.688  20.721  0.00  0.00    +0.000 N 
ATOM     16  N   UNL     1       5.941   4.578  19.101  0.00  0.00    +0.000 NA
ATOM     17  N   UNL     1       6.906   4.295  18.178  0.00  0.00    +0.000 N 
ATOM     18  H   UNL     1       4.185   5.072  20.537  0.00  0.00    +0.000 HD
ATOM     19  H   UNL     1       2.081   6.046  21.492  0.00  0.00    +0.000 HD
ATOM     20  H   UNL     1       7.709   3.772  18.504  0.00  0.00    +0.000 HD
ENDROOT
TORSDOF 0
ENDMDL
MODEL 5
REMARK VINA RESULT:      -7.2      2.684      6.689
REMARK  Name = 
REMARK  0 active torsions:
REMARK  status: ('A' for Active; 'I' for Inactive)
REMARK                            x       y       z     vdW  Elec       q    Type
REMARK                         _______ _______ _______ _____ _____    ______ ____
ROOT
ATOM      1  O   UNL     1       2.125   2.089  20.268  0.00  0.00    +0.000 OA
ATOM      2  C   UNL     1       2.970   2.633  19.566  0.00  0.00    +0.000 A 
ATOM      3  C   UNL     1       2.733   2.845  18.130  0.00  0.00    +0.000 A 
ATOM      4  C   UNL     1       3.670   3.432  17.385  0.00  0.00    +0.000 A 
ATOM      5  C   UNL     1       4.940   3.865  18.035  0.00  0.00    +0.000 A 
ATOM      6  N   UNL     1       5.959   4.475  17.341  0.00  0.00    +0.000 N 
ATOM      7  C   UNL     1       6.211   4.408  16.020  0.00  0.00    +0.000 A 
ATOM      8  N   UNL     1       5.597   3.701  15.099  0.00  0.00    +0.000 NA
ATOM      9  C   UNL     1       6.228   3.988  13.919  0.00  0.00    +0.000 A 
ATOM     10  C   UNL     1       5.964   3.513  12.628  0.00  0.00    +0.000 A 
ATOM     11  C   UNL     1       6.736   3.998  11.566  0.00  0.00    +0.000 A 
ATOM     12  C   UNL     1       7.755   4.929  11.793  0.00  0.00    +0.000 A 
ATOM     13  C   UNL     1       8.045   5.401  13.081  0.00  0.00    +0.000 A 
ATOM     14  C   UNL     1       7.255   4.903  14.118  0.00  0.00    +0.000 A 
ATOM     15  N   UNL     1       7.239   5.133  15.471  0.00  0.00    +0.000 N 
ATOM     16  N   UNL     1       5.144   3.705  19.321  0.00  0.00    +0.000 NA
ATOM     17  N   UNL     1       4.169   3.085  20.047  0.00  0.00    +0.000 N 
ATOM     18  H   UNL     1       6.676   4.811  17.973  0.00  0.00    +0.000 HD
ATOM     19  H   UNL     1       7.850   5.759  15.969  0.00  0.00    +0.000 HD
ATOM     20  H   UNL     1       4.361   2.930  21.029  0.00  0.00    +0.000 HD
ENDROOT
TORSDOF 0
ENDMDL
MODEL 6
REMARK VINA RESULT:      -7.0      5.161      6.388
REMARK  Name = 
REMARK  0 active torsions:
REMARK  status: ('A' for Active; 'I' for Inactive)
REMARK                            x       y       z     vdW  Elec       q    Type
REMARK                         _______ _______ _______ _____ _____    ______ ____
ROOT
ATOM      1  O   UNL     1       0.262  11.798  18.570  0.00  0.00    +0.000 OA
ATOM      2  C   UNL     1       0.698  10.729  18.982  0.00  0.00    +0.000 A 
ATOM      3  C   UNL     1       1.361   9.785  18.071  0.00  0.00    +0.000 A 
ATOM      4  C   UNL     1       1.821   8.625  18.540  0.00  0.00    +0.000 A 
ATOM      5  C   UNL     1       1.653   8.317  19.989  0.00  0.00    +0.000 A 
ATOM      6  N   UNL     1       2.095   7.144  20.556  0.00  0.00    +0.000 N 
ATOM      7  C   UNL     1       2.324   5.969  19.942  0.00  0.00    +0.000 A 
ATOM      8  N   UNL     1       2.120   5.642  18.686  0.00  0.00    +0.000 NA
ATOM      9  C   UNL     1       2.518   4.338  18.566  0.00  0.00    +0.000 A 
ATOM     10  C   UNL     1       2.522   3.507  17.438  0.00  0.00    +0.000 A 
ATOM     11  C   UNL     1       3.026   2.208  17.566  0.00  0.00    +0.000 A 
ATOM     12  C   UNL     1       3.507   1.749  18.797  0.00  0.00    +0.000 A 
ATOM     13  C   UNL     1       3.493   2.559  19.940  0.00  0.00    +0.000 A 
ATOM     14  C   UNL     1       2.989   3.851  19.779  0.00  0.00    +0.000 A 
ATOM     15  N   UNL     1       2.828   4.903  20.645  0.00  0.00    +0.000 N 
ATOM     16  N   UNL     1       1.089   9.169  20.812  0.00  0.00    +0.000 NA
ATOM     17  N   UNL     1       0.616  10.338  20.291  0.00  0.00    +0.000 N 
ATOM     18  H   UNL     1       2.010   7.176  21.566  0.00  0.00    +0.000 HD
ATOM     19  H   UNL     1       3.076   4.907  21.621  0.00  0.00    +0.000 HD
ATOM     20  H   UNL     1       0.144  10.965  20.932  0.00  0.00    +0.000 HD
ENDROOT
TORSDOF 0
ENDMDL
MODEL 7
REMARK VINA RESULT:      -6.7      6.774      8.797
REMARK  Name = 
REMARK  0 active torsions:
REMARK  status: ('A' for Active; 'I' for Inactive)
REMARK                            x       y       z     vdW  Elec       q    Type
REMARK                         _______ _______ _______ _____ _____    ______ ____
ROOT
ATOM      1  O   UNL     1       6.234   4.081  18.630  0.00  0.00    +0.000 OA
ATOM      2  C   UNL     1       6.666   5.197  18.368  0.00  0.00    +0.000 A 
ATOM      3  C   UNL     1       7.774   5.777  19.141  0.00  0.00    +0.000 A 
ATOM      4  C   UNL     1       8.222   6.996  18.844  0.00  0.00    +0.000 A 
ATOM      5  C   UNL     1       7.585   7.743  17.720  0.00  0.00    +0.000 A 
ATOM      6  N   UNL     1       7.984   9.005  17.347  0.00  0.00    +0.000 N 
ATOM      7  C   UNL     1       8.626   9.920  18.096  0.00  0.00    +0.000 A 
ATOM      8  N   UNL     1       8.962   9.858  19.365  0.00  0.00    +0.000 NA
ATOM      9  C   UNL     1       9.598  11.037  19.645  0.00  0.00    +0.000 A 
ATOM     10  C   UNL     1      10.165  11.481  20.847  0.00  0.00    +0.000 A 
ATOM     11  C   UNL     1      10.805  12.725  20.865  0.00  0.00    +0.000 A 
ATOM     12  C   UNL     1      10.867  13.511  19.710  0.00  0.00    +0.000 A 
ATOM     13  C   UNL     1      10.289  13.092  18.504  0.00  0.00    +0.000 A 
ATOM     14  C   UNL     1       9.663  11.845  18.516  0.00  0.00    +0.000 A 
ATOM     15  N   UNL     1       9.011  11.119  17.550  0.00  0.00    +0.000 N 
ATOM     16  N   UNL     1       6.617   7.218  17.007  0.00  0.00    +0.000 NA
ATOM     17  N   UNL     1       6.174   5.974  17.354  0.00  0.00    +0.000 N 
ATOM     18  H   UNL     1       7.526   9.289  16.488  0.00  0.00    +0.000 HD
ATOM     19  H   UNL     1       8.875  11.401  16.593  0.00  0.00    +0.000 HD
ATOM     20  H   UNL     1       5.397   5.603  16.822  0.00  0.00    +0.000 HD
ENDROOT
TORSDOF 0
ENDMDL
MODEL 8
REMARK VINA RESULT:      -6.7      6.244      8.065
REMARK  Name = 
REMARK  0 active torsions:
REMARK  status: ('A' for Active; 'I' for Inactive)
REMARK                            x       y       z     vdW  Elec       q    Type
REMARK                         _______ _______ _______ _____ _____    ______ ____
ROOT
ATOM      1  O   UNL     1      -1.005  10.995  23.418  0.00  0.00    +0.000 OA
ATOM      2  C   UNL     1      -0.417  10.466  22.483  0.00  0.00    +0.000 A 
ATOM      3  C   UNL     1      -0.341   9.002  22.372  0.00  0.00    +0.000 A 
ATOM      4  C   UNL     1       0.312   8.448  21.350  0.00  0.00    +0.000 A 
ATOM      5  C   UNL     1       0.948   9.338  20.336  0.00  0.00    +0.000 A 
ATOM      6  N   UNL     1       1.642   8.851  19.252  0.00  0.00    +0.000 N 
ATOM      7  C   UNL     1       2.229   7.647  19.124  0.00  0.00    +0.000 A 
ATOM      8  N   UNL     1       2.340   6.685  20.013  0.00  0.00    +0.000 NA
ATOM      9  C   UNL     1       3.014   5.671  19.389  0.00  0.00    +0.000 A 
ATOM     10  C   UNL     1       3.387   4.413  19.881  0.00  0.00    +0.000 A 
ATOM     11  C   UNL     1       4.042   3.526  19.020  0.00  0.00    +0.000 A 
ATOM     12  C   UNL     1       4.325   3.892  17.700  0.00  0.00    +0.000 A 
ATOM     13  C   UNL     1       3.977   5.153  17.197  0.00  0.00    +0.000 A 
ATOM     14  C   UNL     1       3.321   6.014  18.078  0.00  0.00    +0.000 A 
ATOM     15  N   UNL     1       2.832   7.289  17.945  0.00  0.00    +0.000 N 
ATOM     16  N   UNL     1       0.858  10.644  20.414  0.00  0.00    +0.000 NA
ATOM     17  N   UNL     1       0.197  11.173  21.484  0.00  0.00    +0.000 N 
ATOM     18  H   UNL     1       1.884   9.599  18.613  0.00  0.00    +0.000 HD
ATOM     19  H   UNL     1       2.873   7.852  17.110  0.00  0.00    +0.000 HD
ATOM     20  H   UNL     1       0.175  12.183  21.552  0.00  0.00    +0.000 HD
ENDROOT
TORSDOF 0
ENDMDL
MODEL 9
REMARK VINA RESULT:      -6.7      3.625      6.287
REMARK  Name = 
REMARK  0 active torsions:
REMARK  status: ('A' for Active; 'I' for Inactive)
REMARK                            x       y       z     vdW  Elec       q    Type
REMARK                         _______ _______ _______ _____ _____    ______ ____
ROOT
ATOM      1  O   UNL     1       0.009   1.767  18.334  0.00  0.00    +0.000 OA
ATOM      2  C   UNL     1       1.131   2.203  18.561  0.00  0.00    +0.000 A 
ATOM      3  C   UNL     1       1.410   3.644  18.483  0.00  0.00    +0.000 A 
ATOM      4  C   UNL     1       2.640   4.095  18.726  0.00  0.00    +0.000 A 
ATOM      5  C   UNL     1       3.708   3.116  19.080  0.00  0.00    +0.000 A 
ATOM      6  N   UNL     1       5.004   3.494  19.345  0.00  0.00    +0.000 N 
ATOM      7  C   UNL     1       5.633   4.614  18.944  0.00  0.00    +0.000 A 
ATOM      8  N   UNL     1       5.192   5.570  18.159  0.00  0.00    +0.000 NA
ATOM      9  C   UNL     1       6.208   6.482  18.067  0.00  0.00    +0.000 A 
ATOM     10  C   UNL     1       6.259   7.693  17.364  0.00  0.00    +0.000 A 
ATOM     11  C   UNL     1       7.413   8.478  17.467  0.00  0.00    +0.000 A 
ATOM     12  C   UNL     1       8.494   8.056  18.246  0.00  0.00    +0.000 A 
ATOM     13  C   UNL     1       8.469   6.839  18.941  0.00  0.00    +0.000 A 
ATOM     14  C   UNL     1       7.302   6.081  18.823  0.00  0.00    +0.000 A 
ATOM     15  N   UNL     1       6.918   4.873  19.349  0.00  0.00    +0.000 N 
ATOM     16  N   UNL     1       3.458   1.832  19.181  0.00  0.00    +0.000 NA
ATOM     17  N   UNL     1       2.190   1.408  18.907  0.00  0.00    +0.000 N 
ATOM     18  H   UNL     1       5.545   2.710  19.692  0.00  0.00    +0.000 HD
ATOM     19  H   UNL     1       7.470   4.295  19.963  0.00  0.00    +0.000 HD
ATOM     20  H   UNL     1       2.026   0.409  18.947  0.00  0.00    +0.000 HD
ENDROOT
TORSDOF 0
ENDMDL
