MODEL 1
REMARK VINA RESULT:      -8.1      0.000      0.000
REMARK  Name = 
REMARK  7 active torsions:
REMARK  status: ('A' for Active; 'I' for Inactive)
REMARK    1  A    between atoms: C_7  and  O_8
REMARK    2  A    between atoms: O_8  and  C_9
REMARK    3  A    between atoms: C_9  and  C_10
REMARK    4  A    between atoms: C_10  and  C_11
REMARK    5  A    between atoms: C_11  and  N_12
REMARK    6  A    between atoms: N_21  and  C_22
REMARK    7  A    between atoms: C_22  and  C_23
REMARK                            x       y       z     vdW  Elec       q    Type
REMARK                         _______ _______ _______ _____ _____    ______ ____
ROOT
ATOM      1  O   UNL     1       3.512   3.363  16.128  0.00  0.00    +0.000 OA
ATOM      2  C   UNL     1       4.498   4.054  16.387  0.00  0.00    +0.000 C 
ATOM      3  C   UNL     1       5.171   4.854  15.297  0.00  0.00    +0.000 C 
ATOM      4  C   UNL     1       5.509   6.238  15.799  0.00  0.00    +0.000 C 
ATOM      5  C   UNL     1       6.333   6.127  17.048  0.00  0.00    +0.000 A 
ATOM      6  C   UNL     1       7.251   7.137  17.364  0.00  0.00    +0.000 A 
ATOM      7  C   UNL     1       8.001   7.071  18.534  0.00  0.00    +0.000 A 
ATOM      8  C   UNL     1       7.807   6.015  19.418  0.00  0.00    +0.000 A 
ATOM      9  C   UNL     1       6.880   5.012  19.117  0.00  0.00    +0.000 A 
ATOM     10  C   UNL     1       6.127   5.059  17.935  0.00  0.00    +0.000 A 
ATOM     11  N   UNL     1       5.121   4.088  17.634  0.00  0.00    +0.000 N 
ENDROOT
BRANCH   7  12
ATOM     12  O   UNL     1       8.870   8.107  18.723  0.00  0.00    +0.000 OA
BRANCH  12  13
ATOM     13  C   UNL     1       8.468   9.369  18.190  0.00  0.00    +0.000 C 
BRANCH  13  14
ATOM     14  C   UNL     1       9.130  10.470  19.017  0.00  0.00    +0.000 C 
BRANCH  14  15
ATOM     15  C   UNL     1       9.582  11.651  18.140  0.00  0.00    +0.000 C 
BRANCH  15  16
ATOM     16  N   UNL     1      11.040  11.828  18.122  0.00  0.00    +0.000 NA
ATOM     17  C   UNL     1      11.636  12.219  19.416  0.00  0.00    +0.000 C 
ATOM     18  C   UNL     1      11.499  13.708  19.774  0.00  0.00    +0.000 C 
ATOM     19  O   UNL     1      11.997  14.548  18.728  0.00  0.00    +0.000 OA
ATOM     20  C   UNL     1      11.305  14.279  17.504  0.00  0.00    +0.000 C 
ATOM     21  C   UNL     1      11.457  12.805  17.091  0.00  0.00    +0.000 C 
ENDBRANCH  15  16
ENDBRANCH  14  15
ENDBRANCH  13  14
ENDBRANCH  12  13
ENDBRANCH   7  12
BRANCH  11  22
ATOM     22  C   UNL     1       4.613   3.194  18.680  0.00  0.00    +0.000 C 
BRANCH  22  23
ATOM     23  C   UNL     1       3.289   3.603  19.306  0.00  0.00    +0.000 A 
ATOM     24  C   UNL     1       2.250   2.661  19.382  0.00  0.00    +0.000 A 
ATOM     25  C   UNL     1       1.051   2.965  20.032  0.00  0.00    +0.000 A 
ATOM     26  C   UNL     1       0.878   4.207  20.630  0.00  0.00    +0.000 A 
ATOM     27  C   UNL     1       1.902   5.155  20.561  0.00  0.00    +0.000 A 
ATOM     28  C   UNL     1       3.098   4.849  19.907  0.00  0.00    +0.000 A 
ENDBRANCH  22  23
ENDBRANCH  11  22
TORSDOF 7
ENDMDL
MODEL 2
REMARK VINA RESULT:      -7.9      5.149      7.830
REMARK  Name = 
REMARK  7 active torsions:
REMARK  status: ('A' for Active; 'I' for Inactive)
REMARK    1  A    between atoms: C_7  and  O_8
REMARK    2  A    between atoms: O_8  and  C_9
REMARK    3  A    between atoms: C_9  and  C_10
REMARK    4  A    between atoms: C_10  and  C_11
REMARK    5  A    between atoms: C_11  and  N_12
REMARK    6  A    between atoms: N_21  and  C_22
REMARK    7  A    between atoms: C_22  and  C_23
REMARK                            x       y       z     vdW  Elec       q    Type
REMARK                         _______ _______ _______ _____ _____    ______ ____
ROOT
ATOM      1  O   UNL     1       3.981   2.569  18.698  0.00  0.00    +0.000 OA
ATOM      2  C   UNL     1       3.283   3.542  18.987  0.00  0.00    +0.000 C 
ATOM      3  C   UNL     1       2.139   3.392  19.961  0.00  0.00    +0.000 C 
ATOM      4  C   UNL     1       2.123   4.552  20.929  0.00  0.00    +0.000 C 
ATOM      5  C   UNL     1       2.083   5.840  20.160  0.00  0.00    +0.000 A 
ATOM      6  C   UNL     1       1.474   6.966  20.729  0.00  0.00    +0.000 A 
ATOM      7  C   UNL     1       1.454   8.180  20.048  0.00  0.00    +0.000 A 
ATOM      8  C   UNL     1       2.082   8.286  18.812  0.00  0.00    +0.000 A 
ATOM      9  C   UNL     1       2.706   7.170  18.246  0.00  0.00    +0.000 A 
ATOM     10  C   UNL     1       2.721   5.938  18.915  0.00  0.00    +0.000 A 
ATOM     11  N   UNL     1       3.412   4.798  18.396  0.00  0.00    +0.000 N 
ENDROOT
BRANCH   7  12
ATOM     12  O   UNL     1       0.821   9.199  20.700  0.00  0.00    +0.000 OA
BRANCH  12  13
ATOM     13  C   UNL     1       0.167   8.853  21.921  0.00  0.00    +0.000 C 
BRANCH  13  14
ATOM     14  C   UNL     1      -0.151  10.143  22.675  0.00  0.00    +0.000 C 
BRANCH  14  15
ATOM     15  C   UNL     1      -0.580  11.272  21.723  0.00  0.00    +0.000 C 
BRANCH  15  16
ATOM     16  N   UNL     1       0.257  12.473  21.842  0.00  0.00    +0.000 NA
ATOM     17  C   UNL     1      -0.488  13.741  21.985  0.00  0.00    +0.000 C 
ATOM     18  C   UNL     1      -1.055  14.315  20.675  0.00  0.00    +0.000 C 
ATOM     19  O   UNL     1      -0.039  14.450  19.677  0.00  0.00    +0.000 OA
ATOM     20  C   UNL     1       0.578  13.184  19.423  0.00  0.00    +0.000 C 
ATOM     21  C   UNL     1       1.196  12.598  20.705  0.00  0.00    +0.000 C 
ENDBRANCH  15  16
ENDBRANCH  14  15
ENDBRANCH  13  14
ENDBRANCH  12  13
ENDBRANCH   7  12
BRANCH  11  22
ATOM     22  C   UNL     1       4.393   4.951  17.316  0.00  0.00    +0.000 C 
BRANCH  22  23
ATOM     23  C   UNL     1       5.719   5.576  17.717  0.00  0.00    +0.000 A 
ATOM     24  C   UNL     1       6.157   6.734  17.055  0.00  0.00    +0.000 A 
ATOM     25  C   UNL     1       7.321   7.394  17.455  0.00  0.00    +0.000 A 
ATOM     26  C   UNL     1       8.058   6.918  18.532  0.00  0.00    +0.000 A 
ATOM     27  C   UNL     1       7.636   5.766  19.201  0.00  0.00    +0.000 A 
ATOM     28  C   UNL     1       6.473   5.106  18.796  0.00  0.00    +0.000 A 
ENDBRANCH  22  23
ENDBRANCH  11  22
TORSDOF 7
ENDMDL
MODEL 3
REMARK VINA RESULT:      -7.9      5.631      9.564
REMARK  Name = 
REMARK  7 active torsions:
REMARK  status: ('A' for Active; 'I' for Inactive)
REMARK    1  A    between atoms: C_7  and  O_8
REMARK    2  A    between atoms: O_8  and  C_9
REMARK    3  A    between atoms: C_9  and  C_10
REMARK    4  A    between atoms: C_10  and  C_11
REMARK    5  A    between atoms: C_11  and  N_12
REMARK    6  A    between atoms: N_21  and  C_22
REMARK    7  A    between atoms: C_22  and  C_23
REMARK                            x       y       z     vdW  Elec       q    Type
REMARK                         _______ _______ _______ _____ _____    ______ ____
ROOT
ATOM      1  O   UNL     1      -1.213  11.662  21.854  0.00  0.00    +0.000 OA
ATOM      2  C   UNL     1      -0.358  10.893  21.413  0.00  0.00    +0.000 C 
ATOM      3  C   UNL     1       0.408   9.992  22.351  0.00  0.00    +0.000 C 
ATOM      4  C   UNL     1       0.518   8.603  21.767  0.00  0.00    +0.000 C 
ATOM      5  C   UNL     1       1.125   8.687  20.397  0.00  0.00    +0.000 A 
ATOM      6  C   UNL     1       1.873   7.610  19.905  0.00  0.00    +0.000 A 
ATOM      7  C   UNL     1       2.417   7.652  18.624  0.00  0.00    +0.000 A 
ATOM      8  C   UNL     1       2.181   8.756  17.812  0.00  0.00    +0.000 A 
ATOM      9  C   UNL     1       1.421   9.827  18.292  0.00  0.00    +0.000 A 
ATOM     10  C   UNL     1       0.879   9.803  19.584  0.00  0.00    +0.000 A 
ATOM     11  N   UNL     1       0.039  10.851  20.077  0.00  0.00    +0.000 N 
ENDROOT
BRANCH   7  12
ATOM     12  O   UNL     1       3.135   6.548  18.264  0.00  0.00    +0.000 OA
BRANCH  12  13
ATOM     13  C   UNL     1       4.336   6.791  17.531  0.00  0.00    +0.000 C 
BRANCH  13  14
ATOM     14  C   UNL     1       5.352   5.714  17.906  0.00  0.00    +0.000 C 
BRANCH  14  15
ATOM     15  C   UNL     1       4.883   4.879  19.109  0.00  0.00    +0.000 C 
BRANCH  15  16
ATOM     16  N   UNL     1       4.735   3.452  18.796  0.00  0.00    +0.000 NA
ATOM     17  C   UNL     1       4.111   3.161  17.489  0.00  0.00    +0.000 C 
ATOM     18  C   UNL     1       2.578   3.286  17.457  0.00  0.00    +0.000 C 
ATOM     19  O   UNL     1       1.965   2.498  18.482  0.00  0.00    +0.000 OA
ATOM     20  C   UNL     1       2.455   2.891  19.769  0.00  0.00    +0.000 C 
ATOM     21  C   UNL     1       3.984   2.737  19.853  0.00  0.00    +0.000 C 
ENDBRANCH  15  16
ENDBRANCH  14  15
ENDBRANCH  13  14
ENDBRANCH  12  13
ENDBRANCH   7  12
BRANCH  11  22
ATOM     22  C   UNL     1      -0.550  11.829  19.155  0.00  0.00    +0.000 C 
BRANCH  22  23
ATOM     23  C   UNL     1      -1.918  11.467  18.601  0.00  0.00    +0.000 A 
ATOM     24  C   UNL     1      -2.022  10.422  17.667  0.00  0.00    +0.000 A 
ATOM     25  C   UNL     1      -3.269   9.995  17.204  0.00  0.00    +0.000 A 
ATOM     26  C   UNL     1      -4.431  10.591  17.677  0.00  0.00    +0.000 A 
ATOM     27  C   UNL     1      -4.343  11.633  18.604  0.00  0.00    +0.000 A 
ATOM     28  C   UNL     1      -3.095  12.060  19.063  0.00  0.00    +0.000 A 
ENDBRANCH  22  23
ENDBRANCH  11  22
TORSDOF 7
ENDMDL
MODEL 4
REMARK VINA RESULT:      -7.8      5.467      8.712
REMARK  Name = 
REMARK  7 active torsions:
REMARK  status: ('A' for Active; 'I' for Inactive)
REMARK    1  A    between atoms: C_7  and  O_8
REMARK    2  A    between atoms: O_8  and  C_9
REMARK    3  A    between atoms: C_9  and  C_10
REMARK    4  A    between atoms: C_10  and  C_11
REMARK    5  A    between atoms: C_11  and  N_12
REMARK    6  A    between atoms: N_21  and  C_22
REMARK    7  A    between atoms: C_22  and  C_23
REMARK                            x       y       z     vdW  Elec       q    Type
REMARK                         _______ _______ _______ _____ _____    ______ ____
ROOT
ATOM      1  O   UNL     1       3.693   2.317  19.046  0.00  0.00    +0.000 OA
ATOM      2  C   UNL     1       3.068   3.354  19.272  0.00  0.00    +0.000 C 
ATOM      3  C   UNL     1       1.895   3.340  20.222  0.00  0.00    +0.000 C 
ATOM      4  C   UNL     1       1.949   4.542  21.136  0.00  0.00    +0.000 C 
ATOM      5  C   UNL     1       2.029   5.792  20.309  0.00  0.00    +0.000 A 
ATOM      6  C   UNL     1       1.499   6.988  20.810  0.00  0.00    +0.000 A 
ATOM      7  C   UNL     1       1.591   8.166  20.075  0.00  0.00    +0.000 A 
ATOM      8  C   UNL     1       2.252   8.164  18.851  0.00  0.00    +0.000 A 
ATOM      9  C   UNL     1       2.799   6.977  18.354  0.00  0.00    +0.000 A 
ATOM     10  C   UNL     1       2.701   5.781  19.077  0.00  0.00    +0.000 A 
ATOM     11  N   UNL     1       3.310   4.567  18.629  0.00  0.00    +0.000 N 
ENDROOT
BRANCH   7  12
ATOM     12  O   UNL     1       1.026   9.261  20.663  0.00  0.00    +0.000 OA
BRANCH  12  13
ATOM     13  C   UNL     1       0.885   9.209  22.083  0.00  0.00    +0.000 C 
BRANCH  13  14
ATOM     14  C   UNL     1      -0.315  10.069  22.476  0.00  0.00    +0.000 C 
BRANCH  14  15
ATOM     15  C   UNL     1      -0.763  10.986  21.326  0.00  0.00    +0.000 C 
BRANCH  15  16
ATOM     16  N   UNL     1      -1.004  12.370  21.756  0.00  0.00    +0.000 NA
ATOM     17  C   UNL     1      -1.567  12.512  23.114  0.00  0.00    +0.000 C 
ATOM     18  C   UNL     1      -3.079  12.258  23.223  0.00  0.00    +0.000 C 
ATOM     19  O   UNL     1      -3.816  13.063  22.298  0.00  0.00    +0.000 OA
ATOM     20  C   UNL     1      -3.378  12.806  20.960  0.00  0.00    +0.000 C 
ATOM     21  C   UNL     1      -1.874  13.093  20.801  0.00  0.00    +0.000 C 
ENDBRANCH  15  16
ENDBRANCH  14  15
ENDBRANCH  13  14
ENDBRANCH  12  13
ENDBRANCH   7  12
BRANCH  11  22
ATOM     22  C   UNL     1       4.325   4.591  17.569  0.00  0.00    +0.000 C 
BRANCH  22  23
ATOM     23  C   UNL     1       5.563   5.421  17.865  0.00  0.00    +0.000 A 
ATOM     24  C   UNL     1       6.314   5.139  19.018  0.00  0.00    +0.000 A 
ATOM     25  C   UNL     1       7.510   5.813  19.279  0.00  0.00    +0.000 A 
ATOM     26  C   UNL     1       7.982   6.766  18.386  0.00  0.00    +0.000 A 
ATOM     27  C   UNL     1       7.245   7.059  17.236  0.00  0.00    +0.000 A 
ATOM     28  C   UNL     1       6.048   6.386  16.979  0.00  0.00    +0.000 A 
ENDBRANCH  22  23
ENDBRANCH  11  22
TORSDOF 7
ENDMDL
MODEL 5
REMARK VINA RESULT:      -7.8      5.792      8.960
REMARK  Name = 
REMARK  7 active torsions:
REMARK  status: ('A' for Active; 'I' for Inactive)
REMARK    1  A    between atoms: C_7  and  O_8
REMARK    2  A    between atoms: O_8  and  C_9
REMARK    3  A    between atoms: C_9  and  C_10
REMARK    4  A    between atoms: C_10  and  C_11
REMARK    5  A    between atoms: C_11  and  N_12
REMARK    6  A    between atoms: N_21  and  C_22
REMARK    7  A    between atoms: C_22  and  C_23
REMARK                            x       y       z     vdW  Elec       q    Type
REMARK                         _______ _______ _______ _____ _____    ______ ____
ROOT
ATOM      1  O   UNL     1       4.022   2.736  18.676  0.00  0.00    +0.000 OA
ATOM      2  C   UNL     1       3.332   3.725  18.927  0.00  0.00    +0.000 C 
ATOM      3  C   UNL     1       2.159   3.611  19.872  0.00  0.00    +0.000 C 
ATOM      4  C   UNL     1       2.135   4.789  20.818  0.00  0.00    +0.000 C 
ATOM      5  C   UNL     1       2.136   6.063  20.024  0.00  0.00    +0.000 A 
ATOM      6  C   UNL     1       1.529   7.209  20.555  0.00  0.00    +0.000 A 
ATOM      7  C   UNL     1       1.547   8.410  19.852  0.00  0.00    +0.000 A 
ATOM      8  C   UNL     1       2.210   8.482  18.631  0.00  0.00    +0.000 A 
ATOM      9  C   UNL     1       2.832   7.347  18.104  0.00  0.00    +0.000 A 
ATOM     10  C   UNL     1       2.810   6.128  18.795  0.00  0.00    +0.000 A 
ATOM     11  N   UNL     1       3.497   4.968  18.317  0.00  0.00    +0.000 N 
ENDROOT
BRANCH   7  12
ATOM     12  O   UNL     1       0.912   9.450  20.466  0.00  0.00    +0.000 OA
BRANCH  12  13
ATOM     13  C   UNL     1       0.165  10.320  19.616  0.00  0.00    +0.000 C 
BRANCH  13  14
ATOM     14  C   UNL     1      -0.075  11.630  20.366  0.00  0.00    +0.000 C 
BRANCH  14  15
ATOM     15  C   UNL     1      -1.571  11.979  20.443  0.00  0.00    +0.000 C 
BRANCH  15  16
ATOM     16  N   UNL     1      -1.861  13.054  21.401  0.00  0.00    +0.000 NA
ATOM     17  C   UNL     1      -1.650  12.700  22.819  0.00  0.00    +0.000 C 
ATOM     18  C   UNL     1      -2.780  11.878  23.462  0.00  0.00    +0.000 C 
ATOM     19  O   UNL     1      -4.051  12.513  23.297  0.00  0.00    +0.000 OA
ATOM     20  C   UNL     1      -4.329  12.713  21.907  0.00  0.00    +0.000 C 
ATOM     21  C   UNL     1      -3.239  13.570  21.239  0.00  0.00    +0.000 C 
ENDBRANCH  15  16
ENDBRANCH  14  15
ENDBRANCH  13  14
ENDBRANCH  12  13
ENDBRANCH   7  12
BRANCH  11  22
ATOM     22  C   UNL     1       4.510   5.085  17.262  0.00  0.00    +0.000 C 
BRANCH  22  23
ATOM     23  C   UNL     1       5.823   5.724  17.682  0.00  0.00    +0.000 A 
ATOM     24  C   UNL     1       6.256   6.889  17.028  0.00  0.00    +0.000 A 
ATOM     25  C   UNL     1       7.408   7.562  17.444  0.00  0.00    +0.000 A 
ATOM     26  C   UNL     1       8.136   7.091  18.530  0.00  0.00    +0.000 A 
ATOM     27  C   UNL     1       7.719   5.932  19.190  0.00  0.00    +0.000 A 
ATOM     28  C   UNL     1       6.568   5.261  18.769  0.00  0.00    +0.000 A 
ENDBRANCH  22  23
ENDBRANCH  11  22
TORSDOF 7
ENDMDL
MODEL 6
REMARK VINA RESULT:      -7.7      5.127      8.624
REMARK  Name = 
REMARK  7 active torsions:
REMARK  status: ('A' for Active; 'I' for Inactive)
REMARK    1  A    between atoms: C_7  and  O_8
REMARK    2  A    between atoms: O_8  and  C_9
REMARK    3  A    between atoms: C_9  and  C_10
REMARK    4  A    between atoms: C_10  and  C_11
REMARK    5  A    between atoms: C_11  and  N_12
REMARK    6  A    between atoms: N_21  and  C_22
REMARK    7  A    between atoms: C_22  and  C_23
REMARK                            x       y       z     vdW  Elec       q    Type
REMARK                         _______ _______ _______ _____ _____    ______ ____
ROOT
ATOM      1  O   UNL     1       2.782   1.868  18.491  0.00  0.00    +0.000 OA
ATOM      2  C   UNL     1       2.332   2.963  18.832  0.00  0.00    +0.000 C 
ATOM      3  C   UNL     1       1.161   3.041  19.781  0.00  0.00    +0.000 C 
ATOM      4  C   UNL     1       1.400   4.113  20.818  0.00  0.00    +0.000 C 
ATOM      5  C   UNL     1       1.692   5.414  20.129  0.00  0.00    +0.000 A 
ATOM      6  C   UNL     1       1.358   6.620  20.759  0.00  0.00    +0.000 A 
ATOM      7  C   UNL     1       1.650   7.839  20.154  0.00  0.00    +0.000 A 
ATOM      8  C   UNL     1       2.316   7.859  18.933  0.00  0.00    +0.000 A 
ATOM      9  C   UNL     1       2.668   6.659  18.308  0.00  0.00    +0.000 A 
ATOM     10  C   UNL     1       2.368   5.425  18.900  0.00  0.00    +0.000 A 
ATOM     11  N   UNL     1       2.776   4.182  18.320  0.00  0.00    +0.000 N 
ENDROOT
BRANCH   7  12
ATOM     12  O   UNL     1       1.265   8.942  20.859  0.00  0.00    +0.000 OA
BRANCH  12  13
ATOM     13  C   UNL     1       0.962  10.106  20.089  0.00  0.00    +0.000 C 
BRANCH  13  14
ATOM     14  C   UNL     1      -0.552  10.170  19.893  0.00  0.00    +0.000 C 
BRANCH  14  15
ATOM     15  C   UNL     1      -0.936  10.174  18.403  0.00  0.00    +0.000 C 
BRANCH  15  16
ATOM     16  N   UNL     1      -1.460  11.469  17.949  0.00  0.00    +0.000 NA
ATOM     17  C   UNL     1      -1.766  12.431  19.028  0.00  0.00    +0.000 C 
ATOM     18  C   UNL     1      -3.100  12.192  19.756  0.00  0.00    +0.000 C 
ATOM     19  O   UNL     1      -4.194  12.117  18.837  0.00  0.00    +0.000 OA
ATOM     20  C   UNL     1      -3.970  11.074  17.883  0.00  0.00    +0.000 C 
ATOM     21  C   UNL     1      -2.663  11.303  17.103  0.00  0.00    +0.000 C 
ENDBRANCH  15  16
ENDBRANCH  14  15
ENDBRANCH  13  14
ENDBRANCH  12  13
ENDBRANCH   7  12
BRANCH  11  22
ATOM     22  C   UNL     1       3.793   4.153  17.263  0.00  0.00    +0.000 C 
BRANCH  22  23
ATOM     23  C   UNL     1       5.079   4.904  17.569  0.00  0.00    +0.000 A 
ATOM     24  C   UNL     1       5.651   4.785  18.847  0.00  0.00    +0.000 A 
ATOM     25  C   UNL     1       6.879   5.381  19.142  0.00  0.00    +0.000 A 
ATOM     26  C   UNL     1       7.564   6.089  18.162  0.00  0.00    +0.000 A 
ATOM     27  C   UNL     1       7.008   6.217  16.887  0.00  0.00    +0.000 A 
ATOM     28  C   UNL     1       5.777   5.623  16.596  0.00  0.00    +0.000 A 
ENDBRANCH  22  23
ENDBRANCH  11  22
TORSDOF 7
ENDMDL
MODEL 7
REMARK VINA RESULT:      -7.7      4.934      7.291
REMARK  Name = 
REMARK  7 active torsions:
REMARK  status: ('A' for Active; 'I' for Inactive)
REMARK    1  A    between atoms: C_7  and  O_8
REMARK    2  A    between atoms: O_8  and  C_9
REMARK    3  A    between atoms: C_9  and  C_10
REMARK    4  A    between atoms: C_10  and  C_11
REMARK    5  A    between atoms: C_11  and  N_12
REMARK    6  A    between atoms: N_21  and  C_22
REMARK    7  A    between atoms: C_22  and  C_23
REMARK                            x       y       z     vdW  Elec       q    Type
REMARK                         _______ _______ _______ _____ _____    ______ ____
ROOT
ATOM      1  O   UNL     1       2.782   1.768  18.017  0.00  0.00    +0.000 OA
ATOM      2  C   UNL     1       2.339   2.815  18.492  0.00  0.00    +0.000 C 
ATOM      3  C   UNL     1       1.201   2.777  19.483  0.00  0.00    +0.000 C 
ATOM      4  C   UNL     1       1.471   3.730  20.625  0.00  0.00    +0.000 C 
ATOM      5  C   UNL     1       1.734   5.102  20.075  0.00  0.00    +0.000 A 
ATOM      6  C   UNL     1       1.418   6.227  20.846  0.00  0.00    +0.000 A 
ATOM      7  C   UNL     1       1.683   7.508  20.371  0.00  0.00    +0.000 A 
ATOM      8  C   UNL     1       2.307   7.669  19.138  0.00  0.00    +0.000 A 
ATOM      9  C   UNL     1       2.642   6.548  18.372  0.00  0.00    +0.000 A 
ATOM     10  C   UNL     1       2.367   5.254  18.832  0.00  0.00    +0.000 A 
ATOM     11  N   UNL     1       2.761   4.087  18.105  0.00  0.00    +0.000 N 
ENDROOT
BRANCH   7  12
ATOM     12  O   UNL     1       1.318   8.523  21.207  0.00  0.00    +0.000 OA
BRANCH  12  13
ATOM     13  C   UNL     1       0.235   9.342  20.766  0.00  0.00    +0.000 C 
BRANCH  13  14
ATOM     14  C   UNL     1       0.570  10.796  21.093  0.00  0.00    +0.000 C 
BRANCH  14  15
ATOM     15  C   UNL     1      -0.290  11.778  20.279  0.00  0.00    +0.000 C 
BRANCH  15  16
ATOM     16  N   UNL     1       0.294  12.106  18.972  0.00  0.00    +0.000 NA
ATOM     17  C   UNL     1       1.740  12.404  18.992  0.00  0.00    +0.000 C 
ATOM     18  C   UNL     1       2.108  13.820  19.466  0.00  0.00    +0.000 C 
ATOM     19  O   UNL     1       1.409  14.822  18.721  0.00  0.00    +0.000 OA
ATOM     20  C   UNL     1      -0.005  14.626  18.833  0.00  0.00    +0.000 C 
ATOM     21  C   UNL     1      -0.416  13.233  18.326  0.00  0.00    +0.000 C 
ENDBRANCH  15  16
ENDBRANCH  14  15
ENDBRANCH  13  14
ENDBRANCH  12  13
ENDBRANCH   7  12
BRANCH  11  22
ATOM     22  C   UNL     1       3.741   4.184  17.017  0.00  0.00    +0.000 C 
BRANCH  22  23
ATOM     23  C   UNL     1       5.091   4.766  17.401  0.00  0.00    +0.000 A 
ATOM     24  C   UNL     1       5.748   5.620  16.500  0.00  0.00    +0.000 A 
ATOM     25  C   UNL     1       6.944   6.251  16.849  0.00  0.00    +0.000 A 
ATOM     26  C   UNL     1       7.495   6.053  18.109  0.00  0.00    +0.000 A 
ATOM     27  C   UNL     1       6.854   5.205  19.017  0.00  0.00    +0.000 A 
ATOM     28  C   UNL     1       5.660   4.572  18.662  0.00  0.00    +0.000 A 
ENDBRANCH  22  23
ENDBRANCH  11  22
TORSDOF 7
ENDMDL
MODEL 8
REMARK VINA RESULT:      -7.7      5.321      7.969
REMARK  Name = 
REMARK  7 active torsions:
REMARK  status: ('A' for Active; 'I' for Inactive)
REMARK    1  A    between atoms: C_7  and  O_8
REMARK    2  A    between atoms: O_8  and  C_9
REMARK    3  A    between atoms: C_9  and  C_10
REMARK    4  A    between atoms: C_10  and  C_11
REMARK    5  A    between atoms: C_11  and  N_12
REMARK    6  A    between atoms: N_21  and  C_22
REMARK    7  A    between atoms: C_22  and  C_23
REMARK                            x       y       z     vdW  Elec       q    Type
REMARK                         _______ _______ _______ _____ _____    ______ ____
ROOT
ATOM      1  O   UNL     1       3.645   1.884  19.044  0.00  0.00    +0.000 OA
ATOM      2  C   UNL     1       3.052   2.944  19.250  0.00  0.00    +0.000 C 
ATOM      3  C   UNL     1       1.893   2.989  20.217  0.00  0.00    +0.000 C 
ATOM      4  C   UNL     1       1.994   4.214  21.095  0.00  0.00    +0.000 C 
ATOM      5  C   UNL     1       2.094   5.438  20.232  0.00  0.00    +0.000 A 
ATOM      6  C   UNL     1       1.605   6.661  20.707  0.00  0.00    +0.000 A 
ATOM      7  C   UNL     1       1.718   7.815  19.938  0.00  0.00    +0.000 A 
ATOM      8  C   UNL     1       2.360   7.761  18.705  0.00  0.00    +0.000 A 
ATOM      9  C   UNL     1       2.866   6.546  18.233  0.00  0.00    +0.000 A 
ATOM     10  C   UNL     1       2.747   5.374  18.992  0.00  0.00    +0.000 A 
ATOM     11  N   UNL     1       3.317   4.131  18.569  0.00  0.00    +0.000 N 
ENDROOT
BRANCH   7  12
ATOM     12  O   UNL     1       1.192   8.941  20.502  0.00  0.00    +0.000 OA
BRANCH  12  13
ATOM     13  C   UNL     1       0.980  10.045  19.623  0.00  0.00    +0.000 C 
BRANCH  13  14
ATOM     14  C   UNL     1      -0.525  10.207  19.412  0.00  0.00    +0.000 C 
BRANCH  14  15
ATOM     15  C   UNL     1      -1.110  11.321  20.298  0.00  0.00    +0.000 C 
BRANCH  15  16
ATOM     16  N   UNL     1      -1.721  12.409  19.523  0.00  0.00    +0.000 NA
ATOM     17  C   UNL     1      -0.938  12.858  18.354  0.00  0.00    +0.000 C 
ATOM     18  C   UNL     1       0.235  13.800  18.677  0.00  0.00    +0.000 C 
ATOM     19  O   UNL     1      -0.193  14.928  19.446  0.00  0.00    +0.000 OA
ATOM     20  C   UNL     1      -0.813  14.493  20.661  0.00  0.00    +0.000 C 
ATOM     21  C   UNL     1      -2.020  13.582  20.375  0.00  0.00    +0.000 C 
ENDBRANCH  15  16
ENDBRANCH  14  15
ENDBRANCH  13  14
ENDBRANCH  12  13
ENDBRANCH   7  12
BRANCH  11  22
ATOM     22  C   UNL     1       4.315   4.098  17.494  0.00  0.00    +0.000 C 
BRANCH  22  23
ATOM     23  C   UNL     1       5.587   4.887  17.756  0.00  0.00    +0.000 A 
ATOM     24  C   UNL     1       6.098   5.716  16.744  0.00  0.00    +0.000 A 
ATOM     25  C   UNL     1       7.210   6.529  16.973  0.00  0.00    +0.000 A 
ATOM     26  C   UNL     1       7.820   6.541  18.222  0.00  0.00    +0.000 A 
ATOM     27  C   UNL     1       7.324   5.721  19.239  0.00  0.00    +0.000 A 
ATOM     28  C   UNL     1       6.214   4.906  19.004  0.00  0.00    +0.000 A 
ENDBRANCH  22  23
ENDBRANCH  11  22
TORSDOF 7
ENDMDL
MODEL 9
REMARK VINA RESULT:      -7.7      5.579      8.366
REMARK  Name = 
REMARK  7 active torsions:
REMARK  status: ('A' for Active; 'I' for Inactive)
REMARK    1  A    between atoms: C_7  and  O_8
REMARK    2  A    between atoms: O_8  and  C_9
REMARK    3  A    between atoms: C_9  and  C_10
REMARK    4  A    between atoms: C_10  and  C_11
REMARK    5  A    between atoms: C_11  and  N_12
REMARK    6  A    between atoms: N_21  and  C_22
REMARK    7  A    between atoms: C_22  and  C_23
REMARK                            x       y       z     vdW  Elec       q    Type
REMARK                         _______ _______ _______ _____ _____    ______ ____
ROOT
ATOM      1  O   UNL     1       2.801   1.654  18.826  0.00  0.00    +0.000 OA
ATOM      2  C   UNL     1       2.397   2.777  19.133  0.00  0.00    +0.000 C 
ATOM      3  C   UNL     1       1.493   2.956  20.330  0.00  0.00    +0.000 C 
ATOM      4  C   UNL     1       1.929   4.157  21.137  0.00  0.00    +0.000 C 
ATOM      5  C   UNL     1       1.980   5.363  20.246  0.00  0.00    +0.000 A 
ATOM      6  C   UNL     1       1.755   6.634  20.790  0.00  0.00    +0.000 A 
ATOM      7  C   UNL     1       1.831   7.770  19.989  0.00  0.00    +0.000 A 
ATOM      8  C   UNL     1       2.174   7.644  18.647  0.00  0.00    +0.000 A 
ATOM      9  C   UNL     1       2.418   6.379  18.103  0.00  0.00    +0.000 A 
ATOM     10  C   UNL     1       2.331   5.227  18.895  0.00  0.00    +0.000 A 
ATOM     11  N   UNL     1       2.644   3.927  18.385  0.00  0.00    +0.000 N 
ENDROOT
BRANCH   7  12
ATOM     12  O   UNL     1       1.579   8.948  20.630  0.00  0.00    +0.000 OA
BRANCH  12  13
ATOM     13  C   UNL     1       0.219   9.187  20.995  0.00  0.00    +0.000 C 
BRANCH  13  14
ATOM     14  C   UNL     1      -0.407  10.096  19.938  0.00  0.00    +0.000 C 
BRANCH  14  15
ATOM     15  C   UNL     1      -1.120  11.303  20.571  0.00  0.00    +0.000 C 
BRANCH  15  16
ATOM     16  N   UNL     1      -0.610  11.634  21.908  0.00  0.00    +0.000 NA
ATOM     17  C   UNL     1      -1.523  11.310  23.023  0.00  0.00    +0.000 C 
ATOM     18  C   UNL     1      -2.660  12.320  23.250  0.00  0.00    +0.000 C 
ATOM     19  O   UNL     1      -2.159  13.652  23.396  0.00  0.00    +0.000 OA
ATOM     20  C   UNL     1      -1.402  14.026  22.240  0.00  0.00    +0.000 C 
ATOM     21  C   UNL     1      -0.227  13.061  22.006  0.00  0.00    +0.000 C 
ENDBRANCH  15  16
ENDBRANCH  14  15
ENDBRANCH  13  14
ENDBRANCH  12  13
ENDBRANCH   7  12
BRANCH  11  22
ATOM     22  C   UNL     1       3.369   3.779  17.118  0.00  0.00    +0.000 C 
BRANCH  22  23
ATOM     23  C   UNL     1       4.841   4.156  17.158  0.00  0.00    +0.000 A 
ATOM     24  C   UNL     1       5.443   4.428  18.397  0.00  0.00    +0.000 A 
ATOM     25  C   UNL     1       6.813   4.686  18.490  0.00  0.00    +0.000 A 
ATOM     26  C   UNL     1       7.606   4.659  17.349  0.00  0.00    +0.000 A 
ATOM     27  C   UNL     1       7.021   4.392  16.108  0.00  0.00    +0.000 A 
ATOM     28  C   UNL     1       5.650   4.138  16.019  0.00  0.00    +0.000 A 
ENDBRANCH  22  23
ENDBRANCH  11  22
TORSDOF 7
ENDMDL
