MODEL 1
REMARK VINA RESULT:      -7.7      0.000      0.000
REMARK  Name = 
REMARK  5 active torsions:
REMARK  status: ('A' for Active; 'I' for Inactive)
REMARK    1  A    between atoms: C_2  and  C_3
REMARK    2  A    between atoms: C_3  and  C_4
REMARK    3  A    between atoms: C_3  and  C_16
REMARK    4  A    between atoms: C_4  and  C_6
REMARK    5  A    between atoms: N_8  and  C_9
REMARK                            x       y       z     vdW  Elec       q    Type
REMARK                         _______ _______ _______ _____ _____    ______ ____
ROOT
ATOM      1  C   UNL     1       5.184   5.668  16.182  0.00  0.00    +0.000 C 
ATOM      2  O   UNL     1       5.084   6.704  15.530  0.00  0.00    +0.000 OA
ENDROOT
BRANCH   1   3
ATOM      3  C   UNL     1       4.262   5.469  17.371  0.00  0.00    +0.000 C 
ATOM      4  O   UNL     1       4.059   6.429  18.097  0.00  0.00    +0.000 OA
ATOM      5  N   UNL     1       3.803   4.169  17.505  0.00  0.00    +0.000 N 
ATOM      6  H   UNL     1       4.108   3.488  16.814  0.00  0.00    +0.000 HD
BRANCH   5   7
ATOM      7  C   UNL     1       3.070   3.680  18.608  0.00  0.00    +0.000 A 
ATOM      8  C   UNL     1       1.680   3.810  18.720  0.00  0.00    +0.000 A 
ATOM      9  C   UNL     1       1.014   3.412  19.882  0.00  0.00    +0.000 A 
ATOM     10  C   UNL     1       1.735   2.866  20.938  0.00  0.00    +0.000 A 
ATOM     11 CL   UNL     1       0.923   2.438  22.392  0.00  0.00    +0.000 Cl
ATOM     12  C   UNL     1       3.110   2.677  20.821  0.00  0.00    +0.000 A 
ATOM     13  C   UNL     1       3.775   3.072  19.653  0.00  0.00    +0.000 A 
ENDBRANCH   5   7
ENDBRANCH   1   3
BRANCH   1  14
ATOM     14  C   UNL     1       6.058   4.500  15.792  0.00  0.00    +0.000 C 
BRANCH  14  15
ATOM     15  C   UNL     1       6.450   4.468  14.322  0.00  0.00    +0.000 A 
ATOM     16  C   UNL     1       7.501   5.286  13.867  0.00  0.00    +0.000 A 
ATOM     17  C   UNL     1       7.902   5.254  12.528  0.00  0.00    +0.000 A 
ATOM     18  C   UNL     1       7.268   4.404  11.627  0.00  0.00    +0.000 A 
ATOM     19  C   UNL     1       6.233   3.582  12.059  0.00  0.00    +0.000 A 
ATOM     20  C   UNL     1       5.826   3.612  13.395  0.00  0.00    +0.000 A 
ENDBRANCH  14  15
BRANCH  14  22
ATOM     21  N   UNL     1       8.063   4.468  17.501  0.00  0.00    +0.000 NA
ATOM     22  C   UNL     1       7.195   4.468  16.726  0.00  0.00    +0.000 C 
ENDBRANCH  14  22
ENDBRANCH   1  14
TORSDOF 5
ENDMDL
MODEL 2
REMARK VINA RESULT:      -7.6      0.057      1.053
REMARK  Name = 
REMARK  5 active torsions:
REMARK  status: ('A' for Active; 'I' for Inactive)
REMARK    1  A    between atoms: C_2  and  C_3
REMARK    2  A    between atoms: C_3  and  C_4
REMARK    3  A    between atoms: C_3  and  C_16
REMARK    4  A    between atoms: C_4  and  C_6
REMARK    5  A    between atoms: N_8  and  C_9
REMARK                            x       y       z     vdW  Elec       q    Type
REMARK                         _______ _______ _______ _____ _____    ______ ____
ROOT
ATOM      1  C   UNL     1       5.206   5.639  16.169  0.00  0.00    +0.000 C 
ATOM      2  O   UNL     1       5.074   6.655  15.491  0.00  0.00    +0.000 OA
ENDROOT
BRANCH   1   3
ATOM      3  C   UNL     1       4.296   5.445  17.368  0.00  0.00    +0.000 C 
ATOM      4  O   UNL     1       4.140   6.395  18.119  0.00  0.00    +0.000 OA
ATOM      5  N   UNL     1       3.792   4.160  17.479  0.00  0.00    +0.000 N 
ATOM      6  H   UNL     1       4.060   3.486  16.768  0.00  0.00    +0.000 HD
BRANCH   5   7
ATOM      7  C   UNL     1       3.058   3.672  18.583  0.00  0.00    +0.000 A 
ATOM      8  C   UNL     1       1.666   3.787  18.686  0.00  0.00    +0.000 A 
ATOM      9  C   UNL     1       0.999   3.391  19.848  0.00  0.00    +0.000 A 
ATOM     10  C   UNL     1       1.721   2.864  20.913  0.00  0.00    +0.000 A 
ATOM     11 CL   UNL     1       0.906   2.439  22.367  0.00  0.00    +0.000 Cl
ATOM     12  C   UNL     1       3.099   2.691  20.806  0.00  0.00    +0.000 A 
ATOM     13  C   UNL     1       3.766   3.083  19.638  0.00  0.00    +0.000 A 
ENDBRANCH   5   7
ENDBRANCH   1   3
BRANCH   1  14
ATOM     14  C   UNL     1       6.109   4.485  15.804  0.00  0.00    +0.000 C 
BRANCH  14  15
ATOM     15  C   UNL     1       6.518   4.443  14.338  0.00  0.00    +0.000 A 
ATOM     16  C   UNL     1       5.826   3.599  13.449  0.00  0.00    +0.000 A 
ATOM     17  C   UNL     1       6.161   3.562  12.093  0.00  0.00    +0.000 A 
ATOM     18  C   UNL     1       7.182   4.370  11.601  0.00  0.00    +0.000 A 
ATOM     19  C   UNL     1       7.872   5.216  12.462  0.00  0.00    +0.000 A 
ATOM     20  C   UNL     1       7.544   5.254  13.819  0.00  0.00    +0.000 A 
ENDBRANCH  14  15
BRANCH  14  22
ATOM     21  N   UNL     1       8.094   4.480  17.536  0.00  0.00    +0.000 NA
ATOM     22  C   UNL     1       7.236   4.491  16.750  0.00  0.00    +0.000 C 
ENDBRANCH  14  22
ENDBRANCH   1  14
TORSDOF 5
ENDMDL
MODEL 3
REMARK VINA RESULT:      -7.6      3.897      5.662
REMARK  Name = 
REMARK  5 active torsions:
REMARK  status: ('A' for Active; 'I' for Inactive)
REMARK    1  A    between atoms: C_2  and  C_3
REMARK    2  A    between atoms: C_3  and  C_4
REMARK    3  A    between atoms: C_3  and  C_16
REMARK    4  A    between atoms: C_4  and  C_6
REMARK    5  A    between atoms: N_8  and  C_9
REMARK                            x       y       z     vdW  Elec       q    Type
REMARK                         _______ _______ _______ _____ _____    ______ ____
ROOT
ATOM      1  C   UNL     1       2.792   3.072  20.825  0.00  0.00    +0.000 C 
ATOM      2  O   UNL     1       2.660   2.797  22.015  0.00  0.00    +0.000 OA
ENDROOT
BRANCH   1   3
ATOM      3  C   UNL     1       2.015   4.249  20.264  0.00  0.00    +0.000 C 
ATOM      4  O   UNL     1       1.023   4.005  19.595  0.00  0.00    +0.000 OA
ATOM      5  N   UNL     1       2.585   5.478  20.552  0.00  0.00    +0.000 N 
ATOM      6  H   UNL     1       3.440   5.483  21.101  0.00  0.00    +0.000 HD
BRANCH   5   7
ATOM      7  C   UNL     1       2.158   6.713  20.016  0.00  0.00    +0.000 A 
ATOM      8  C   UNL     1       2.466   7.127  18.714  0.00  0.00    +0.000 A 
ATOM      9  C   UNL     1       2.118   8.405  18.269  0.00  0.00    +0.000 A 
ATOM     10  C   UNL     1       1.446   9.274  19.121  0.00  0.00    +0.000 A 
ATOM     11 CL   UNL     1       1.078  10.869  18.593  0.00  0.00    +0.000 Cl
ATOM     12  C   UNL     1       1.082   8.857  20.399  0.00  0.00    +0.000 A 
ATOM     13  C   UNL     1       1.427   7.574  20.842  0.00  0.00    +0.000 A 
ENDBRANCH   5   7
ENDBRANCH   1   3
BRANCH   1  14
ATOM     14  C   UNL     1       3.796   2.417  19.908  0.00  0.00    +0.000 C 
BRANCH  14  15
ATOM     15  C   UNL     1       4.376   3.341  18.844  0.00  0.00    +0.000 A 
ATOM     16  C   UNL     1       3.870   3.290  17.532  0.00  0.00    +0.000 A 
ATOM     17  C   UNL     1       4.362   4.147  16.544  0.00  0.00    +0.000 A 
ATOM     18  C   UNL     1       5.358   5.070  16.849  0.00  0.00    +0.000 A 
ATOM     19  C   UNL     1       5.865   5.140  18.143  0.00  0.00    +0.000 A 
ATOM     20  C   UNL     1       5.379   4.284  19.133  0.00  0.00    +0.000 A 
ENDBRANCH  14  15
BRANCH  14  22
ATOM     21  N   UNL     1       5.560   1.215  21.453  0.00  0.00    +0.000 NA
ATOM     22  C   UNL     1       4.803   1.758  20.755  0.00  0.00    +0.000 C 
ENDBRANCH  14  22
ENDBRANCH   1  14
TORSDOF 5
ENDMDL
MODEL 4
REMARK VINA RESULT:      -7.5      0.229      1.500
REMARK  Name = 
REMARK  5 active torsions:
REMARK  status: ('A' for Active; 'I' for Inactive)
REMARK    1  A    between atoms: C_2  and  C_3
REMARK    2  A    between atoms: C_3  and  C_4
REMARK    3  A    between atoms: C_3  and  C_16
REMARK    4  A    between atoms: C_4  and  C_6
REMARK    5  A    between atoms: N_8  and  C_9
REMARK                            x       y       z     vdW  Elec       q    Type
REMARK                         _______ _______ _______ _____ _____    ______ ____
ROOT
ATOM      1  C   UNL     1       5.241   5.705  16.100  0.00  0.00    +0.000 C 
ATOM      2  O   UNL     1       5.106   6.692  15.381  0.00  0.00    +0.000 OA
ENDROOT
BRANCH   1   3
ATOM      3  C   UNL     1       4.398   5.605  17.358  0.00  0.00    +0.000 C 
ATOM      4  O   UNL     1       4.246   6.619  18.020  0.00  0.00    +0.000 OA
ATOM      5  N   UNL     1       3.944   4.323  17.621  0.00  0.00    +0.000 N 
ATOM      6  H   UNL     1       4.201   3.589  16.965  0.00  0.00    +0.000 HD
BRANCH   5   7
ATOM      7  C   UNL     1       3.282   3.925  18.803  0.00  0.00    +0.000 A 
ATOM      8  C   UNL     1       3.901   3.172  19.808  0.00  0.00    +0.000 A 
ATOM      9  C   UNL     1       3.172   2.707  20.906  0.00  0.00    +0.000 A 
ATOM     10  C   UNL     1       1.818   3.006  21.012  0.00  0.00    +0.000 A 
ATOM     11 CL   UNL     1       0.909   2.377  22.329  0.00  0.00    +0.000 Cl
ATOM     12  C   UNL     1       1.201   3.802  20.051  0.00  0.00    +0.000 A 
ATOM     13  C   UNL     1       1.935   4.272  18.954  0.00  0.00    +0.000 A 
ENDBRANCH   5   7
ENDBRANCH   1   3
BRANCH   1  14
ATOM     14  C   UNL     1       6.079   4.501  15.743  0.00  0.00    +0.000 C 
BRANCH  14  15
ATOM     15  C   UNL     1       6.495   4.433  14.279  0.00  0.00    +0.000 A 
ATOM     16  C   UNL     1       5.806   3.574  13.402  0.00  0.00    +0.000 A 
ATOM     17  C   UNL     1       6.146   3.515  12.048  0.00  0.00    +0.000 A 
ATOM     18  C   UNL     1       7.170   4.313  11.547  0.00  0.00    +0.000 A 
ATOM     19  C   UNL     1       7.857   5.174  12.397  0.00  0.00    +0.000 A 
ATOM     20  C   UNL     1       7.523   5.235  13.752  0.00  0.00    +0.000 A 
ENDBRANCH  14  15
BRANCH  14  22
ATOM     21  N   UNL     1       8.059   4.360  17.476  0.00  0.00    +0.000 NA
ATOM     22  C   UNL     1       7.199   4.444  16.696  0.00  0.00    +0.000 C 
ENDBRANCH  14  22
ENDBRANCH   1  14
TORSDOF 5
ENDMDL
MODEL 5
REMARK VINA RESULT:      -7.5      1.579      2.159
REMARK  Name = 
REMARK  5 active torsions:
REMARK  status: ('A' for Active; 'I' for Inactive)
REMARK    1  A    between atoms: C_2  and  C_3
REMARK    2  A    between atoms: C_3  and  C_4
REMARK    3  A    between atoms: C_3  and  C_16
REMARK    4  A    between atoms: C_4  and  C_6
REMARK    5  A    between atoms: N_8  and  C_9
REMARK                            x       y       z     vdW  Elec       q    Type
REMARK                         _______ _______ _______ _____ _____    ______ ____
ROOT
ATOM      1  C   UNL     1       7.211   4.706  17.112  0.00  0.00    +0.000 C 
ATOM      2  O   UNL     1       8.292   4.133  17.228  0.00  0.00    +0.000 OA
ENDROOT
BRANCH   1   3
ATOM      3  C   UNL     1       6.216   4.613  18.254  0.00  0.00    +0.000 C 
ATOM      4  O   UNL     1       6.537   5.101  19.326  0.00  0.00    +0.000 OA
ATOM      5  N   UNL     1       5.064   3.917  17.929  0.00  0.00    +0.000 N 
ATOM      6  H   UNL     1       4.985   3.550  16.984  0.00  0.00    +0.000 HD
BRANCH   5   7
ATOM      7  C   UNL     1       4.057   3.547  18.848  0.00  0.00    +0.000 A 
ATOM      8  C   UNL     1       2.794   4.150  18.881  0.00  0.00    +0.000 A 
ATOM      9  C   UNL     1       1.872   3.828  19.881  0.00  0.00    +0.000 A 
ATOM     10  C   UNL     1       2.205   2.887  20.849  0.00  0.00    +0.000 A 
ATOM     11 CL   UNL     1       1.095   2.542  22.116  0.00  0.00    +0.000 Cl
ATOM     12  C   UNL     1       3.435   2.236  20.797  0.00  0.00    +0.000 A 
ATOM     13  C   UNL     1       4.355   2.556  19.790  0.00  0.00    +0.000 A 
ENDBRANCH   5   7
ENDBRANCH   1   3
BRANCH   1  14
ATOM     14  C   UNL     1       6.859   5.633  15.973  0.00  0.00    +0.000 C 
BRANCH  14  15
ATOM     15  C   UNL     1       6.776   4.956  14.611  0.00  0.00    +0.000 A 
ATOM     16  C   UNL     1       5.736   4.045  14.352  0.00  0.00    +0.000 A 
ATOM     17  C   UNL     1       5.618   3.433  13.101  0.00  0.00    +0.000 A 
ATOM     18  C   UNL     1       6.530   3.724  12.090  0.00  0.00    +0.000 A 
ATOM     19  C   UNL     1       7.560   4.628  12.325  0.00  0.00    +0.000 A 
ATOM     20  C   UNL     1       7.684   5.240  13.575  0.00  0.00    +0.000 A 
ENDBRANCH  14  15
BRANCH  14  22
ATOM     21  N   UNL     1       4.661   6.930  16.626  0.00  0.00    +0.000 NA
ATOM     22  C   UNL     1       5.644   6.367  16.362  0.00  0.00    +0.000 C 
ENDBRANCH  14  22
ENDBRANCH   1  14
TORSDOF 5
ENDMDL
MODEL 6
REMARK VINA RESULT:      -7.4      0.242      1.077
REMARK  Name = 
REMARK  5 active torsions:
REMARK  status: ('A' for Active; 'I' for Inactive)
REMARK    1  A    between atoms: C_2  and  C_3
REMARK    2  A    between atoms: C_3  and  C_4
REMARK    3  A    between atoms: C_3  and  C_16
REMARK    4  A    between atoms: C_4  and  C_6
REMARK    5  A    between atoms: N_8  and  C_9
REMARK                            x       y       z     vdW  Elec       q    Type
REMARK                         _______ _______ _______ _____ _____    ______ ____
ROOT
ATOM      1  C   UNL     1       5.240   5.659  16.160  0.00  0.00    +0.000 C 
ATOM      2  O   UNL     1       5.029   6.632  15.440  0.00  0.00    +0.000 OA
ENDROOT
BRANCH   1   3
ATOM      3  C   UNL     1       4.495   5.559  17.478  0.00  0.00    +0.000 C 
ATOM      4  O   UNL     1       4.619   6.480  18.270  0.00  0.00    +0.000 OA
ATOM      5  N   UNL     1       3.794   4.374  17.630  0.00  0.00    +0.000 N 
ATOM      6  H   UNL     1       3.834   3.702  16.868  0.00  0.00    +0.000 HD
BRANCH   5   7
ATOM      7  C   UNL     1       3.155   3.959  18.819  0.00  0.00    +0.000 A 
ATOM      8  C   UNL     1       3.815   3.260  19.837  0.00  0.00    +0.000 A 
ATOM      9  C   UNL     1       3.113   2.772  20.942  0.00  0.00    +0.000 A 
ATOM     10  C   UNL     1       1.744   2.994  21.043  0.00  0.00    +0.000 A 
ATOM     11 CL   UNL     1       0.871   2.337  22.371  0.00  0.00    +0.000 Cl
ATOM     12  C   UNL     1       1.083   3.737  20.068  0.00  0.00    +0.000 A 
ATOM     13  C   UNL     1       1.789   4.230  18.963  0.00  0.00    +0.000 A 
ENDBRANCH   5   7
ENDBRANCH   1   3
BRANCH   1  14
ATOM     14  C   UNL     1       6.077   4.469  15.756  0.00  0.00    +0.000 C 
BRANCH  14  15
ATOM     15  C   UNL     1       6.447   4.429  14.280  0.00  0.00    +0.000 A 
ATOM     16  C   UNL     1       7.471   5.266  13.799  0.00  0.00    +0.000 A 
ATOM     17  C   UNL     1       7.852   5.227  12.455  0.00  0.00    +0.000 A 
ATOM     18  C   UNL     1       7.224   4.352  11.574  0.00  0.00    +0.000 A 
ATOM     19  C   UNL     1       6.215   3.512  12.032  0.00  0.00    +0.000 A 
ATOM     20  C   UNL     1       5.829   3.548  13.373  0.00  0.00    +0.000 A 
ENDBRANCH  14  15
BRANCH  14  22
ATOM     21  N   UNL     1       8.110   4.317  17.425  0.00  0.00    +0.000 NA
ATOM     22  C   UNL     1       7.226   4.406  16.674  0.00  0.00    +0.000 C 
ENDBRANCH  14  22
ENDBRANCH   1  14
TORSDOF 5
ENDMDL
MODEL 7
REMARK VINA RESULT:      -7.3      1.645      2.216
REMARK  Name = 
REMARK  5 active torsions:
REMARK  status: ('A' for Active; 'I' for Inactive)
REMARK    1  A    between atoms: C_2  and  C_3
REMARK    2  A    between atoms: C_3  and  C_4
REMARK    3  A    between atoms: C_3  and  C_16
REMARK    4  A    between atoms: C_4  and  C_6
REMARK    5  A    between atoms: N_8  and  C_9
REMARK                            x       y       z     vdW  Elec       q    Type
REMARK                         _______ _______ _______ _____ _____    ______ ____
ROOT
ATOM      1  C   UNL     1       7.258   4.733  17.071  0.00  0.00    +0.000 C 
ATOM      2  O   UNL     1       8.336   4.143  17.085  0.00  0.00    +0.000 OA
ENDROOT
BRANCH   1   3
ATOM      3  C   UNL     1       6.386   4.675  18.312  0.00  0.00    +0.000 C 
ATOM      4  O   UNL     1       6.831   5.161  19.340  0.00  0.00    +0.000 OA
ATOM      5  N   UNL     1       5.188   4.009  18.116  0.00  0.00    +0.000 N 
ATOM      6  H   UNL     1       5.001   3.638  17.188  0.00  0.00    +0.000 HD
BRANCH   5   7
ATOM      7  C   UNL     1       4.273   3.673  19.139  0.00  0.00    +0.000 A 
ATOM      8  C   UNL     1       4.432   2.557  19.969  0.00  0.00    +0.000 A 
ATOM      9  C   UNL     1       3.443   2.202  20.890  0.00  0.00    +0.000 A 
ATOM     10  C   UNL     1       2.290   2.972  20.995  0.00  0.00    +0.000 A 
ATOM     11 CL   UNL     1       1.045   2.496  22.082  0.00  0.00    +0.000 Cl
ATOM     12  C   UNL     1       2.141   4.118  20.217  0.00  0.00    +0.000 A 
ATOM     13  C   UNL     1       3.137   4.475  19.299  0.00  0.00    +0.000 A 
ENDBRANCH   5   7
ENDBRANCH   1   3
BRANCH   1  14
ATOM     14  C   UNL     1       6.803   5.647  15.959  0.00  0.00    +0.000 C 
BRANCH  14  15
ATOM     15  C   UNL     1       6.672   4.972  14.601  0.00  0.00    +0.000 A 
ATOM     16  C   UNL     1       7.645   5.211  13.612  0.00  0.00    +0.000 A 
ATOM     17  C   UNL     1       7.566   4.581  12.367  0.00  0.00    +0.000 A 
ATOM     18  C   UNL     1       6.523   3.701  12.092  0.00  0.00    +0.000 A 
ATOM     19  C   UNL     1       5.557   3.446  13.059  0.00  0.00    +0.000 A 
ATOM     20  C   UNL     1       5.629   4.076  14.304  0.00  0.00    +0.000 A 
ENDBRANCH  14  15
BRANCH  14  22
ATOM     21  N   UNL     1       4.601   6.869  16.735  0.00  0.00    +0.000 NA
ATOM     22  C   UNL     1       5.583   6.329  16.420  0.00  0.00    +0.000 C 
ENDBRANCH  14  22
ENDBRANCH   1  14
TORSDOF 5
ENDMDL
MODEL 8
REMARK VINA RESULT:      -7.2      3.635      4.897
REMARK  Name = 
REMARK  5 active torsions:
REMARK  status: ('A' for Active; 'I' for Inactive)
REMARK    1  A    between atoms: C_2  and  C_3
REMARK    2  A    between atoms: C_3  and  C_4
REMARK    3  A    between atoms: C_3  and  C_16
REMARK    4  A    between atoms: C_4  and  C_6
REMARK    5  A    between atoms: N_8  and  C_9
REMARK                            x       y       z     vdW  Elec       q    Type
REMARK                         _______ _______ _______ _____ _____    ______ ____
ROOT
ATOM      1  C   UNL     1       4.177   4.410  17.064  0.00  0.00    +0.000 C 
ATOM      2  O   UNL     1       4.281   3.209  17.298  0.00  0.00    +0.000 OA
ENDROOT
BRANCH   1   3
ATOM      3  C   UNL     1       3.037   5.177  17.709  0.00  0.00    +0.000 C 
ATOM      4  O   UNL     1       1.936   4.649  17.724  0.00  0.00    +0.000 OA
ATOM      5  N   UNL     1       3.400   6.435  18.161  0.00  0.00    +0.000 N 
ATOM      6  H   UNL     1       4.368   6.720  18.032  0.00  0.00    +0.000 HD
BRANCH   5   7
ATOM      7  C   UNL     1       2.502   7.410  18.648  0.00  0.00    +0.000 A 
ATOM      8  C   UNL     1       2.015   8.461  17.861  0.00  0.00    +0.000 A 
ATOM      9  C   UNL     1       1.219   9.464  18.419  0.00  0.00    +0.000 A 
ATOM     10  C   UNL     1       0.893   9.415  19.770  0.00  0.00    +0.000 A 
ATOM     11 CL   UNL     1      -0.031  10.686  20.469  0.00  0.00    +0.000 Cl
ATOM     12  C   UNL     1       1.322   8.347  20.554  0.00  0.00    +0.000 A 
ATOM     13  C   UNL     1       2.116   7.339  19.991  0.00  0.00    +0.000 A 
ENDBRANCH   5   7
ENDBRANCH   1   3
BRANCH   1  14
ATOM     14  C   UNL     1       5.197   5.219  16.300  0.00  0.00    +0.000 C 
BRANCH  14  15
ATOM     15  C   UNL     1       6.289   5.836  17.164  0.00  0.00    +0.000 A 
ATOM     16  C   UNL     1       6.735   7.142  16.889  0.00  0.00    +0.000 A 
ATOM     17  C   UNL     1       7.714   7.744  17.685  0.00  0.00    +0.000 A 
ATOM     18  C   UNL     1       8.256   7.059  18.767  0.00  0.00    +0.000 A 
ATOM     19  C   UNL     1       7.822   5.770  19.060  0.00  0.00    +0.000 A 
ATOM     20  C   UNL     1       6.846   5.162  18.266  0.00  0.00    +0.000 A 
ENDBRANCH  14  15
BRANCH  14  22
ATOM     21  N   UNL     1       6.052   3.731  14.301  0.00  0.00    +0.000 NA
ATOM     22  C   UNL     1       5.695   4.376  15.201  0.00  0.00    +0.000 C 
ENDBRANCH  14  22
ENDBRANCH   1  14
TORSDOF 5
ENDMDL
MODEL 9
REMARK VINA RESULT:      -7.1      4.533      6.714
REMARK  Name = 
REMARK  5 active torsions:
REMARK  status: ('A' for Active; 'I' for Inactive)
REMARK    1  A    between atoms: C_2  and  C_3
REMARK    2  A    between atoms: C_3  and  C_4
REMARK    3  A    between atoms: C_3  and  C_16
REMARK    4  A    between atoms: C_4  and  C_6
REMARK    5  A    between atoms: N_8  and  C_9
REMARK                            x       y       z     vdW  Elec       q    Type
REMARK                         _______ _______ _______ _____ _____    ______ ____
ROOT
ATOM      1  C   UNL     1       3.423   6.808  18.517  0.00  0.00    +0.000 C 
ATOM      2  O   UNL     1       3.987   6.926  17.432  0.00  0.00    +0.000 OA
ENDROOT
BRANCH   1   3
ATOM      3  C   UNL     1       2.276   7.746  18.842  0.00  0.00    +0.000 C 
ATOM      4  O   UNL     1       1.743   8.333  17.913  0.00  0.00    +0.000 OA
ATOM      5  N   UNL     1       2.015   7.854  20.198  0.00  0.00    +0.000 N 
ATOM      6  H   UNL     1       2.590   7.307  20.833  0.00  0.00    +0.000 HD
BRANCH   5   7
ATOM      7  C   UNL     1       1.115   8.776  20.778  0.00  0.00    +0.000 A 
ATOM      8  C   UNL     1       0.968  10.091  20.318  0.00  0.00    +0.000 A 
ATOM      9  C   UNL     1       0.149  10.998  20.996  0.00  0.00    +0.000 A 
ATOM     10  C   UNL     1      -0.540  10.591  22.133  0.00  0.00    +0.000 A 
ATOM     11 CL   UNL     1      -1.494  11.727  23.003  0.00  0.00    +0.000 Cl
ATOM     12  C   UNL     1      -0.449   9.272  22.570  0.00  0.00    +0.000 A 
ATOM     13  C   UNL     1       0.368   8.362  21.886  0.00  0.00    +0.000 A 
ENDBRANCH   5   7
ENDBRANCH   1   3
BRANCH   1  14
ATOM     14  C   UNL     1       3.688   5.689  19.495  0.00  0.00    +0.000 C 
BRANCH  14  15
ATOM     15  C   UNL     1       2.626   4.598  19.508  0.00  0.00    +0.000 A 
ATOM     16  C   UNL     1       2.282   3.950  18.307  0.00  0.00    +0.000 A 
ATOM     17  C   UNL     1       1.333   2.925  18.295  0.00  0.00    +0.000 A 
ATOM     18  C   UNL     1       0.718   2.525  19.478  0.00  0.00    +0.000 A 
ATOM     19  C   UNL     1       1.050   3.148  20.676  0.00  0.00    +0.000 A 
ATOM     20  C   UNL     1       1.996   4.175  20.693  0.00  0.00    +0.000 A 
ENDBRANCH  14  15
BRANCH  14  22
ATOM     21  N   UNL     1       6.151   4.838  19.105  0.00  0.00    +0.000 NA
ATOM     22  C   UNL     1       5.055   5.204  19.251  0.00  0.00    +0.000 C 
ENDBRANCH  14  22
ENDBRANCH   1  14
TORSDOF 5
ENDMDL
