MODEL 1
REMARK VINA RESULT:      -7.6      0.000      0.000
REMARK  Name = 
REMARK  8 active torsions:
REMARK  status: ('A' for Active; 'I' for Inactive)
REMARK    1  A    between atoms: C_1  and  O_2
REMARK    2  A    between atoms: O_2  and  C_3
REMARK    3  A    between atoms: C_7  and  O_8
REMARK    4  A    between atoms: O_8  and  C_9
REMARK    5  A    between atoms: C_10  and  C_11
REMARK    6  A    between atoms: C_11  and  O_12
REMARK    7  A    between atoms: C_13  and  C_14
REMARK    8  A    between atoms: C_13  and  C_16
REMARK                            x       y       z     vdW  Elec       q    Type
REMARK                         _______ _______ _______ _____ _____    ______ ____
ROOT
ATOM      1  C   UNL     1       4.154   3.903  17.847  0.00  0.00    +0.000 C 
ATOM      2  C   UNL     1       5.409   4.373  17.645  0.00  0.00    +0.000 C 
ENDROOT
BRANCH   2   3
ATOM      3  C   UNL     1       6.022   4.418  16.349  0.00  0.00    +0.000 A 
ATOM      4  N   UNL     1       6.939   5.253  15.894  0.00  0.00    +0.000 NA
ATOM      5  C   UNL     1       7.087   4.985  14.554  0.00  0.00    +0.000 A 
ATOM      6  C   UNL     1       7.922   5.594  13.604  0.00  0.00    +0.000 A 
ATOM      7  C   UNL     1       7.888   5.140  12.280  0.00  0.00    +0.000 A 
ATOM      8  C   UNL     1       7.026   4.108  11.905  0.00  0.00    +0.000 A 
ATOM      9  C   UNL     1       6.174   3.496  12.838  0.00  0.00    +0.000 A 
ATOM     10  C   UNL     1       6.238   3.958  14.159  0.00  0.00    +0.000 A 
ATOM     11  N   UNL     1       5.582   3.605  15.318  0.00  0.00    +0.000 N 
ATOM     12  H   UNL     1       4.881   2.882  15.401  0.00  0.00    +0.000 HD
ENDBRANCH   2   3
BRANCH   1  18
ATOM     13  C   UNL     1       3.486   2.874  20.052  0.00  0.00    +0.000 A 
ATOM     14  C   UNL     1       2.683   2.839  21.209  0.00  0.00    +0.000 A 
ATOM     15  C   UNL     1       1.848   3.898  21.524  0.00  0.00    +0.000 A 
ATOM     16  C   UNL     1       1.808   4.994  20.680  0.00  0.00    +0.000 A 
ATOM     17  C   UNL     1       2.558   5.049  19.490  0.00  0.00    +0.000 A 
ATOM     18  C   UNL     1       3.400   3.967  19.137  0.00  0.00    +0.000 A 
BRANCH  13  20
ATOM     19  C   UNL     1       5.144   1.377  20.868  0.00  0.00    +0.000 C 
ATOM     20  O   UNL     1       4.364   1.848  19.760  0.00  0.00    +0.000 OA
ENDBRANCH  13  20
BRANCH  17  21
ATOM     21  O   UNL     1       2.302   6.235  18.861  0.00  0.00    +0.000 OA
ATOM     22  C   UNL     1       2.253   7.462  19.553  0.00  0.00    +0.000 C 
ENDBRANCH  17  21
ENDBRANCH   1  18
BRANCH   1  23
ATOM     23  O   UNL     1       3.417   3.318  16.827  0.00  0.00    +0.000 OA
ATOM     24  H   UNL     1       3.625   2.361  16.862  0.00  0.00    +0.000 HD
ENDBRANCH   1  23
BRANCH   2  25
ATOM     25  C   UNL     1       6.184   4.870  18.741  0.00  0.00    +0.000 C 
ATOM     26  N   UNL     1       6.849   5.242  19.620  0.00  0.00    +0.000 NA
ENDBRANCH   2  25
TORSDOF 6
ENDMDL
MODEL 2
REMARK VINA RESULT:      -7.3      0.304      1.221
REMARK  Name = 
REMARK  8 active torsions:
REMARK  status: ('A' for Active; 'I' for Inactive)
REMARK    1  A    between atoms: C_1  and  O_2
REMARK    2  A    between atoms: O_2  and  C_3
REMARK    3  A    between atoms: C_7  and  O_8
REMARK    4  A    between atoms: O_8  and  C_9
REMARK    5  A    between atoms: C_10  and  C_11
REMARK    6  A    between atoms: C_11  and  O_12
REMARK    7  A    between atoms: C_13  and  C_14
REMARK    8  A    between atoms: C_13  and  C_16
REMARK                            x       y       z     vdW  Elec       q    Type
REMARK                         _______ _______ _______ _____ _____    ______ ____
ROOT
ATOM      1  C   UNL     1       3.822   3.859  17.817  0.00  0.00    +0.000 C 
ATOM      2  C   UNL     1       5.053   4.318  17.488  0.00  0.00    +0.000 C 
ENDROOT
BRANCH   2   3
ATOM      3  C   UNL     1       5.518   4.393  16.133  0.00  0.00    +0.000 A 
ATOM      4  N   UNL     1       5.164   3.658  15.093  0.00  0.00    +0.000 NA
ATOM      5  C   UNL     1       5.998   4.010  14.059  0.00  0.00    +0.000 A 
ATOM      6  C   UNL     1       6.052   3.521  12.744  0.00  0.00    +0.000 A 
ATOM      7  C   UNL     1       7.009   4.043  11.865  0.00  0.00    +0.000 A 
ATOM      8  C   UNL     1       7.907   5.022  12.292  0.00  0.00    +0.000 A 
ATOM      9  C   UNL     1       7.877   5.514  13.607  0.00  0.00    +0.000 A 
ATOM     10  C   UNL     1       6.900   4.987  14.463  0.00  0.00    +0.000 A 
ATOM     11  N   UNL     1       6.568   5.223  15.778  0.00  0.00    +0.000 N 
ATOM     12  H   UNL     1       7.025   5.884  16.391  0.00  0.00    +0.000 HD
ENDBRANCH   2   3
BRANCH   1  18
ATOM     13  C   UNL     1       3.365   2.763  20.044  0.00  0.00    +0.000 A 
ATOM     14  C   UNL     1       2.694   2.707  21.281  0.00  0.00    +0.000 A 
ATOM     15  C   UNL     1       1.941   3.780  21.728  0.00  0.00    +0.000 A 
ATOM     16  C   UNL     1       1.850   4.911  20.936  0.00  0.00    +0.000 A 
ATOM     17  C   UNL     1       2.464   4.989  19.672  0.00  0.00    +0.000 A 
ATOM     18  C   UNL     1       3.219   3.895  19.186  0.00  0.00    +0.000 A 
BRANCH  13  20
ATOM     19  C   UNL     1       5.143   1.274  20.564  0.00  0.00    +0.000 C 
ATOM     20  O   UNL     1       4.164   1.720  19.616  0.00  0.00    +0.000 OA
ENDBRANCH  13  20
BRANCH  17  21
ATOM     21  O   UNL     1       2.186   6.208  19.121  0.00  0.00    +0.000 OA
ATOM     22  C   UNL     1       2.164   7.394  19.882  0.00  0.00    +0.000 C 
ENDBRANCH  17  21
ENDBRANCH   1  18
BRANCH   1  23
ATOM     23  O   UNL     1       2.965   3.314  16.871  0.00  0.00    +0.000 OA
ATOM     24  H   UNL     1       3.541   2.888  16.203  0.00  0.00    +0.000 HD
ENDBRANCH   1  23
BRANCH   2  25
ATOM     25  C   UNL     1       5.956   4.772  18.503  0.00  0.00    +0.000 C 
ATOM     26  N   UNL     1       6.695   5.181  19.302  0.00  0.00    +0.000 NA
ENDBRANCH   2  25
TORSDOF 6
ENDMDL
MODEL 3
REMARK VINA RESULT:      -7.2      0.655      2.663
REMARK  Name = 
REMARK  8 active torsions:
REMARK  status: ('A' for Active; 'I' for Inactive)
REMARK    1  A    between atoms: C_1  and  O_2
REMARK    2  A    between atoms: O_2  and  C_3
REMARK    3  A    between atoms: C_7  and  O_8
REMARK    4  A    between atoms: O_8  and  C_9
REMARK    5  A    between atoms: C_10  and  C_11
REMARK    6  A    between atoms: C_11  and  O_12
REMARK    7  A    between atoms: C_13  and  C_14
REMARK    8  A    between atoms: C_13  and  C_16
REMARK                            x       y       z     vdW  Elec       q    Type
REMARK                         _______ _______ _______ _____ _____    ______ ____
ROOT
ATOM      1  C   UNL     1       4.032   4.139  17.612  0.00  0.00    +0.000 C 
ATOM      2  C   UNL     1       5.332   4.481  17.448  0.00  0.00    +0.000 C 
ENDROOT
BRANCH   2   3
ATOM      3  C   UNL     1       5.972   4.507  16.165  0.00  0.00    +0.000 A 
ATOM      4  N   UNL     1       6.858   5.369  15.697  0.00  0.00    +0.000 NA
ATOM      5  C   UNL     1       7.049   5.059  14.371  0.00  0.00    +0.000 A 
ATOM      6  C   UNL     1       7.875   5.672  13.416  0.00  0.00    +0.000 A 
ATOM      7  C   UNL     1       7.894   5.167  12.110  0.00  0.00    +0.000 A 
ATOM      8  C   UNL     1       7.092   4.080  11.757  0.00  0.00    +0.000 A 
ATOM      9  C   UNL     1       6.249   3.462  12.695  0.00  0.00    +0.000 A 
ATOM     10  C   UNL     1       6.261   3.976  13.999  0.00  0.00    +0.000 A 
ATOM     11  N   UNL     1       5.596   3.635  15.156  0.00  0.00    +0.000 N 
ATOM     12  H   UNL     1       4.930   2.881  15.252  0.00  0.00    +0.000 HD
ENDBRANCH   2   3
BRANCH   1  18
ATOM     13  C   UNL     1       2.467   5.394  19.144  0.00  0.00    +0.000 A 
ATOM     14  C   UNL     1       1.844   5.580  20.393  0.00  0.00    +0.000 A 
ATOM     15  C   UNL     1       1.926   4.610  21.378  0.00  0.00    +0.000 A 
ATOM     16  C   UNL     1       2.637   3.451  21.120  0.00  0.00    +0.000 A 
ATOM     17  C   UNL     1       3.315   3.246  19.902  0.00  0.00    +0.000 A 
ATOM     18  C   UNL     1       3.264   4.235  18.891  0.00  0.00    +0.000 A 
BRANCH  13  20
ATOM     19  C   UNL     1       2.472   7.697  18.554  0.00  0.00    +0.000 C 
ATOM     20  O   UNL     1       2.343   6.331  18.136  0.00  0.00    +0.000 OA
ENDBRANCH  13  20
BRANCH  17  21
ATOM     21  O   UNL     1       3.939   2.031  19.945  0.00  0.00    +0.000 OA
ATOM     22  C   UNL     1       3.802   1.076  18.917  0.00  0.00    +0.000 C 
ENDBRANCH  17  21
ENDBRANCH   1  18
BRANCH   1  23
ATOM     23  O   UNL     1       3.257   3.672  16.559  0.00  0.00    +0.000 OA
ATOM     24  H   UNL     1       3.489   2.726  16.456  0.00  0.00    +0.000 HD
ENDBRANCH   1  23
BRANCH   2  25
ATOM     25  C   UNL     1       6.135   4.852  18.574  0.00  0.00    +0.000 C 
ATOM     26  N   UNL     1       6.745   5.160  19.514  0.00  0.00    +0.000 NA
ENDBRANCH   2  25
TORSDOF 6
ENDMDL
MODEL 4
REMARK VINA RESULT:      -7.0      3.229      7.693
REMARK  Name = 
REMARK  8 active torsions:
REMARK  status: ('A' for Active; 'I' for Inactive)
REMARK    1  A    between atoms: C_1  and  O_2
REMARK    2  A    between atoms: O_2  and  C_3
REMARK    3  A    between atoms: C_7  and  O_8
REMARK    4  A    between atoms: O_8  and  C_9
REMARK    5  A    between atoms: C_10  and  C_11
REMARK    6  A    between atoms: C_11  and  O_12
REMARK    7  A    between atoms: C_13  and  C_14
REMARK    8  A    between atoms: C_13  and  C_16
REMARK                            x       y       z     vdW  Elec       q    Type
REMARK                         _______ _______ _______ _____ _____    ______ ____
ROOT
ATOM      1  C   UNL     1       3.383   6.830  18.177  0.00  0.00    +0.000 C 
ATOM      2  C   UNL     1       2.756   6.667  19.367  0.00  0.00    +0.000 C 
ENDROOT
BRANCH   2   3
ATOM      3  C   UNL     1       1.881   7.656  19.925  0.00  0.00    +0.000 A 
ATOM      4  N   UNL     1       1.407   8.756  19.365  0.00  0.00    +0.000 NA
ATOM      5  C   UNL     1       0.743   9.446  20.351  0.00  0.00    +0.000 A 
ATOM      6  C   UNL     1       0.071  10.677  20.287  0.00  0.00    +0.000 A 
ATOM      7  C   UNL     1      -0.532  11.182  21.446  0.00  0.00    +0.000 A 
ATOM      8  C   UNL     1      -0.456  10.480  22.650  0.00  0.00    +0.000 A 
ATOM      9  C   UNL     1       0.222   9.253  22.736  0.00  0.00    +0.000 A 
ATOM     10  C   UNL     1       0.805   8.762  21.560  0.00  0.00    +0.000 A 
ATOM     11  N   UNL     1       1.520   7.624  21.262  0.00  0.00    +0.000 N 
ATOM     12  H   UNL     1       1.759   6.891  21.916  0.00  0.00    +0.000 HD
ENDBRANCH   2   3
BRANCH   1  18
ATOM     13  C   UNL     1       5.529   6.076  17.083  0.00  0.00    +0.000 A 
ATOM     14  C   UNL     1       6.264   5.170  16.293  0.00  0.00    +0.000 A 
ATOM     15  C   UNL     1       5.727   3.944  15.936  0.00  0.00    +0.000 A 
ATOM     16  C   UNL     1       4.450   3.622  16.362  0.00  0.00    +0.000 A 
ATOM     17  C   UNL     1       3.664   4.518  17.112  0.00  0.00    +0.000 A 
ATOM     18  C   UNL     1       4.184   5.785  17.468  0.00  0.00    +0.000 A 
BRANCH  13  20
ATOM     19  C   UNL     1       7.511   7.309  17.536  0.00  0.00    +0.000 C 
ATOM     20  O   UNL     1       6.078   7.277  17.491  0.00  0.00    +0.000 OA
ENDBRANCH  13  20
BRANCH  17  21
ATOM     21  O   UNL     1       2.454   3.935  17.368  0.00  0.00    +0.000 OA
ATOM     22  C   UNL     1       2.331   2.582  17.742  0.00  0.00    +0.000 C 
ENDBRANCH  17  21
ENDBRANCH   1  18
BRANCH   1  23
ATOM     23  O   UNL     1       3.317   8.022  17.470  0.00  0.00    +0.000 OA
ATOM     24  H   UNL     1       4.246   8.285  17.302  0.00  0.00    +0.000 HD
ENDBRANCH   1  23
BRANCH   2  25
ATOM     25  C   UNL     1       2.935   5.465  20.124  0.00  0.00    +0.000 C 
ATOM     26  N   UNL     1       3.033   4.492  20.753  0.00  0.00    +0.000 NA
ENDBRANCH   2  25
TORSDOF 6
ENDMDL
MODEL 5
REMARK VINA RESULT:      -7.0      0.467      2.887
REMARK  Name = 
REMARK  8 active torsions:
REMARK  status: ('A' for Active; 'I' for Inactive)
REMARK    1  A    between atoms: C_1  and  O_2
REMARK    2  A    between atoms: O_2  and  C_3
REMARK    3  A    between atoms: C_7  and  O_8
REMARK    4  A    between atoms: O_8  and  C_9
REMARK    5  A    between atoms: C_10  and  C_11
REMARK    6  A    between atoms: C_11  and  O_12
REMARK    7  A    between atoms: C_13  and  C_14
REMARK    8  A    between atoms: C_13  and  C_16
REMARK                            x       y       z     vdW  Elec       q    Type
REMARK                         _______ _______ _______ _____ _____    ______ ____
ROOT
ATOM      1  C   UNL     1       3.673   3.801  17.637  0.00  0.00    +0.000 C 
ATOM      2  C   UNL     1       4.924   4.242  17.365  0.00  0.00    +0.000 C 
ENDROOT
BRANCH   2   3
ATOM      3  C   UNL     1       5.438   4.345  16.030  0.00  0.00    +0.000 A 
ATOM      4  N   UNL     1       5.119   3.636  14.962  0.00  0.00    +0.000 NA
ATOM      5  C   UNL     1       5.993   4.006  13.967  0.00  0.00    +0.000 A 
ATOM      6  C   UNL     1       6.092   3.548  12.644  0.00  0.00    +0.000 A 
ATOM      7  C   UNL     1       7.083   4.083  11.813  0.00  0.00    +0.000 A 
ATOM      8  C   UNL     1       7.970   5.047  12.295  0.00  0.00    +0.000 A 
ATOM      9  C   UNL     1       7.895   5.508  13.619  0.00  0.00    +0.000 A 
ATOM     10  C   UNL     1       6.885   4.968  14.426  0.00  0.00    +0.000 A 
ATOM     11  N   UNL     1       6.506   5.176  15.733  0.00  0.00    +0.000 N 
ATOM     12  H   UNL     1       6.943   5.820  16.378  0.00  0.00    +0.000 HD
ENDBRANCH   2   3
BRANCH   1  18
ATOM     13  C   UNL     1       2.200   4.919  19.356  0.00  0.00    +0.000 A 
ATOM     14  C   UNL     1       1.687   5.028  20.663  0.00  0.00    +0.000 A 
ATOM     15  C   UNL     1       1.903   4.026  21.594  0.00  0.00    +0.000 A 
ATOM     16  C   UNL     1       2.639   2.914  21.225  0.00  0.00    +0.000 A 
ATOM     17  C   UNL     1       3.211   2.788  19.944  0.00  0.00    +0.000 A 
ATOM     18  C   UNL     1       3.022   3.811  18.984  0.00  0.00    +0.000 A 
BRANCH  13  20
ATOM     19  C   UNL     1       2.583   7.149  18.627  0.00  0.00    +0.000 C 
ATOM     20  O   UNL     1       1.942   5.886  18.403  0.00  0.00    +0.000 OA
ENDBRANCH  13  20
BRANCH  17  21
ATOM     21  O   UNL     1       3.890   1.604  19.878  0.00  0.00    +0.000 OA
ATOM     22  C   UNL     1       5.088   1.380  20.585  0.00  0.00    +0.000 C 
ENDBRANCH  17  21
ENDBRANCH   1  18
BRANCH   1  23
ATOM     23  O   UNL     1       2.839   3.302  16.646  0.00  0.00    +0.000 OA
ATOM     24  H   UNL     1       1.975   3.140  17.080  0.00  0.00    +0.000 HD
ENDBRANCH   1  23
BRANCH   2  25
ATOM     25  C   UNL     1       5.799   4.647  18.424  0.00  0.00    +0.000 C 
ATOM     26  N   UNL     1       6.546   4.974  19.253  0.00  0.00    +0.000 NA
ENDBRANCH   2  25
TORSDOF 6
ENDMDL
MODEL 6
REMARK VINA RESULT:      -7.0      3.712      7.814
REMARK  Name = 
REMARK  8 active torsions:
REMARK  status: ('A' for Active; 'I' for Inactive)
REMARK    1  A    between atoms: C_1  and  O_2
REMARK    2  A    between atoms: O_2  and  C_3
REMARK    3  A    between atoms: C_7  and  O_8
REMARK    4  A    between atoms: O_8  and  C_9
REMARK    5  A    between atoms: C_10  and  C_11
REMARK    6  A    between atoms: C_11  and  O_12
REMARK    7  A    between atoms: C_13  and  C_14
REMARK    8  A    between atoms: C_13  and  C_16
REMARK                            x       y       z     vdW  Elec       q    Type
REMARK                         _______ _______ _______ _____ _____    ______ ____
ROOT
ATOM      1  C   UNL     1       2.453   5.959  19.723  0.00  0.00    +0.000 C 
ATOM      2  C   UNL     1       2.218   7.249  19.383  0.00  0.00    +0.000 C 
ENDROOT
BRANCH   2   3
ATOM      3  C   UNL     1       1.572   8.179  20.264  0.00  0.00    +0.000 A 
ATOM      4  N   UNL     1       1.224   8.018  21.528  0.00  0.00    +0.000 NA
ATOM      5  C   UNL     1       0.502   9.133  21.883  0.00  0.00    +0.000 A 
ATOM      6  C   UNL     1      -0.106   9.456  23.106  0.00  0.00    +0.000 A 
ATOM      7  C   UNL     1      -0.800  10.667  23.221  0.00  0.00    +0.000 A 
ATOM      8  C   UNL     1      -0.899  11.534  22.132  0.00  0.00    +0.000 A 
ATOM      9  C   UNL     1      -0.309  11.223  20.896  0.00  0.00    +0.000 A 
ATOM     10  C   UNL     1       0.393  10.012  20.812  0.00  0.00    +0.000 A 
ATOM     11  N   UNL     1       1.090   9.391  19.800  0.00  0.00    +0.000 N 
ATOM     12  H   UNL     1       1.218   9.753  18.865  0.00  0.00    +0.000 HD
ENDBRANCH   2   3
BRANCH   1  18
ATOM     13  C   UNL     1       2.578   3.917  18.245  0.00  0.00    +0.000 A 
ATOM     14  C   UNL     1       3.307   2.901  17.597  0.00  0.00    +0.000 A 
ATOM     15  C   UNL     1       4.690   2.951  17.534  0.00  0.00    +0.000 A 
ATOM     16  C   UNL     1       5.350   4.015  18.125  0.00  0.00    +0.000 A 
ATOM     17  C   UNL     1       4.662   5.025  18.824  0.00  0.00    +0.000 A 
ATOM     18  C   UNL     1       3.251   4.981  18.920  0.00  0.00    +0.000 A 
BRANCH  13  20
ATOM     19  C   UNL     1       0.604   2.717  18.807  0.00  0.00    +0.000 C 
ATOM     20  O   UNL     1       1.196   3.905  18.263  0.00  0.00    +0.000 OA
ENDBRANCH  13  20
BRANCH  17  21
ATOM     21  O   UNL     1       5.571   5.922  19.310  0.00  0.00    +0.000 OA
ATOM     22  C   UNL     1       6.959   5.676  19.293  0.00  0.00    +0.000 C 
ENDBRANCH  17  21
ENDBRANCH   1  18
BRANCH   1  23
ATOM     23  O   UNL     1       1.976   5.413  20.907  0.00  0.00    +0.000 OA
ATOM     24  H   UNL     1       2.702   5.511  21.558  0.00  0.00    +0.000 HD
ENDBRANCH   1  23
BRANCH   2  25
ATOM     25  C   UNL     1       2.627   7.751  18.106  0.00  0.00    +0.000 C 
ATOM     26  N   UNL     1       2.917   8.181  17.065  0.00  0.00    +0.000 NA
ENDBRANCH   2  25
TORSDOF 6
ENDMDL
MODEL 7
REMARK VINA RESULT:      -6.8      3.618      7.867
REMARK  Name = 
REMARK  8 active torsions:
REMARK  status: ('A' for Active; 'I' for Inactive)
REMARK    1  A    between atoms: C_1  and  O_2
REMARK    2  A    between atoms: O_2  and  C_3
REMARK    3  A    between atoms: C_7  and  O_8
REMARK    4  A    between atoms: O_8  and  C_9
REMARK    5  A    between atoms: C_10  and  C_11
REMARK    6  A    between atoms: C_11  and  O_12
REMARK    7  A    between atoms: C_13  and  C_14
REMARK    8  A    between atoms: C_13  and  C_16
REMARK                            x       y       z     vdW  Elec       q    Type
REMARK                         _______ _______ _______ _____ _____    ______ ____
ROOT
ATOM      1  C   UNL     1       2.776   6.869  18.701  0.00  0.00    +0.000 C 
ATOM      2  C   UNL     1       2.211   6.846  19.933  0.00  0.00    +0.000 C 
ENDROOT
BRANCH   2   3
ATOM      3  C   UNL     1       1.532   7.976  20.497  0.00  0.00    +0.000 A 
ATOM      4  N   UNL     1       1.168   8.185  21.750  0.00  0.00    +0.000 NA
ATOM      5  C   UNL     1       0.417   9.335  21.757  0.00  0.00    +0.000 A 
ATOM      6  C   UNL     1      -0.217   9.987  22.827  0.00  0.00    +0.000 A 
ATOM      7  C   UNL     1      -0.939  11.160  22.576  0.00  0.00    +0.000 A 
ATOM      8  C   UNL     1      -1.041  11.667  21.279  0.00  0.00    +0.000 A 
ATOM      9  C   UNL     1      -0.425  11.022  20.194  0.00  0.00    +0.000 A 
ATOM     10  C   UNL     1       0.304   9.859  20.474  0.00  0.00    +0.000 A 
ATOM     11  N   UNL     1       1.030   8.987  19.694  0.00  0.00    +0.000 N 
ATOM     12  H   UNL     1       1.163   9.062  18.695  0.00  0.00    +0.000 HD
ENDBRANCH   2   3
BRANCH   1  18
ATOM     13  C   UNL     1       4.723   5.740  17.560  0.00  0.00    +0.000 A 
ATOM     14  C   UNL     1       5.266   4.708  16.770  0.00  0.00    +0.000 A 
ATOM     15  C   UNL     1       4.517   3.584  16.461  0.00  0.00    +0.000 A 
ATOM     16  C   UNL     1       3.220   3.492  16.934  0.00  0.00    +0.000 A 
ATOM     17  C   UNL     1       2.624   4.523  17.686  0.00  0.00    +0.000 A 
ATOM     18  C   UNL     1       3.363   5.690  17.993  0.00  0.00    +0.000 A 
BRANCH  13  20
ATOM     19  C   UNL     1       6.789   6.895  17.335  0.00  0.00    +0.000 C 
ATOM     20  O   UNL     1       5.481   6.838  17.921  0.00  0.00    +0.000 OA
ENDBRANCH  13  20
BRANCH  17  21
ATOM     21  O   UNL     1       1.343   4.160  17.993  0.00  0.00    +0.000 OA
ATOM     22  C   UNL     1       1.024   2.898  18.534  0.00  0.00    +0.000 C 
ENDBRANCH  17  21
ENDBRANCH   1  18
BRANCH   1  23
ATOM     23  O   UNL     1       2.842   8.032  17.946  0.00  0.00    +0.000 OA
ATOM     24  H   UNL     1       3.764   8.352  18.028  0.00  0.00    +0.000 HD
ENDBRANCH   1  23
BRANCH   2  25
ATOM     25  C   UNL     1       2.258   5.659  20.732  0.00  0.00    +0.000 C 
ATOM     26  N   UNL     1       2.303   4.669  21.341  0.00  0.00    +0.000 NA
ENDBRANCH   2  25
TORSDOF 6
ENDMDL
MODEL 8
REMARK VINA RESULT:      -6.7      3.507      7.818
REMARK  Name = 
REMARK  8 active torsions:
REMARK  status: ('A' for Active; 'I' for Inactive)
REMARK    1  A    between atoms: C_1  and  O_2
REMARK    2  A    between atoms: O_2  and  C_3
REMARK    3  A    between atoms: C_7  and  O_8
REMARK    4  A    between atoms: O_8  and  C_9
REMARK    5  A    between atoms: C_10  and  C_11
REMARK    6  A    between atoms: C_11  and  O_12
REMARK    7  A    between atoms: C_13  and  C_14
REMARK    8  A    between atoms: C_13  and  C_16
REMARK                            x       y       z     vdW  Elec       q    Type
REMARK                         _______ _______ _______ _____ _____    ______ ____
ROOT
ATOM      1  C   UNL     1       2.915   6.984  18.486  0.00  0.00    +0.000 C 
ATOM      2  C   UNL     1       2.341   6.876  19.708  0.00  0.00    +0.000 C 
ENDROOT
BRANCH   2   3
ATOM      3  C   UNL     1       1.508   7.901  20.268  0.00  0.00    +0.000 A 
ATOM      4  N   UNL     1       1.131   9.048  19.732  0.00  0.00    +0.000 NA
ATOM      5  C   UNL     1       0.471   9.745  20.716  0.00  0.00    +0.000 A 
ATOM      6  C   UNL     1      -0.116  11.020  20.673  0.00  0.00    +0.000 A 
ATOM      7  C   UNL     1      -0.734  11.522  21.824  0.00  0.00    +0.000 A 
ATOM      8  C   UNL     1      -0.755  10.774  23.003  0.00  0.00    +0.000 A 
ATOM      9  C   UNL     1      -0.162   9.503  23.069  0.00  0.00    +0.000 A 
ATOM     10  C   UNL     1       0.437   9.017  21.900  0.00  0.00    +0.000 A 
ATOM     11  N   UNL     1       1.089   7.845  21.587  0.00  0.00    +0.000 N 
ATOM     12  H   UNL     1       1.252   7.074  22.221  0.00  0.00    +0.000 HD
ENDBRANCH   2   3
BRANCH   1  18
ATOM     13  C   UNL     1       3.000   4.675  17.470  0.00  0.00    +0.000 A 
ATOM     14  C   UNL     1       3.711   3.585  16.933  0.00  0.00    +0.000 A 
ATOM     15  C   UNL     1       5.056   3.700  16.623  0.00  0.00    +0.000 A 
ATOM     16  C   UNL     1       5.697   4.904  16.855  0.00  0.00    +0.000 A 
ATOM     17  C   UNL     1       5.034   6.003  17.434  0.00  0.00    +0.000 A 
ATOM     18  C   UNL     1       3.666   5.900  17.780  0.00  0.00    +0.000 A 
BRANCH  13  20
ATOM     19  C   UNL     1       1.198   3.314  18.213  0.00  0.00    +0.000 C 
ATOM     20  O   UNL     1       1.645   4.588  17.729  0.00  0.00    +0.000 OA
ENDBRANCH  13  20
BRANCH  17  21
ATOM     21  O   UNL     1       5.920   7.037  17.556  0.00  0.00    +0.000 OA
ATOM     22  C   UNL     1       7.307   6.870  17.371  0.00  0.00    +0.000 C 
ENDBRANCH  17  21
ENDBRANCH   1  18
BRANCH   1  23
ATOM     23  O   UNL     1       2.836   8.151  17.738  0.00  0.00    +0.000 OA
ATOM     24  H   UNL     1       3.587   8.708  18.032  0.00  0.00    +0.000 HD
ENDBRANCH   1  23
BRANCH   2  25
ATOM     25  C   UNL     1       2.535   5.700  20.501  0.00  0.00    +0.000 C 
ATOM     26  N   UNL     1       2.646   4.733  21.138  0.00  0.00    +0.000 NA
ENDBRANCH   2  25
TORSDOF 6
ENDMDL
MODEL 9
REMARK VINA RESULT:      -6.6      4.575      7.752
REMARK  Name = 
REMARK  8 active torsions:
REMARK  status: ('A' for Active; 'I' for Inactive)
REMARK    1  A    between atoms: C_1  and  O_2
REMARK    2  A    between atoms: O_2  and  C_3
REMARK    3  A    between atoms: C_7  and  O_8
REMARK    4  A    between atoms: O_8  and  C_9
REMARK    5  A    between atoms: C_10  and  C_11
REMARK    6  A    between atoms: C_11  and  O_12
REMARK    7  A    between atoms: C_13  and  C_14
REMARK    8  A    between atoms: C_13  and  C_16
REMARK                            x       y       z     vdW  Elec       q    Type
REMARK                         _______ _______ _______ _____ _____    ______ ____
ROOT
ATOM      1  C   UNL     1       1.168  10.050  18.557  0.00  0.00    +0.000 C 
ATOM      2  C   UNL     1       1.358   8.981  19.367  0.00  0.00    +0.000 C 
ENDROOT
BRANCH   2   3
ATOM      3  C   UNL     1       2.274   7.922  19.053  0.00  0.00    +0.000 A 
ATOM      4  N   UNL     1       2.916   7.690  17.922  0.00  0.00    +0.000 NA
ATOM      5  C   UNL     1       3.548   6.478  18.069  0.00  0.00    +0.000 A 
ATOM      6  C   UNL     1       4.351   5.768  17.162  0.00  0.00    +0.000 A 
ATOM      7  C   UNL     1       4.885   4.534  17.549  0.00  0.00    +0.000 A 
ATOM      8  C   UNL     1       4.612   4.007  18.813  0.00  0.00    +0.000 A 
ATOM      9  C   UNL     1       3.801   4.695  19.729  0.00  0.00    +0.000 A 
ATOM     10  C   UNL     1       3.292   5.936  19.323  0.00  0.00    +0.000 A 
ATOM     11  N   UNL     1       2.492   6.876  19.934  0.00  0.00    +0.000 N 
ATOM     12  H   UNL     1       2.111   6.808  20.868  0.00  0.00    +0.000 HD
ENDBRANCH   2   3
BRANCH   1  18
ATOM     13  C   UNL     1       1.006  12.462  19.282  0.00  0.00    +0.000 A 
ATOM     14  C   UNL     1       0.265  13.571  19.735  0.00  0.00    +0.000 A 
ATOM     15  C   UNL     1      -1.120  13.545  19.739  0.00  0.00    +0.000 A 
ATOM     16  C   UNL     1      -1.770  12.406  19.295  0.00  0.00    +0.000 A 
ATOM     17  C   UNL     1      -1.067  11.259  18.879  0.00  0.00    +0.000 A 
ATOM     18  C   UNL     1       0.348  11.256  18.890  0.00  0.00    +0.000 A 
BRANCH  13  20
ATOM     19  C   UNL     1       2.931  13.532  18.388  0.00  0.00    +0.000 C 
ATOM     20  O   UNL     1       2.386  12.500  19.222  0.00  0.00    +0.000 OA
ENDBRANCH  13  20
BRANCH  17  21
ATOM     21  O   UNL     1      -1.968  10.297  18.518  0.00  0.00    +0.000 OA
ATOM     22  C   UNL     1      -2.162   9.909  17.177  0.00  0.00    +0.000 C 
ENDBRANCH  17  21
ENDBRANCH   1  18
BRANCH   1  23
ATOM     23  O   UNL     1       1.759  10.136  17.304  0.00  0.00    +0.000 OA
ATOM     24  H   UNL     1       2.444   9.437  17.283  0.00  0.00    +0.000 HD
ENDBRANCH   1  23
BRANCH   2  25
ATOM     25  C   UNL     1       0.647   8.870  20.605  0.00  0.00    +0.000 C 
ATOM     26  N   UNL     1       0.037   8.751  21.588  0.00  0.00    +0.000 NA
ENDBRANCH   2  25
TORSDOF 6
ENDMDL
