MODEL 1
REMARK VINA RESULT:      -7.9      0.000      0.000
REMARK  Name = 
REMARK  6 active torsions:
REMARK  status: ('A' for Active; 'I' for Inactive)
REMARK    1  A    between atoms: C_1  and  C_2
REMARK    2  A    between atoms: C_5  and  N_6
REMARK    3  A    between atoms: C_13  and  C_14
REMARK    4  A    between atoms: C_19  and  C_20
REMARK    5  A    between atoms: C_29  and  C_30
REMARK    6  A    between atoms: C_32  and  C_33
REMARK                            x       y       z     vdW  Elec       q    Type
REMARK                         _______ _______ _______ _____ _____    ______ ____
ROOT
ATOM      1  N   UNL     1       1.242  13.367  19.526  0.00  0.00    +0.000 N 
ATOM      2  N   UNL     1       2.496  13.909  19.562  0.00  0.00    +0.000 NA
ATOM      3  C   UNL     1       2.345  15.228  19.272  0.00  0.00    +0.000 A 
ATOM      4  C   UNL     1       3.316  16.296  19.163  0.00  0.00    +0.000 A 
ATOM      5  N   UNL     1       4.683  16.228  19.323  0.00  0.00    +0.000 N 
ATOM      6  C   UNL     1       5.468  15.121  18.814  0.00  0.00    +0.000 C 
ATOM      7  C   UNL     1       6.423  14.693  19.927  0.00  0.00    +0.000 C 
ATOM      8  C   UNL     1       7.249  15.867  20.486  0.00  0.00    +0.000 C 
ATOM      9  C   UNL     1       6.386  17.115  20.761  0.00  0.00    +0.000 C 
ATOM     10  C   UNL     1       5.424  17.447  19.619  0.00  0.00    +0.000 C 
ATOM     11  N   UNL     1       2.714  17.515  18.960  0.00  0.00    +0.000 NA
ATOM     12  N   UNL     1       1.293  17.755  18.831  0.00  0.00    +0.000 NA
ATOM     13  C   UNL     1       0.357  16.775  18.905  0.00  0.00    +0.000 A 
ATOM     14  C   UNL     1      -1.067  17.180  18.763  0.00  0.00    +0.000 C 
ATOM     15  C   UNL     1       0.928  15.511  19.133  0.00  0.00    +0.000 A 
ATOM     16  C   UNL     1       0.253  14.326  19.334  0.00  0.00    +0.000 A 
ATOM     17  C   UNL     1      -1.206  14.047  19.466  0.00  0.00    +0.000 C 
ENDROOT
BRANCH   8  18
ATOM     18  C   UNL     1       8.424  16.249  19.583  0.00  0.00    +0.000 C 
ATOM     19  O   UNL     1       8.608  17.423  19.256  0.00  0.00    +0.000 OA
ATOM     20  N   UNL     1       9.289  15.248  19.170  0.00  0.00    +0.000 N 
ATOM     21  C   UNL     1      10.609  15.630  18.677  0.00  0.00    +0.000 C 
ATOM     22  C   UNL     1      10.893  14.987  17.326  0.00  0.00    +0.000 C 
ATOM     23  C   UNL     1      10.712  13.464  17.381  0.00  0.00    +0.000 C 
ATOM     24  C   UNL     1       9.333  13.115  17.964  0.00  0.00    +0.000 C 
ATOM     25  C   UNL     1       9.067  13.810  19.300  0.00  0.00    +0.000 C 
BRANCH  23  26
ATOM     26  C   UNL     1      11.836  12.780  18.155  0.00  0.00    +0.000 C 
ATOM     27  N   UNL     1      12.270  11.592  17.638  0.00  0.00    +0.000 N 
ATOM     28  O   UNL     1      12.332  13.223  19.186  0.00  0.00    +0.000 OA
ATOM     29  H   UNL     1      11.774  11.098  16.912  0.00  0.00    +0.000 HD
ATOM     30  H   UNL     1      12.969  11.093  18.172  0.00  0.00    +0.000 HD
ENDBRANCH  23  26
ENDBRANCH   8  18
BRANCH   1  35
ATOM     31  C   UNL     1       1.298   7.780  20.809  0.00  0.00    +0.000 C 
ATOM     32  C   UNL     1       1.130   9.218  20.414  0.00  0.00    +0.000 A 
ATOM     33  C   UNL     1       1.241   9.651  19.086  0.00  0.00    +0.000 A 
ATOM     34  C   UNL     1       1.188  11.020  18.763  0.00  0.00    +0.000 A 
ATOM     35  C   UNL     1       1.044  11.967  19.783  0.00  0.00    +0.000 A 
ATOM     36  C   UNL     1       0.803  11.517  21.087  0.00  0.00    +0.000 A 
ATOM     37  C   UNL     1       0.878  10.163  21.409  0.00  0.00    +0.000 A 
ENDBRANCH   1  35
TORSDOF 3
ENDMDL
MODEL 2
REMARK VINA RESULT:      -7.5      2.921      4.078
REMARK  Name = 
REMARK  6 active torsions:
REMARK  status: ('A' for Active; 'I' for Inactive)
REMARK    1  A    between atoms: C_1  and  C_2
REMARK    2  A    between atoms: C_5  and  N_6
REMARK    3  A    between atoms: C_13  and  C_14
REMARK    4  A    between atoms: C_19  and  C_20
REMARK    5  A    between atoms: C_29  and  C_30
REMARK    6  A    between atoms: C_32  and  C_33
REMARK                            x       y       z     vdW  Elec       q    Type
REMARK                         _______ _______ _______ _____ _____    ______ ____
ROOT
ATOM      1  N   UNL     1      -1.440  12.798  20.521  0.00  0.00    +0.000 N 
ATOM      2  N   UNL     1      -0.218  13.398  20.404  0.00  0.00    +0.000 NA
ATOM      3  C   UNL     1      -0.075  14.182  21.505  0.00  0.00    +0.000 A 
ATOM      4  C   UNL     1       1.005  15.049  21.923  0.00  0.00    +0.000 A 
ATOM      5  N   UNL     1       2.193  15.309  21.274  0.00  0.00    +0.000 N 
ATOM      6  C   UNL     1       2.268  15.488  19.838  0.00  0.00    +0.000 C 
ATOM      7  C   UNL     1       3.449  14.658  19.339  0.00  0.00    +0.000 C 
ATOM      8  C   UNL     1       4.755  14.967  20.096  0.00  0.00    +0.000 C 
ATOM      9  C   UNL     1       4.549  15.023  21.624  0.00  0.00    +0.000 C 
ATOM     10  C   UNL     1       3.319  15.832  22.037  0.00  0.00    +0.000 C 
ATOM     11  N   UNL     1       0.784  15.575  23.174  0.00  0.00    +0.000 NA
ATOM     12  N   UNL     1      -0.382  15.349  24.001  0.00  0.00    +0.000 NA
ATOM     13  C   UNL     1      -1.423  14.561  23.631  0.00  0.00    +0.000 A 
ATOM     14  C   UNL     1      -2.546  14.419  24.595  0.00  0.00    +0.000 C 
ATOM     15  C   UNL     1      -1.229  13.985  22.364  0.00  0.00    +0.000 A 
ATOM     16  C   UNL     1      -2.056  13.079  21.736  0.00  0.00    +0.000 A 
ATOM     17  C   UNL     1      -3.290  12.392  22.214  0.00  0.00    +0.000 C 
ENDROOT
BRANCH   8  18
ATOM     18  C   UNL     1       5.424  16.260  19.625  0.00  0.00    +0.000 C 
ATOM     19  O   UNL     1       4.746  17.247  19.332  0.00  0.00    +0.000 OA
ATOM     20  N   UNL     1       6.808  16.301  19.566  0.00  0.00    +0.000 N 
ATOM     21  C   UNL     1       7.464  17.605  19.528  0.00  0.00    +0.000 C 
ATOM     22  C   UNL     1       8.458  17.683  18.377  0.00  0.00    +0.000 C 
ATOM     23  C   UNL     1       9.466  16.527  18.428  0.00  0.00    +0.000 C 
ATOM     24  C   UNL     1       8.726  15.182  18.529  0.00  0.00    +0.000 C 
ATOM     25  C   UNL     1       7.709  15.156  19.671  0.00  0.00    +0.000 C 
BRANCH  23  26
ATOM     26  C   UNL     1      10.476  16.696  19.561  0.00  0.00    +0.000 C 
ATOM     27  N   UNL     1      11.158  15.566  19.915  0.00  0.00    +0.000 N 
ATOM     28  O   UNL     1      10.679  17.752  20.152  0.00  0.00    +0.000 OA
ATOM     29  H   UNL     1      10.897  14.647  19.595  0.00  0.00    +0.000 HD
ATOM     30  H   UNL     1      11.785  15.644  20.705  0.00  0.00    +0.000 HD
ENDBRANCH  23  26
ENDBRANCH   8  18
BRANCH   1  35
ATOM     31  C   UNL     1      -2.864   9.715  15.902  0.00  0.00    +0.000 C 
ATOM     32  C   UNL     1      -2.596  10.425  17.196  0.00  0.00    +0.000 A 
ATOM     33  C   UNL     1      -3.492  11.353  17.745  0.00  0.00    +0.000 A 
ATOM     34  C   UNL     1      -3.161  12.083  18.903  0.00  0.00    +0.000 A 
ATOM     35  C   UNL     1      -1.912  11.898  19.505  0.00  0.00    +0.000 A 
ATOM     36  C   UNL     1      -1.081  10.877  19.026  0.00  0.00    +0.000 A 
ATOM     37  C   UNL     1      -1.399  10.171  17.867  0.00  0.00    +0.000 A 
ENDBRANCH   1  35
TORSDOF 3
ENDMDL
MODEL 3
REMARK VINA RESULT:      -7.4      5.315      9.482
REMARK  Name = 
REMARK  6 active torsions:
REMARK  status: ('A' for Active; 'I' for Inactive)
REMARK    1  A    between atoms: C_1  and  C_2
REMARK    2  A    between atoms: C_5  and  N_6
REMARK    3  A    between atoms: C_13  and  C_14
REMARK    4  A    between atoms: C_19  and  C_20
REMARK    5  A    between atoms: C_29  and  C_30
REMARK    6  A    between atoms: C_32  and  C_33
REMARK                            x       y       z     vdW  Elec       q    Type
REMARK                         _______ _______ _______ _____ _____    ______ ____
ROOT
ATOM      1  N   UNL     1       3.949   6.263  17.971  0.00  0.00    +0.000 N 
ATOM      2  N   UNL     1       3.396   7.501  18.145  0.00  0.00    +0.000 NA
ATOM      3  C   UNL     1       2.482   7.368  19.142  0.00  0.00    +0.000 A 
ATOM      4  C   UNL     1       1.594   8.333  19.753  0.00  0.00    +0.000 A 
ATOM      5  N   UNL     1       1.445   9.670  19.451  0.00  0.00    +0.000 N 
ATOM      6  C   UNL     1       1.451  10.161  18.088  0.00  0.00    +0.000 C 
ATOM      7  C   UNL     1       2.364  11.386  18.052  0.00  0.00    +0.000 C 
ATOM      8  C   UNL     1       1.990  12.437  19.114  0.00  0.00    +0.000 C 
ATOM      9  C   UNL     1       1.736  11.808  20.500  0.00  0.00    +0.000 C 
ATOM     10  C   UNL     1       0.855  10.560  20.442  0.00  0.00    +0.000 C 
ATOM     11  N   UNL     1       0.908   7.796  20.817  0.00  0.00    +0.000 NA
ATOM     12  N   UNL     1       1.001   6.431  21.290  0.00  0.00    +0.000 NA
ATOM     13  C   UNL     1       1.806   5.495  20.727  0.00  0.00    +0.000 A 
ATOM     14  C   UNL     1       1.800   4.137  21.334  0.00  0.00    +0.000 C 
ATOM     15  C   UNL     1       2.543   6.008  19.646  0.00  0.00    +0.000 A 
ATOM     16  C   UNL     1       3.502   5.343  18.914  0.00  0.00    +0.000 A 
ATOM     17  C   UNL     1       4.096   3.987  19.090  0.00  0.00    +0.000 C 
ENDROOT
BRANCH   8  18
ATOM     18  C   UNL     1       0.783  13.286  18.711  0.00  0.00    +0.000 C 
ATOM     19  O   UNL     1      -0.210  12.764  18.201  0.00  0.00    +0.000 OA
ATOM     20  N   UNL     1       0.824  14.648  18.962  0.00  0.00    +0.000 N 
ATOM     21  C   UNL     1      -0.433  15.391  18.978  0.00  0.00    +0.000 C 
ATOM     22  C   UNL     1      -0.354  16.617  18.077  0.00  0.00    +0.000 C 
ATOM     23  C   UNL     1       0.847  17.501  18.439  0.00  0.00    +0.000 C 
ATOM     24  C   UNL     1       2.135  16.660  18.469  0.00  0.00    +0.000 C 
ATOM     25  C   UNL     1       2.004  15.418  19.352  0.00  0.00    +0.000 C 
BRANCH  23  26
ATOM     26  C   UNL     1       0.635  18.247  19.754  0.00  0.00    +0.000 C 
ATOM     27  N   UNL     1      -0.652  18.622  20.018  0.00  0.00    +0.000 N 
ATOM     28  O   UNL     1       1.534  18.526  20.541  0.00  0.00    +0.000 OA
ATOM     29  H   UNL     1      -1.385  18.586  19.326  0.00  0.00    +0.000 HD
ATOM     30  H   UNL     1      -0.802  19.173  20.853  0.00  0.00    +0.000 HD
ENDBRANCH  23  26
ENDBRANCH   8  18
BRANCH   1  35
ATOM     31  C   UNL     1       7.459   4.756  13.696  0.00  0.00    +0.000 C 
ATOM     32  C   UNL     1       6.659   5.255  14.862  0.00  0.00    +0.000 A 
ATOM     33  C   UNL     1       6.915   4.850  16.180  0.00  0.00    +0.000 A 
ATOM     34  C   UNL     1       6.078   5.252  17.238  0.00  0.00    +0.000 A 
ATOM     35  C   UNL     1       4.960   6.049  16.972  0.00  0.00    +0.000 A 
ATOM     36  C   UNL     1       4.789   6.554  15.677  0.00  0.00    +0.000 A 
ATOM     37  C   UNL     1       5.605   6.138  14.626  0.00  0.00    +0.000 A 
ENDBRANCH   1  35
TORSDOF 3
ENDMDL
MODEL 4
REMARK VINA RESULT:      -7.3      6.776      8.417
REMARK  Name = 
REMARK  6 active torsions:
REMARK  status: ('A' for Active; 'I' for Inactive)
REMARK    1  A    between atoms: C_1  and  C_2
REMARK    2  A    between atoms: C_5  and  N_6
REMARK    3  A    between atoms: C_13  and  C_14
REMARK    4  A    between atoms: C_19  and  C_20
REMARK    5  A    between atoms: C_29  and  C_30
REMARK    6  A    between atoms: C_32  and  C_33
REMARK                            x       y       z     vdW  Elec       q    Type
REMARK                         _______ _______ _______ _____ _____    ______ ____
ROOT
ATOM      1  N   UNL     1      -3.506  12.707  20.105  0.00  0.00    +0.000 N 
ATOM      2  N   UNL     1      -2.459  11.898  19.766  0.00  0.00    +0.000 NA
ATOM      3  C   UNL     1      -1.515  12.079  20.726  0.00  0.00    +0.000 A 
ATOM      4  C   UNL     1      -0.203  11.493  20.893  0.00  0.00    +0.000 A 
ATOM      5  N   UNL     1       0.437  10.582  20.080  0.00  0.00    +0.000 N 
ATOM      6  C   UNL     1       0.378  10.660  18.634  0.00  0.00    +0.000 C 
ATOM      7  C   UNL     1       0.082   9.253  18.117  0.00  0.00    +0.000 C 
ATOM      8  C   UNL     1       1.061   8.199  18.667  0.00  0.00    +0.000 C 
ATOM      9  C   UNL     1       1.285   8.341  20.186  0.00  0.00    +0.000 C 
ATOM     10  C   UNL     1       1.527   9.785  20.627  0.00  0.00    +0.000 C 
ATOM     11  N   UNL     1       0.381  11.874  22.079  0.00  0.00    +0.000 NA
ATOM     12  N   UNL     1      -0.189  12.773  23.060  0.00  0.00    +0.000 NA
ATOM     13  C   UNL     1      -1.406  13.357  22.924  0.00  0.00    +0.000 A 
ATOM     14  C   UNL     1      -1.859  14.250  24.024  0.00  0.00    +0.000 C 
ATOM     15  C   UNL     1      -2.048  12.978  21.733  0.00  0.00    +0.000 A 
ATOM     16  C   UNL     1      -3.319  13.331  21.335  0.00  0.00    +0.000 A 
ATOM     17  C   UNL     1      -4.386  14.095  22.044  0.00  0.00    +0.000 C 
ENDROOT
BRANCH   8  18
ATOM     18  C   UNL     1       2.413   8.212  17.949  0.00  0.00    +0.000 C 
ATOM     19  O   UNL     1       2.801   9.222  17.359  0.00  0.00    +0.000 OA
ATOM     20  N   UNL     1       3.199   7.072  18.007  0.00  0.00    +0.000 N 
ATOM     21  C   UNL     1       4.622   7.193  17.704  0.00  0.00    +0.000 C 
ATOM     22  C   UNL     1       5.048   6.164  16.664  0.00  0.00    +0.000 C 
ATOM     23  C   UNL     1       4.665   4.742  17.094  0.00  0.00    +0.000 C 
ATOM     24  C   UNL     1       3.172   4.683  17.461  0.00  0.00    +0.000 C 
ATOM     25  C   UNL     1       2.774   5.755  18.476  0.00  0.00    +0.000 C 
BRANCH  23  26
ATOM     26  C   UNL     1       5.541   4.231  18.235  0.00  0.00    +0.000 C 
ATOM     27  N   UNL     1       6.887   4.380  18.056  0.00  0.00    +0.000 N 
ATOM     28  O   UNL     1       5.108   3.699  19.252  0.00  0.00    +0.000 OA
ATOM     29  H   UNL     1       7.297   4.633  17.171  0.00  0.00    +0.000 HD
ATOM     30  H   UNL     1       7.486   3.990  18.772  0.00  0.00    +0.000 HD
ENDBRANCH  23  26
ENDBRANCH   8  18
BRANCH   1  35
ATOM     31  C   UNL     1      -7.765  13.547  16.361  0.00  0.00    +0.000 C 
ATOM     32  C   UNL     1      -6.755  13.227  17.423  0.00  0.00    +0.000 A 
ATOM     33  C   UNL     1      -6.795  13.806  18.699  0.00  0.00    +0.000 A 
ATOM     34  C   UNL     1      -5.771  13.569  19.635  0.00  0.00    +0.000 A 
ATOM     35  C   UNL     1      -4.683  12.763  19.283  0.00  0.00    +0.000 A 
ATOM     36  C   UNL     1      -4.719  12.088  18.056  0.00  0.00    +0.000 A 
ATOM     37  C   UNL     1      -5.722  12.340  17.122  0.00  0.00    +0.000 A 
ENDBRANCH   1  35
TORSDOF 3
ENDMDL
MODEL 5
REMARK VINA RESULT:      -7.3      1.834      2.367
REMARK  Name = 
REMARK  6 active torsions:
REMARK  status: ('A' for Active; 'I' for Inactive)
REMARK    1  A    between atoms: C_1  and  C_2
REMARK    2  A    between atoms: C_5  and  N_6
REMARK    3  A    between atoms: C_13  and  C_14
REMARK    4  A    between atoms: C_19  and  C_20
REMARK    5  A    between atoms: C_29  and  C_30
REMARK    6  A    between atoms: C_32  and  C_33
REMARK                            x       y       z     vdW  Elec       q    Type
REMARK                         _______ _______ _______ _____ _____    ______ ____
ROOT
ATOM      1  N   UNL     1       0.921  11.718  19.451  0.00  0.00    +0.000 N 
ATOM      2  N   UNL     1       1.940  12.628  19.482  0.00  0.00    +0.000 NA
ATOM      3  C   UNL     1       1.362  13.836  19.711  0.00  0.00    +0.000 A 
ATOM      4  C   UNL     1       1.937  15.157  19.843  0.00  0.00    +0.000 A 
ATOM      5  N   UNL     1       3.262  15.526  19.751  0.00  0.00    +0.000 N 
ATOM      6  C   UNL     1       4.157  14.959  18.763  0.00  0.00    +0.000 C 
ATOM      7  C   UNL     1       5.452  14.587  19.486  0.00  0.00    +0.000 C 
ATOM      8  C   UNL     1       6.040  15.761  20.291  0.00  0.00    +0.000 C 
ATOM      9  C   UNL     1       4.972  16.495  21.127  0.00  0.00    +0.000 C 
ATOM     10  C   UNL     1       3.690  16.785  20.345  0.00  0.00    +0.000 C 
ATOM     11  N   UNL     1       0.992  16.095  20.187  0.00  0.00    +0.000 NA
ATOM     12  N   UNL     1      -0.422  15.851  20.376  0.00  0.00    +0.000 NA
ATOM     13  C   UNL     1      -0.998  14.630  20.239  0.00  0.00    +0.000 A 
ATOM     14  C   UNL     1      -2.464  14.538  20.476  0.00  0.00    +0.000 C 
ATOM     15  C   UNL     1      -0.063  13.635  19.906  0.00  0.00    +0.000 A 
ATOM     16  C   UNL     1      -0.308  12.286  19.772  0.00  0.00    +0.000 A 
ATOM     17  C   UNL     1      -1.545  11.491  20.022  0.00  0.00    +0.000 C 
ENDROOT
BRANCH   8  18
ATOM     18  C   UNL     1       6.783  16.771  19.414  0.00  0.00    +0.000 C 
ATOM     19  O   UNL     1       6.200  17.758  18.962  0.00  0.00    +0.000 OA
ATOM     20  N   UNL     1       8.131  16.562  19.167  0.00  0.00    +0.000 N 
ATOM     21  C   UNL     1       8.936  17.689  18.703  0.00  0.00    +0.000 C 
ATOM     22  C   UNL     1       9.723  17.318  17.453  0.00  0.00    +0.000 C 
ATOM     23  C   UNL     1      10.566  16.056  17.676  0.00  0.00    +0.000 C 
ATOM     24  C   UNL     1       9.685  14.919  18.222  0.00  0.00    +0.000 C 
ATOM     25  C   UNL     1       8.880  15.340  19.452  0.00  0.00    +0.000 C 
BRANCH  23  26
ATOM     26  C   UNL     1      11.765  16.318  18.583  0.00  0.00    +0.000 C 
ATOM     27  N   UNL     1      12.331  15.210  19.148  0.00  0.00    +0.000 N 
ATOM     28  O   UNL     1      12.212  17.434  18.830  0.00  0.00    +0.000 OA
ATOM     29  H   UNL     1      11.892  14.303  19.130  0.00  0.00    +0.000 HD
ATOM     30  H   UNL     1      13.086  15.369  19.802  0.00  0.00    +0.000 HD
ENDBRANCH  23  26
ENDBRANCH   8  18
BRANCH   1  35
ATOM     31  C   UNL     1       2.801   6.337  18.841  0.00  0.00    +0.000 C 
ATOM     32  C   UNL     1       2.171   7.697  18.922  0.00  0.00    +0.000 A 
ATOM     33  C   UNL     1       2.119   8.568  17.825  0.00  0.00    +0.000 A 
ATOM     34  C   UNL     1       1.620   9.878  17.963  0.00  0.00    +0.000 A 
ATOM     35  C   UNL     1       1.190  10.327  19.216  0.00  0.00    +0.000 A 
ATOM     36  C   UNL     1       1.125   9.408  20.272  0.00  0.00    +0.000 A 
ATOM     37  C   UNL     1       1.639   8.119  20.140  0.00  0.00    +0.000 A 
ENDBRANCH   1  35
TORSDOF 3
ENDMDL
MODEL 6
REMARK VINA RESULT:      -7.2      5.548     10.270
REMARK  Name = 
REMARK  6 active torsions:
REMARK  status: ('A' for Active; 'I' for Inactive)
REMARK    1  A    between atoms: C_1  and  C_2
REMARK    2  A    between atoms: C_5  and  N_6
REMARK    3  A    between atoms: C_13  and  C_14
REMARK    4  A    between atoms: C_19  and  C_20
REMARK    5  A    between atoms: C_29  and  C_30
REMARK    6  A    between atoms: C_32  and  C_33
REMARK                            x       y       z     vdW  Elec       q    Type
REMARK                         _______ _______ _______ _____ _____    ______ ____
ROOT
ATOM      1  N   UNL     1       4.211   4.956  17.728  0.00  0.00    +0.000 N 
ATOM      2  N   UNL     1       3.606   6.159  17.965  0.00  0.00    +0.000 NA
ATOM      3  C   UNL     1       2.801   5.971  19.043  0.00  0.00    +0.000 A 
ATOM      4  C   UNL     1       1.921   6.882  19.743  0.00  0.00    +0.000 A 
ATOM      5  N   UNL     1       1.667   8.208  19.467  0.00  0.00    +0.000 N 
ATOM      6  C   UNL     1       1.514   8.702  18.113  0.00  0.00    +0.000 C 
ATOM      7  C   UNL     1       2.348   9.977  18.000  0.00  0.00    +0.000 C 
ATOM      8  C   UNL     1       2.017  11.002  19.102  0.00  0.00    +0.000 C 
ATOM      9  C   UNL     1       1.933  10.356  20.500  0.00  0.00    +0.000 C 
ATOM     10  C   UNL     1       1.124   9.060  20.517  0.00  0.00    +0.000 C 
ATOM     11  N   UNL     1       1.372   6.302  20.863  0.00  0.00    +0.000 NA
ATOM     12  N   UNL     1       1.588   4.945  21.315  0.00  0.00    +0.000 NA
ATOM     13  C   UNL     1       2.389   4.058  20.670  0.00  0.00    +0.000 A 
ATOM     14  C   UNL     1       2.519   2.701  21.265  0.00  0.00    +0.000 C 
ATOM     15  C   UNL     1       2.988   4.616  19.528  0.00  0.00    +0.000 A 
ATOM     16  C   UNL     1       3.909   4.009  18.702  0.00  0.00    +0.000 A 
ATOM     17  C   UNL     1       4.595   2.689  18.811  0.00  0.00    +0.000 C 
ENDROOT
BRANCH   8  18
ATOM     18  C   UNL     1       0.730  11.781  18.822  0.00  0.00    +0.000 C 
ATOM     19  O   UNL     1      -0.237  11.228  18.294  0.00  0.00    +0.000 OA
ATOM     20  N   UNL     1       0.669  13.111  19.206  0.00  0.00    +0.000 N 
ATOM     21  C   UNL     1      -0.643  13.740  19.334  0.00  0.00    +0.000 C 
ATOM     22  C   UNL     1      -0.699  15.048  18.557  0.00  0.00    +0.000 C 
ATOM     23  C   UNL     1       0.439  15.993  18.968  0.00  0.00    +0.000 C 
ATOM     24  C   UNL     1       1.791  15.265  18.875  0.00  0.00    +0.000 C 
ATOM     25  C   UNL     1       1.796  13.937  19.633  0.00  0.00    +0.000 C 
BRANCH  23  26
ATOM     26  C   UNL     1       0.218  16.588  20.356  0.00  0.00    +0.000 C 
ATOM     27  N   UNL     1      -1.063  16.968  20.637  0.00  0.00    +0.000 N 
ATOM     28  O   UNL     1       1.107  16.747  21.187  0.00  0.00    +0.000 OA
ATOM     29  H   UNL     1      -1.781  17.033  19.933  0.00  0.00    +0.000 HD
ATOM     30  H   UNL     1      -1.217  17.423  21.528  0.00  0.00    +0.000 HD
ENDBRANCH  23  26
ENDBRANCH   8  18
BRANCH   1  35
ATOM     31  C   UNL     1       7.635   5.163  13.136  0.00  0.00    +0.000 C 
ATOM     32  C   UNL     1       6.786   4.951  14.355  0.00  0.00    +0.000 A 
ATOM     33  C   UNL     1       5.569   4.258  14.313  0.00  0.00    +0.000 A 
ATOM     34  C   UNL     1       4.744   4.171  15.450  0.00  0.00    +0.000 A 
ATOM     35  C   UNL     1       5.132   4.803  16.636  0.00  0.00    +0.000 A 
ATOM     36  C   UNL     1       6.407   5.379  16.704  0.00  0.00    +0.000 A 
ATOM     37  C   UNL     1       7.213   5.484  15.571  0.00  0.00    +0.000 A 
ENDBRANCH   1  35
TORSDOF 3
ENDMDL
MODEL 7
REMARK VINA RESULT:      -7.1      0.861      1.192
REMARK  Name = 
REMARK  6 active torsions:
REMARK  status: ('A' for Active; 'I' for Inactive)
REMARK    1  A    between atoms: C_1  and  C_2
REMARK    2  A    between atoms: C_5  and  N_6
REMARK    3  A    between atoms: C_13  and  C_14
REMARK    4  A    between atoms: C_19  and  C_20
REMARK    5  A    between atoms: C_29  and  C_30
REMARK    6  A    between atoms: C_32  and  C_33
REMARK                            x       y       z     vdW  Elec       q    Type
REMARK                         _______ _______ _______ _____ _____    ______ ____
ROOT
ATOM      1  N   UNL     1       1.323  13.651  19.762  0.00  0.00    +0.000 N 
ATOM      2  N   UNL     1       2.606  14.121  19.781  0.00  0.00    +0.000 NA
ATOM      3  C   UNL     1       2.567  15.347  19.197  0.00  0.00    +0.000 A 
ATOM      4  C   UNL     1       3.615  16.312  18.938  0.00  0.00    +0.000 A 
ATOM      5  N   UNL     1       4.960  16.209  19.220  0.00  0.00    +0.000 N 
ATOM      6  C   UNL     1       5.700  14.977  19.032  0.00  0.00    +0.000 C 
ATOM      7  C   UNL     1       6.544  14.760  20.287  0.00  0.00    +0.000 C 
ATOM      8  C   UNL     1       7.409  15.984  20.641  0.00  0.00    +0.000 C 
ATOM      9  C   UNL     1       6.617  17.306  20.564  0.00  0.00    +0.000 C 
ATOM     10  C   UNL     1       5.762  17.423  19.303  0.00  0.00    +0.000 C 
ATOM     11  N   UNL     1       3.114  17.485  18.424  0.00  0.00    +0.000 NA
ATOM     12  N   UNL     1       1.725  17.763  18.129  0.00  0.00    +0.000 NA
ATOM     13  C   UNL     1       0.721  16.874  18.339  0.00  0.00    +0.000 A 
ATOM     14  C   UNL     1      -0.658  17.312  17.995  0.00  0.00    +0.000 C 
ATOM     15  C   UNL     1       1.186  15.665  18.884  0.00  0.00    +0.000 A 
ATOM     16  C   UNL     1       0.419  14.593  19.284  0.00  0.00    +0.000 A 
ATOM     17  C   UNL     1      -1.062  14.427  19.353  0.00  0.00    +0.000 C 
ENDROOT
BRANCH   8  18
ATOM     18  C   UNL     1       8.667  16.093  19.776  0.00  0.00    +0.000 C 
ATOM     19  O   UNL     1       9.155  17.193  19.512  0.00  0.00    +0.000 OA
ATOM     20  N   UNL     1       9.257  14.923  19.324  0.00  0.00    +0.000 N 
ATOM     21  C   UNL     1      10.644  14.975  18.870  0.00  0.00    +0.000 C 
ATOM     22  C   UNL     1      10.791  14.344  17.491  0.00  0.00    +0.000 C 
ATOM     23  C   UNL     1      10.224  12.918  17.465  0.00  0.00    +0.000 C 
ATOM     24  C   UNL     1       8.786  12.909  18.010  0.00  0.00    +0.000 C 
ATOM     25  C   UNL     1       8.671  13.586  19.376  0.00  0.00    +0.000 C 
BRANCH  23  26
ATOM     26  C   UNL     1      11.114  11.933  18.219  0.00  0.00    +0.000 C 
ATOM     27  N   UNL     1      10.462  10.899  18.830  0.00  0.00    +0.000 N 
ATOM     28  O   UNL     1      12.333  12.035  18.309  0.00  0.00    +0.000 OA
ATOM     29  H   UNL     1       9.461  10.875  18.945  0.00  0.00    +0.000 HD
ATOM     30  H   UNL     1      11.027  10.273  19.387  0.00  0.00    +0.000 HD
ENDBRANCH  23  26
ENDBRANCH   8  18
BRANCH   1  35
ATOM     31  C   UNL     1      -0.682   8.559  21.470  0.00  0.00    +0.000 C 
ATOM     32  C   UNL     1      -0.030   9.866  21.126  0.00  0.00    +0.000 A 
ATOM     33  C   UNL     1      -0.087  10.981  21.973  0.00  0.00    +0.000 A 
ATOM     34  C   UNL     1       0.441  12.223  21.572  0.00  0.00    +0.000 A 
ATOM     35  C   UNL     1       1.011  12.356  20.302  0.00  0.00    +0.000 A 
ATOM     36  C   UNL     1       1.180  11.207  19.519  0.00  0.00    +0.000 A 
ATOM     37  C   UNL     1       0.638   9.983  19.907  0.00  0.00    +0.000 A 
ENDBRANCH   1  35
TORSDOF 3
ENDMDL
MODEL 8
REMARK VINA RESULT:      -7.1      6.070      8.531
REMARK  Name = 
REMARK  6 active torsions:
REMARK  status: ('A' for Active; 'I' for Inactive)
REMARK    1  A    between atoms: C_1  and  C_2
REMARK    2  A    between atoms: C_5  and  N_6
REMARK    3  A    between atoms: C_13  and  C_14
REMARK    4  A    between atoms: C_19  and  C_20
REMARK    5  A    between atoms: C_29  and  C_30
REMARK    6  A    between atoms: C_32  and  C_33
REMARK                            x       y       z     vdW  Elec       q    Type
REMARK                         _______ _______ _______ _____ _____    ______ ____
ROOT
ATOM      1  N   UNL     1      -0.765  15.448  20.730  0.00  0.00    +0.000 N 
ATOM      2  N   UNL     1      -0.388  14.136  20.661  0.00  0.00    +0.000 NA
ATOM      3  C   UNL     1      -0.974  13.518  21.720  0.00  0.00    +0.000 A 
ATOM      4  C   UNL     1      -0.934  12.140  22.160  0.00  0.00    +0.000 A 
ATOM      5  N   UNL     1      -0.255  11.082  21.596  0.00  0.00    +0.000 N 
ATOM      6  C   UNL     1       1.088  11.217  21.068  0.00  0.00    +0.000 C 
ATOM      7  C   UNL     1       1.109  10.529  19.703  0.00  0.00    +0.000 C 
ATOM      8  C   UNL     1       0.580   9.083  19.759  0.00  0.00    +0.000 C 
ATOM      9  C   UNL     1      -0.728   8.966  20.569  0.00  0.00    +0.000 C 
ATOM     10  C   UNL     1      -0.683   9.722  21.897  0.00  0.00    +0.000 C 
ATOM     11  N   UNL     1      -1.772  11.920  23.228  0.00  0.00    +0.000 NA
ATOM     12  N   UNL     1      -2.590  12.913  23.890  0.00  0.00    +0.000 NA
ATOM     13  C   UNL     1      -2.635  14.217  23.518  0.00  0.00    +0.000 A 
ATOM     14  C   UNL     1      -3.534  15.115  24.290  0.00  0.00    +0.000 C 
ATOM     15  C   UNL     1      -1.807  14.484  22.414  0.00  0.00    +0.000 A 
ATOM     16  C   UNL     1      -1.685  15.683  21.747  0.00  0.00    +0.000 A 
ATOM     17  C   UNL     1      -2.421  16.969  21.912  0.00  0.00    +0.000 C 
ENDROOT
BRANCH   8  18
ATOM     18  C   UNL     1       1.610   8.094  20.309  0.00  0.00    +0.000 C 
ATOM     19  O   UNL     1       1.830   8.024  21.519  0.00  0.00    +0.000 OA
ATOM     20  N   UNL     1       2.264   7.261  19.415  0.00  0.00    +0.000 N 
ATOM     21  C   UNL     1       2.915   6.060  19.932  0.00  0.00    +0.000 C 
ATOM     22  C   UNL     1       4.358   5.972  19.451  0.00  0.00    +0.000 C 
ATOM     23  C   UNL     1       4.445   6.067  17.922  0.00  0.00    +0.000 C 
ATOM     24  C   UNL     1       3.692   7.312  17.423  0.00  0.00    +0.000 C 
ATOM     25  C   UNL     1       2.261   7.387  17.959  0.00  0.00    +0.000 C 
BRANCH  23  26
ATOM     26  C   UNL     1       3.940   4.798  17.239  0.00  0.00    +0.000 C 
ATOM     27  N   UNL     1       4.729   4.317  16.232  0.00  0.00    +0.000 N 
ATOM     28  O   UNL     1       2.894   4.227  17.531  0.00  0.00    +0.000 OA
ATOM     29  H   UNL     1       5.488   4.846  15.832  0.00  0.00    +0.000 HD
ATOM     30  H   UNL     1       4.379   3.515  15.725  0.00  0.00    +0.000 HD
ENDBRANCH  23  26
ENDBRANCH   8  18
BRANCH   1  35
ATOM     31  C   UNL     1       0.998  18.550  16.243  0.00  0.00    +0.000 C 
ATOM     32  C   UNL     1       0.572  17.870  17.511  0.00  0.00    +0.000 A 
ATOM     33  C   UNL     1       1.493  17.349  18.431  0.00  0.00    +0.000 A 
ATOM     34  C   UNL     1       1.062  16.621  19.556  0.00  0.00    +0.000 A 
ATOM     35  C   UNL     1      -0.305  16.392  19.750  0.00  0.00    +0.000 A 
ATOM     36  C   UNL     1      -1.219  17.027  18.899  0.00  0.00    +0.000 A 
ATOM     37  C   UNL     1      -0.790  17.729  17.774  0.00  0.00    +0.000 A 
ENDBRANCH   1  35
TORSDOF 3
ENDMDL
MODEL 9
REMARK VINA RESULT:      -7.1      2.542      3.346
REMARK  Name = 
REMARK  6 active torsions:
REMARK  status: ('A' for Active; 'I' for Inactive)
REMARK    1  A    between atoms: C_1  and  C_2
REMARK    2  A    between atoms: C_5  and  N_6
REMARK    3  A    between atoms: C_13  and  C_14
REMARK    4  A    between atoms: C_19  and  C_20
REMARK    5  A    between atoms: C_29  and  C_30
REMARK    6  A    between atoms: C_32  and  C_33
REMARK                            x       y       z     vdW  Elec       q    Type
REMARK                         _______ _______ _______ _____ _____    ______ ____
ROOT
ATOM      1  N   UNL     1      -0.246  13.007  19.926  0.00  0.00    +0.000 N 
ATOM      2  N   UNL     1       0.971  13.621  19.834  0.00  0.00    +0.000 NA
ATOM      3  C   UNL     1       1.072  14.425  20.925  0.00  0.00    +0.000 A 
ATOM      4  C   UNL     1       2.129  15.313  21.359  0.00  0.00    +0.000 A 
ATOM      5  N   UNL     1       3.332  15.577  20.740  0.00  0.00    +0.000 N 
ATOM      6  C   UNL     1       3.446  15.733  19.304  0.00  0.00    +0.000 C 
ATOM      7  C   UNL     1       4.652  14.909  18.853  0.00  0.00    +0.000 C 
ATOM      8  C   UNL     1       5.931  15.249  19.643  0.00  0.00    +0.000 C 
ATOM      9  C   UNL     1       5.680  15.328  21.163  0.00  0.00    +0.000 C 
ATOM     10  C   UNL     1       4.428  16.127  21.526  0.00  0.00    +0.000 C 
ATOM     11  N   UNL     1       1.865  15.857  22.594  0.00  0.00    +0.000 NA
ATOM     12  N   UNL     1       0.678  15.631  23.390  0.00  0.00    +0.000 NA
ATOM     13  C   UNL     1      -0.342  14.823  23.004  0.00  0.00    +0.000 A 
ATOM     14  C   UNL     1      -1.491  14.683  23.938  0.00  0.00    +0.000 C 
ATOM     15  C   UNL     1      -0.104  14.227  21.753  0.00  0.00    +0.000 A 
ATOM     16  C   UNL     1      -0.901  13.301  21.117  0.00  0.00    +0.000 A 
ATOM     17  C   UNL     1      -2.140  12.606  21.572  0.00  0.00    +0.000 C 
ENDROOT
BRANCH   8  18
ATOM     18  C   UNL     1       6.597  16.542  19.168  0.00  0.00    +0.000 C 
ATOM     19  O   UNL     1       5.924  17.551  18.950  0.00  0.00    +0.000 OA
ATOM     20  N   UNL     1       7.975  16.556  19.021  0.00  0.00    +0.000 N 
ATOM     21  C   UNL     1       8.657  17.847  18.981  0.00  0.00    +0.000 C 
ATOM     22  C   UNL     1       9.576  17.941  17.770  0.00  0.00    +0.000 C 
ATOM     23  C   UNL     1      10.559  16.763  17.721  0.00  0.00    +0.000 C 
ATOM     24  C   UNL     1       9.797  15.431  17.829  0.00  0.00    +0.000 C 
ATOM     25  C   UNL     1       8.855  15.390  19.033  0.00  0.00    +0.000 C 
BRANCH  23  26
ATOM     26  C   UNL     1      11.643  16.875  18.790  0.00  0.00    +0.000 C 
ATOM     27  N   UNL     1      12.318  15.720  19.069  0.00  0.00    +0.000 N 
ATOM     28  O   UNL     1      11.910  17.909  19.396  0.00  0.00    +0.000 OA
ATOM     29  H   UNL     1      12.014  14.817  18.742  0.00  0.00    +0.000 HD
ATOM     30  H   UNL     1      12.995  15.760  19.819  0.00  0.00    +0.000 HD
ENDBRANCH  23  26
ENDBRANCH   8  18
BRANCH   1  35
ATOM     31  C   UNL     1      -2.709   9.256  16.358  0.00  0.00    +0.000 C 
ATOM     32  C   UNL     1      -1.928  10.224  17.198  0.00  0.00    +0.000 A 
ATOM     33  C   UNL     1      -0.959   9.807  18.122  0.00  0.00    +0.000 A 
ATOM     34  C   UNL     1      -0.324  10.732  18.972  0.00  0.00    +0.000 A 
ATOM     35  C   UNL     1      -0.677  12.084  18.912  0.00  0.00    +0.000 A 
ATOM     36  C   UNL     1      -1.548  12.506  17.899  0.00  0.00    +0.000 A 
ATOM     37  C   UNL     1      -2.193  11.587  17.073  0.00  0.00    +0.000 A 
ENDBRANCH   1  35
TORSDOF 3
ENDMDL
