MODEL 1
REMARK VINA RESULT:      -7.8      0.000      0.000
REMARK  Name = 
REMARK  7 active torsions:
REMARK  status: ('A' for Active; 'I' for Inactive)
REMARK    1  A    between atoms: C_1  and  C_2
REMARK    2  A    between atoms: C_5  and  C_7
REMARK    3  A    between atoms: C_7  and  N_8
REMARK    4  A    between atoms: N_8  and  C_9
REMARK    5  A    between atoms: N_8  and  S_10
REMARK    6  A    between atoms: S_10  and  C_13
REMARK    7  A    between atoms: C_24  and  C_25
REMARK                            x       y       z     vdW  Elec       q    Type
REMARK                         _______ _______ _______ _____ _____    ______ ____
ROOT
ATOM      1  N   UNL     1       3.247   3.592  18.518  0.00  0.00    +0.000 NA
ATOM      2  C   UNL     1       2.624   2.576  17.630  0.00  0.00    +0.000 C 
ENDROOT
BRANCH   1   3
ATOM      3  S   UNL     1       2.182   4.086  19.781  0.00  0.00    +0.000 S 
ATOM      4  O   UNL     1       0.882   3.522  19.514  0.00  0.00    +0.000 OA
ATOM      5  O   UNL     1       2.863   3.853  21.032  0.00  0.00    +0.000 OA
BRANCH   3   6
ATOM      6  C   UNL     1       2.033   5.841  19.535  0.00  0.00    +0.000 A 
ATOM      7  C   UNL     1       2.374   6.403  18.305  0.00  0.00    +0.000 A 
ATOM      8  C   UNL     1       2.219   7.778  18.114  0.00  0.00    +0.000 A 
ATOM      9  C   UNL     1       1.725   8.599  19.141  0.00  0.00    +0.000 A 
ATOM     10  C   UNL     1       1.503   9.970  18.937  0.00  0.00    +0.000 A 
ATOM     11  C   UNL     1       0.965  10.769  19.950  0.00  0.00    +0.000 A 
ATOM     12  C   UNL     1       0.684  10.213  21.193  0.00  0.00    +0.000 A 
ATOM     13  C   UNL     1       0.948   8.864  21.428  0.00  0.00    +0.000 A 
ATOM     14  C   UNL     1       1.431   8.029  20.402  0.00  0.00    +0.000 A 
ATOM     15  C   UNL     1       1.592   6.647  20.589  0.00  0.00    +0.000 A 
ENDBRANCH   3   6
ENDBRANCH   1   3
BRANCH   1  16
ATOM     16  C   UNL     1       4.581   3.149  19.021  0.00  0.00    +0.000 C 
BRANCH  16  21
ATOM     17  C   UNL     1       5.773   7.357  16.981  0.00  0.00    +0.000 C 
ATOM     18  C   UNL     1       6.972   6.489  16.591  0.00  0.00    +0.000 C 
ATOM     19  C   UNL     1       7.358   5.478  17.681  0.00  0.00    +0.000 C 
ATOM     20  N   UNL     1       6.360   4.414  17.779  0.00  0.00    +0.000 N 
ATOM     21  C   UNL     1       5.677   4.208  18.966  0.00  0.00    +0.000 C 
ATOM     22  O   UNL     1       5.919   4.885  19.969  0.00  0.00    +0.000 OA
ATOM     23  C   UNL     1       6.105   3.751  16.502  0.00  0.00    +0.000 C 
ATOM     24  C   UNL     1       5.759   4.790  15.417  0.00  0.00    +0.000 C 
ATOM     25  C   UNL     1       5.686   4.146  14.050  0.00  0.00    +0.000 C 
ATOM     26  O   UNL     1       6.744   5.828  15.338  0.00  0.00    +0.000 OA
ENDBRANCH  16  21
ENDBRANCH   1  16
TORSDOF 4
ENDMDL
MODEL 2
REMARK VINA RESULT:      -7.3      0.687      1.551
REMARK  Name = 
REMARK  7 active torsions:
REMARK  status: ('A' for Active; 'I' for Inactive)
REMARK    1  A    between atoms: C_1  and  C_2
REMARK    2  A    between atoms: C_5  and  C_7
REMARK    3  A    between atoms: C_7  and  N_8
REMARK    4  A    between atoms: N_8  and  C_9
REMARK    5  A    between atoms: N_8  and  S_10
REMARK    6  A    between atoms: S_10  and  C_13
REMARK    7  A    between atoms: C_24  and  C_25
REMARK                            x       y       z     vdW  Elec       q    Type
REMARK                         _______ _______ _______ _____ _____    ______ ____
ROOT
ATOM      1  N   UNL     1       3.340   3.634  18.400  0.00  0.00    +0.000 NA
ATOM      2  C   UNL     1       2.735   2.845  17.296  0.00  0.00    +0.000 C 
ENDROOT
BRANCH   1   3
ATOM      3  S   UNL     1       2.279   3.773  19.752  0.00  0.00    +0.000 S 
ATOM      4  O   UNL     1       1.036   3.127  19.411  0.00  0.00    +0.000 OA
ATOM      5  O   UNL     1       3.029   3.394  20.926  0.00  0.00    +0.000 OA
BRANCH   3   6
ATOM      6  C   UNL     1       1.939   5.516  19.835  0.00  0.00    +0.000 A 
ATOM      7  C   UNL     1       1.402   6.066  20.998  0.00  0.00    +0.000 A 
ATOM      8  C   UNL     1       1.173   7.443  21.062  0.00  0.00    +0.000 A 
ATOM      9  C   UNL     1       1.476   8.277  19.973  0.00  0.00    +0.000 A 
ATOM     10  C   UNL     1       1.311   9.669  20.052  0.00  0.00    +0.000 A 
ATOM     11  C   UNL     1       1.661  10.495  18.980  0.00  0.00    +0.000 A 
ATOM     12  C   UNL     1       2.140   9.933  17.801  0.00  0.00    +0.000 A 
ATOM     13  C   UNL     1       2.260   8.548  17.689  0.00  0.00    +0.000 A 
ATOM     14  C   UNL     1       1.970   7.703  18.778  0.00  0.00    +0.000 A 
ATOM     15  C   UNL     1       2.196   6.319  18.719  0.00  0.00    +0.000 A 
ENDBRANCH   3   6
ENDBRANCH   1   3
BRANCH   1  16
ATOM     16  C   UNL     1       4.693   3.124  18.771  0.00  0.00    +0.000 C 
BRANCH  16  21
ATOM     17  C   UNL     1       6.084   7.491  17.259  0.00  0.00    +0.000 C 
ATOM     18  C   UNL     1       7.351   6.672  17.001  0.00  0.00    +0.000 C 
ATOM     19  C   UNL     1       7.587   5.586  18.062  0.00  0.00    +0.000 C 
ATOM     20  N   UNL     1       6.612   4.504  17.922  0.00  0.00    +0.000 N 
ATOM     21  C   UNL     1       5.758   4.199  18.968  0.00  0.00    +0.000 C 
ATOM     22  O   UNL     1       5.821   4.802  20.043  0.00  0.00    +0.000 OA
ATOM     23  C   UNL     1       6.578   3.937  16.577  0.00  0.00    +0.000 C 
ATOM     24  C   UNL     1       6.381   5.051  15.529  0.00  0.00    +0.000 C 
ATOM     25  C   UNL     1       6.540   4.511  14.124  0.00  0.00    +0.000 C 
ATOM     26  O   UNL     1       7.340   6.105  15.683  0.00  0.00    +0.000 OA
ENDBRANCH  16  21
ENDBRANCH   1  16
TORSDOF 4
ENDMDL
MODEL 3
REMARK VINA RESULT:      -7.0      2.240      5.668
REMARK  Name = 
REMARK  7 active torsions:
REMARK  status: ('A' for Active; 'I' for Inactive)
REMARK    1  A    between atoms: C_1  and  C_2
REMARK    2  A    between atoms: C_5  and  C_7
REMARK    3  A    between atoms: C_7  and  N_8
REMARK    4  A    between atoms: N_8  and  C_9
REMARK    5  A    between atoms: N_8  and  S_10
REMARK    6  A    between atoms: S_10  and  C_13
REMARK    7  A    between atoms: C_24  and  C_25
REMARK                            x       y       z     vdW  Elec       q    Type
REMARK                         _______ _______ _______ _____ _____    ______ ____
ROOT
ATOM      1  N   UNL     1       1.885   3.097  19.241  0.00  0.00    +0.000 NA
ATOM      2  C   UNL     1       0.913   2.383  18.373  0.00  0.00    +0.000 C 
ENDROOT
BRANCH   1   3
ATOM      3  S   UNL     1       3.474   2.441  19.109  0.00  0.00    +0.000 S 
ATOM      4  O   UNL     1       3.990   2.254  20.442  0.00  0.00    +0.000 OA
ATOM      5  O   UNL     1       3.411   1.352  18.164  0.00  0.00    +0.000 OA
BRANCH   3   6
ATOM      6  C   UNL     1       4.411   3.767  18.384  0.00  0.00    +0.000 A 
ATOM      7  C   UNL     1       4.006   4.324  17.171  0.00  0.00    +0.000 A 
ATOM      8  C   UNL     1       4.731   5.389  16.631  0.00  0.00    +0.000 A 
ATOM      9  C   UNL     1       5.859   5.904  17.290  0.00  0.00    +0.000 A 
ATOM     10  C   UNL     1       6.554   7.016  16.789  0.00  0.00    +0.000 A 
ATOM     11  C   UNL     1       7.645   7.550  17.478  0.00  0.00    +0.000 A 
ATOM     12  C   UNL     1       8.081   6.952  18.656  0.00  0.00    +0.000 A 
ATOM     13  C   UNL     1       7.432   5.816  19.139  0.00  0.00    +0.000 A 
ATOM     14  C   UNL     1       6.294   5.298  18.493  0.00  0.00    +0.000 A 
ATOM     15  C   UNL     1       5.563   4.227  19.030  0.00  0.00    +0.000 A 
ENDBRANCH   3   6
ENDBRANCH   1   3
BRANCH   1  16
ATOM     16  C   UNL     1       1.844   4.574  19.023  0.00  0.00    +0.000 C 
BRANCH  16  21
ATOM     17  C   UNL     1      -0.416   8.203  21.263  0.00  0.00    +0.000 C 
ATOM     18  C   UNL     1       1.022   8.724  21.234  0.00  0.00    +0.000 C 
ATOM     19  C   UNL     1       2.066   7.610  21.405  0.00  0.00    +0.000 C 
ATOM     20  N   UNL     1       2.129   6.769  20.209  0.00  0.00    +0.000 N 
ATOM     21  C   UNL     1       1.855   5.415  20.296  0.00  0.00    +0.000 C 
ATOM     22  O   UNL     1       1.590   4.884  21.378  0.00  0.00    +0.000 OA
ATOM     23  C   UNL     1       2.361   7.534  18.987  0.00  0.00    +0.000 C 
ATOM     24  C   UNL     1       1.326   8.670  18.859  0.00  0.00    +0.000 C 
ATOM     25  C   UNL     1       1.668   9.591  17.707  0.00  0.00    +0.000 C 
ATOM     26  O   UNL     1       1.273   9.480  20.040  0.00  0.00    +0.000 OA
ENDBRANCH  16  21
ENDBRANCH   1  16
TORSDOF 4
ENDMDL
MODEL 4
REMARK VINA RESULT:      -6.8      3.968      5.579
REMARK  Name = 
REMARK  7 active torsions:
REMARK  status: ('A' for Active; 'I' for Inactive)
REMARK    1  A    between atoms: C_1  and  C_2
REMARK    2  A    between atoms: C_5  and  C_7
REMARK    3  A    between atoms: C_7  and  N_8
REMARK    4  A    between atoms: N_8  and  C_9
REMARK    5  A    between atoms: N_8  and  S_10
REMARK    6  A    between atoms: S_10  and  C_13
REMARK    7  A    between atoms: C_24  and  C_25
REMARK                            x       y       z     vdW  Elec       q    Type
REMARK                         _______ _______ _______ _____ _____    ______ ____
ROOT
ATOM      1  N   UNL     1       0.765   8.474  20.419  0.00  0.00    +0.000 NA
ATOM      2  C   UNL     1       0.018   8.445  21.702  0.00  0.00    +0.000 C 
ENDROOT
BRANCH   1   3
ATOM      3  S   UNL     1       1.031  10.084  19.861  0.00  0.00    +0.000 S 
ATOM      4  O   UNL     1       1.242  10.925  21.012  0.00  0.00    +0.000 OA
ATOM      5  O   UNL     1       1.997  10.012  18.791  0.00  0.00    +0.000 OA
BRANCH   3   6
ATOM      6  C   UNL     1      -0.542  10.549  19.174  0.00  0.00    +0.000 A 
ATOM      7  C   UNL     1      -1.375  11.422  19.872  0.00  0.00    +0.000 A 
ATOM      8  C   UNL     1      -2.592  11.808  19.304  0.00  0.00    +0.000 A 
ATOM      9  C   UNL     1      -2.986  11.328  18.044  0.00  0.00    +0.000 A 
ATOM     10  C   UNL     1      -4.176  11.761  17.437  0.00  0.00    +0.000 A 
ATOM     11  C   UNL     1      -4.534  11.315  16.162  0.00  0.00    +0.000 A 
ATOM     12  C   UNL     1      -3.728  10.398  15.498  0.00  0.00    +0.000 A 
ATOM     13  C   UNL     1      -2.570   9.919  16.110  0.00  0.00    +0.000 A 
ATOM     14  C   UNL     1      -2.159  10.401  17.367  0.00  0.00    +0.000 A 
ATOM     15  C   UNL     1      -0.938  10.016  17.943  0.00  0.00    +0.000 A 
ENDBRANCH   3   6
ENDBRANCH   1   3
BRANCH   1  16
ATOM     16  C   UNL     1       2.020   7.666  20.486  0.00  0.00    +0.000 C 
BRANCH  16  21
ATOM     17  C   UNL     1       4.542   3.713  19.346  0.00  0.00    +0.000 C 
ATOM     18  C   UNL     1       3.667   3.874  18.101  0.00  0.00    +0.000 C 
ATOM     19  C   UNL     1       2.262   4.408  18.422  0.00  0.00    +0.000 C 
ATOM     20  N   UNL     1       2.320   5.816  18.815  0.00  0.00    +0.000 N 
ATOM     21  C   UNL     1       1.873   6.207  20.065  0.00  0.00    +0.000 C 
ATOM     22  O   UNL     1       1.387   5.393  20.856  0.00  0.00    +0.000 OA
ATOM     23  C   UNL     1       2.997   6.656  17.831  0.00  0.00    +0.000 C 
ATOM     24  C   UNL     1       4.386   6.076  17.496  0.00  0.00    +0.000 C 
ATOM     25  C   UNL     1       5.021   6.818  16.339  0.00  0.00    +0.000 C 
ATOM     26  O   UNL     1       4.313   4.696  17.118  0.00  0.00    +0.000 OA
ENDBRANCH  16  21
ENDBRANCH   1  16
TORSDOF 4
ENDMDL
MODEL 5
REMARK VINA RESULT:      -6.8      2.648      7.256
REMARK  Name = 
REMARK  7 active torsions:
REMARK  status: ('A' for Active; 'I' for Inactive)
REMARK    1  A    between atoms: C_1  and  C_2
REMARK    2  A    between atoms: C_5  and  C_7
REMARK    3  A    between atoms: C_7  and  N_8
REMARK    4  A    between atoms: N_8  and  C_9
REMARK    5  A    between atoms: N_8  and  S_10
REMARK    6  A    between atoms: S_10  and  C_13
REMARK    7  A    between atoms: C_24  and  C_25
REMARK                            x       y       z     vdW  Elec       q    Type
REMARK                         _______ _______ _______ _____ _____    ______ ____
ROOT
ATOM      1  N   UNL     1       4.351   6.424  18.002  0.00  0.00    +0.000 NA
ATOM      2  C   UNL     1       3.749   7.692  17.516  0.00  0.00    +0.000 C 
ENDROOT
BRANCH   1   3
ATOM      3  S   UNL     1       6.027   6.314  17.614  0.00  0.00    +0.000 S 
ATOM      4  O   UNL     1       6.486   7.630  17.245  0.00  0.00    +0.000 OA
ATOM      5  O   UNL     1       6.662   5.562  18.670  0.00  0.00    +0.000 OA
BRANCH   3   6
ATOM      6  C   UNL     1       6.046   5.335  16.131  0.00  0.00    +0.000 A 
ATOM      7  C   UNL     1       5.189   4.241  16.007  0.00  0.00    +0.000 A 
ATOM      8  C   UNL     1       5.189   3.502  14.822  0.00  0.00    +0.000 A 
ATOM      9  C   UNL     1       6.038   3.844  13.756  0.00  0.00    +0.000 A 
ATOM     10  C   UNL     1       5.997   3.149  12.538  0.00  0.00    +0.000 A 
ATOM     11  C   UNL     1       6.812   3.528  11.467  0.00  0.00    +0.000 A 
ATOM     12  C   UNL     1       7.706   4.582  11.618  0.00  0.00    +0.000 A 
ATOM     13  C   UNL     1       7.795   5.250  12.839  0.00  0.00    +0.000 A 
ATOM     14  C   UNL     1       6.941   4.923  13.910  0.00  0.00    +0.000 A 
ATOM     15  C   UNL     1       6.938   5.660  15.104  0.00  0.00    +0.000 A 
ENDBRANCH   3   6
ENDBRANCH   1   3
BRANCH   1  16
ATOM     16  C   UNL     1       4.071   6.195  19.451  0.00  0.00    +0.000 C 
BRANCH  16  21
ATOM     17  C   UNL     1       1.635   2.711  21.736  0.00  0.00    +0.000 C 
ATOM     18  C   UNL     1       1.062   2.593  20.322  0.00  0.00    +0.000 C 
ATOM     19  C   UNL     1       0.929   3.951  19.616  0.00  0.00    +0.000 C 
ATOM     20  N   UNL     1       2.244   4.482  19.259  0.00  0.00    +0.000 N 
ATOM     21  C   UNL     1       2.664   5.699  19.768  0.00  0.00    +0.000 C 
ATOM     22  O   UNL     1       1.932   6.375  20.496  0.00  0.00    +0.000 OA
ATOM     23  C   UNL     1       3.043   3.547  18.471  0.00  0.00    +0.000 C 
ATOM     24  C   UNL     1       3.127   2.181  19.181  0.00  0.00    +0.000 C 
ATOM     25  C   UNL     1       3.780   1.145  18.292  0.00  0.00    +0.000 C 
ATOM     26  O   UNL     1       1.831   1.678  19.528  0.00  0.00    +0.000 OA
ENDBRANCH  16  21
ENDBRANCH   1  16
TORSDOF 4
ENDMDL
MODEL 6
REMARK VINA RESULT:      -6.7      1.976      4.675
REMARK  Name = 
REMARK  7 active torsions:
REMARK  status: ('A' for Active; 'I' for Inactive)
REMARK    1  A    between atoms: C_1  and  C_2
REMARK    2  A    between atoms: C_5  and  C_7
REMARK    3  A    between atoms: C_7  and  N_8
REMARK    4  A    between atoms: N_8  and  C_9
REMARK    5  A    between atoms: N_8  and  S_10
REMARK    6  A    between atoms: S_10  and  C_13
REMARK    7  A    between atoms: C_24  and  C_25
REMARK                            x       y       z     vdW  Elec       q    Type
REMARK                         _______ _______ _______ _____ _____    ______ ____
ROOT
ATOM      1  N   UNL     1       4.900   4.914  17.667  0.00  0.00    +0.000 NA
ATOM      2  C   UNL     1       6.292   4.404  17.755  0.00  0.00    +0.000 C 
ENDROOT
BRANCH   1   3
ATOM      3  S   UNL     1       4.845   6.554  17.139  0.00  0.00    +0.000 S 
ATOM      4  O   UNL     1       6.056   7.203  17.574  0.00  0.00    +0.000 OA
ATOM      5  O   UNL     1       4.450   6.544  15.751  0.00  0.00    +0.000 OA
BRANCH   3   6
ATOM      6  C   UNL     1       3.522   7.254  18.099  0.00  0.00    +0.000 A 
ATOM      7  C   UNL     1       3.160   6.673  19.314  0.00  0.00    +0.000 A 
ATOM      8  C   UNL     1       2.143   7.255  20.075  0.00  0.00    +0.000 A 
ATOM      9  C   UNL     1       1.481   8.412  19.633  0.00  0.00    +0.000 A 
ATOM     10  C   UNL     1       0.504   9.040  20.421  0.00  0.00    +0.000 A 
ATOM     11  C   UNL     1      -0.114  10.219  19.994  0.00  0.00    +0.000 A 
ATOM     12  C   UNL     1       0.209  10.759  18.753  0.00  0.00    +0.000 A 
ATOM     13  C   UNL     1       1.140  10.117  17.937  0.00  0.00    +0.000 A 
ATOM     14  C   UNL     1       1.818   8.964  18.374  0.00  0.00    +0.000 A 
ATOM     15  C   UNL     1       2.839   8.374  17.613  0.00  0.00    +0.000 A 
ENDBRANCH   3   6
ENDBRANCH   1   3
BRANCH   1  16
ATOM     16  C   UNL     1       4.027   4.012  16.858  0.00  0.00    +0.000 C 
BRANCH  16  21
ATOM     17  C   UNL     1       1.695   4.045  21.083  0.00  0.00    +0.000 C 
ATOM     18  C   UNL     1       1.674   2.553  20.746  0.00  0.00    +0.000 C 
ATOM     19  C   UNL     1       1.525   2.282  19.241  0.00  0.00    +0.000 C 
ATOM     20  N   UNL     1       2.751   2.635  18.526  0.00  0.00    +0.000 N 
ATOM     21  C   UNL     1       2.723   3.598  17.532  0.00  0.00    +0.000 C 
ATOM     22  O   UNL     1       1.668   4.149  17.204  0.00  0.00    +0.000 OA
ATOM     23  C   UNL     1       3.938   1.981  19.071  0.00  0.00    +0.000 C 
ATOM     24  C   UNL     1       4.042   2.235  20.588  0.00  0.00    +0.000 C 
ATOM     25  C   UNL     1       5.149   1.407  21.203  0.00  0.00    +0.000 C 
ATOM     26  O   UNL     1       2.831   1.888  21.273  0.00  0.00    +0.000 OA
ENDBRANCH  16  21
ENDBRANCH   1  16
TORSDOF 4
ENDMDL
MODEL 7
REMARK VINA RESULT:      -6.7      4.101      5.496
REMARK  Name = 
REMARK  7 active torsions:
REMARK  status: ('A' for Active; 'I' for Inactive)
REMARK    1  A    between atoms: C_1  and  C_2
REMARK    2  A    between atoms: C_5  and  C_7
REMARK    3  A    between atoms: C_7  and  N_8
REMARK    4  A    between atoms: N_8  and  C_9
REMARK    5  A    between atoms: N_8  and  S_10
REMARK    6  A    between atoms: S_10  and  C_13
REMARK    7  A    between atoms: C_24  and  C_25
REMARK                            x       y       z     vdW  Elec       q    Type
REMARK                         _______ _______ _______ _____ _____    ______ ____
ROOT
ATOM      1  N   UNL     1       0.924   8.767  19.936  0.00  0.00    +0.000 NA
ATOM      2  C   UNL     1       0.484   9.171  21.296  0.00  0.00    +0.000 C 
ENDROOT
BRANCH   1   3
ATOM      3  S   UNL     1       1.001  10.109  18.855  0.00  0.00    +0.000 S 
ATOM      4  O   UNL     1       1.462  11.254  19.600  0.00  0.00    +0.000 OA
ATOM      5  O   UNL     1       1.679   9.660  17.663  0.00  0.00    +0.000 OA
BRANCH   3   6
ATOM      6  C   UNL     1      -0.704  10.417  18.455  0.00  0.00    +0.000 A 
ATOM      7  C   UNL     1      -1.296   9.758  17.378  0.00  0.00    +0.000 A 
ATOM      8  C   UNL     1      -2.647   9.982  17.097  0.00  0.00    +0.000 A 
ATOM      9  C   UNL     1      -3.412  10.860  17.882  0.00  0.00    +0.000 A 
ATOM     10  C   UNL     1      -4.784  11.042  17.647  0.00  0.00    +0.000 A 
ATOM     11  C   UNL     1      -5.547  11.880  18.464  0.00  0.00    +0.000 A 
ATOM     12  C   UNL     1      -4.937  12.581  19.499  0.00  0.00    +0.000 A 
ATOM     13  C   UNL     1      -3.564  12.451  19.712  0.00  0.00    +0.000 A 
ATOM     14  C   UNL     1      -2.789  11.565  18.939  0.00  0.00    +0.000 A 
ATOM     15  C   UNL     1      -1.432  11.337  19.216  0.00  0.00    +0.000 A 
ENDBRANCH   3   6
ENDBRANCH   1   3
BRANCH   1  16
ATOM     16  C   UNL     1       2.189   7.975  19.972  0.00  0.00    +0.000 C 
BRANCH  16  21
ATOM     17  C   UNL     1       4.645   3.857  19.424  0.00  0.00    +0.000 C 
ATOM     18  C   UNL     1       3.777   3.852  18.164  0.00  0.00    +0.000 C 
ATOM     19  C   UNL     1       2.381   4.450  18.398  0.00  0.00    +0.000 C 
ATOM     20  N   UNL     1       2.462   5.899  18.585  0.00  0.00    +0.000 N 
ATOM     21  C   UNL     1       2.018   6.473  19.764  0.00  0.00    +0.000 C 
ATOM     22  O   UNL     1       1.516   5.789  20.660  0.00  0.00    +0.000 OA
ATOM     23  C   UNL     1       3.157   6.577  17.494  0.00  0.00    +0.000 C 
ATOM     24  C   UNL     1       4.536   5.933  17.253  0.00  0.00    +0.000 C 
ATOM     25  C   UNL     1       5.187   6.489  16.005  0.00  0.00    +0.000 C 
ATOM     26  O   UNL     1       4.440   4.514  17.077  0.00  0.00    +0.000 OA
ENDBRANCH  16  21
ENDBRANCH   1  16
TORSDOF 4
ENDMDL
MODEL 8
REMARK VINA RESULT:      -6.6      4.297      6.226
REMARK  Name = 
REMARK  7 active torsions:
REMARK  status: ('A' for Active; 'I' for Inactive)
REMARK    1  A    between atoms: C_1  and  C_2
REMARK    2  A    between atoms: C_5  and  C_7
REMARK    3  A    between atoms: C_7  and  N_8
REMARK    4  A    between atoms: N_8  and  C_9
REMARK    5  A    between atoms: N_8  and  S_10
REMARK    6  A    between atoms: S_10  and  C_13
REMARK    7  A    between atoms: C_24  and  C_25
REMARK                            x       y       z     vdW  Elec       q    Type
REMARK                         _______ _______ _______ _____ _____    ______ ____
ROOT
ATOM      1  N   UNL     1       0.410   8.646  20.515  0.00  0.00    +0.000 NA
ATOM      2  C   UNL     1      -0.580   8.158  21.509  0.00  0.00    +0.000 C 
ENDROOT
BRANCH   1   3
ATOM      3  S   UNL     1       0.403  10.365  20.384  0.00  0.00    +0.000 S 
ATOM      4  O   UNL     1       0.069  10.908  21.678  0.00  0.00    +0.000 OA
ATOM      5  O   UNL     1       1.611  10.748  19.694  0.00  0.00    +0.000 OA
BRANCH   3   6
ATOM      6  C   UNL     1      -0.985  10.694  19.323  0.00  0.00    +0.000 A 
ATOM      7  C   UNL     1      -1.966  11.602  19.720  0.00  0.00    +0.000 A 
ATOM      8  C   UNL     1      -3.032  11.878  18.860  0.00  0.00    +0.000 A 
ATOM      9  C   UNL     1      -3.129  11.255  17.606  0.00  0.00    +0.000 A 
ATOM     10  C   UNL     1      -4.160  11.575  16.708  0.00  0.00    +0.000 A 
ATOM     11  C   UNL     1      -4.220  10.984  15.443  0.00  0.00    +0.000 A 
ATOM     12  C   UNL     1      -3.272  10.034  15.077  0.00  0.00    +0.000 A 
ATOM     13  C   UNL     1      -2.272   9.668  15.977  0.00  0.00    +0.000 A 
ATOM     14  C   UNL     1      -2.158  10.295  17.233  0.00  0.00    +0.000 A 
ATOM     15  C   UNL     1      -1.090  10.020  18.101  0.00  0.00    +0.000 A 
ENDBRANCH   3   6
ENDBRANCH   1   3
BRANCH   1  16
ATOM     16  C   UNL     1       1.772   8.087  20.765  0.00  0.00    +0.000 C 
BRANCH  16  21
ATOM     17  C   UNL     1       1.098   4.508  17.597  0.00  0.00    +0.000 C 
ATOM     18  C   UNL     1       2.449   4.117  18.202  0.00  0.00    +0.000 C 
ATOM     19  C   UNL     1       3.325   5.332  18.543  0.00  0.00    +0.000 C 
ATOM     20  N   UNL     1       2.787   6.053  19.696  0.00  0.00    +0.000 N 
ATOM     21  C   UNL     1       2.409   7.379  19.573  0.00  0.00    +0.000 C 
ATOM     22  O   UNL     1       2.551   7.988  18.509  0.00  0.00    +0.000 OA
ATOM     23  C   UNL     1       2.586   5.195  20.862  0.00  0.00    +0.000 C 
ATOM     24  C   UNL     1       1.738   3.964  20.483  0.00  0.00    +0.000 C 
ATOM     25  C   UNL     1       1.685   2.969  21.622  0.00  0.00    +0.000 C 
ATOM     26  O   UNL     1       2.276   3.273  19.349  0.00  0.00    +0.000 OA
ENDBRANCH  16  21
ENDBRANCH   1  16
TORSDOF 4
ENDMDL
MODEL 9
REMARK VINA RESULT:      -6.6      1.452      2.645
REMARK  Name = 
REMARK  7 active torsions:
REMARK  status: ('A' for Active; 'I' for Inactive)
REMARK    1  A    between atoms: C_1  and  C_2
REMARK    2  A    between atoms: C_5  and  C_7
REMARK    3  A    between atoms: C_7  and  N_8
REMARK    4  A    between atoms: N_8  and  C_9
REMARK    5  A    between atoms: N_8  and  S_10
REMARK    6  A    between atoms: S_10  and  C_13
REMARK    7  A    between atoms: C_24  and  C_25
REMARK                            x       y       z     vdW  Elec       q    Type
REMARK                         _______ _______ _______ _____ _____    ______ ____
ROOT
ATOM      1  N   UNL     1       2.199   3.567  18.919  0.00  0.00    +0.000 NA
ATOM      2  C   UNL     1       1.253   2.422  18.881  0.00  0.00    +0.000 C 
ENDROOT
BRANCH   1   3
ATOM      3  S   UNL     1       2.362   4.217  20.507  0.00  0.00    +0.000 S 
ATOM      4  O   UNL     1       1.347   3.621  21.340  0.00  0.00    +0.000 OA
ATOM      5  O   UNL     1       3.761   4.149  20.856  0.00  0.00    +0.000 OA
BRANCH   3   6
ATOM      6  C   UNL     1       1.913   5.926  20.304  0.00  0.00    +0.000 A 
ATOM      7  C   UNL     1       1.201   6.582  21.307  0.00  0.00    +0.000 A 
ATOM      8  C   UNL     1       0.885   7.934  21.149  0.00  0.00    +0.000 A 
ATOM      9  C   UNL     1       1.274   8.638  19.997  0.00  0.00    +0.000 A 
ATOM     10  C   UNL     1       1.019  10.012  19.860  0.00  0.00    +0.000 A 
ATOM     11  C   UNL     1       1.453  10.712  18.732  0.00  0.00    +0.000 A 
ATOM     12  C   UNL     1       2.110  10.038  17.708  0.00  0.00    +0.000 A 
ATOM     13  C   UNL     1       2.324   8.663  17.807  0.00  0.00    +0.000 A 
ATOM     14  C   UNL     1       1.949   7.950  18.961  0.00  0.00    +0.000 A 
ATOM     15  C   UNL     1       2.262   6.592  19.124  0.00  0.00    +0.000 A 
ENDBRANCH   3   6
ENDBRANCH   1   3
BRANCH   1  16
ATOM     16  C   UNL     1       3.510   3.227  18.290  0.00  0.00    +0.000 C 
BRANCH  16  21
ATOM     17  C   UNL     1       7.110   4.231  15.236  0.00  0.00    +0.000 C 
ATOM     18  C   UNL     1       6.733   5.633  15.719  0.00  0.00    +0.000 C 
ATOM     19  C   UNL     1       5.225   5.795  15.966  0.00  0.00    +0.000 C 
ATOM     20  N   UNL     1       4.811   5.051  17.156  0.00  0.00    +0.000 N 
ATOM     21  C   UNL     1       3.865   4.046  17.053  0.00  0.00    +0.000 C 
ATOM     22  O   UNL     1       3.328   3.781  15.974  0.00  0.00    +0.000 OA
ATOM     23  C   UNL     1       5.587   5.399  18.344  0.00  0.00    +0.000 C 
ATOM     24  C   UNL     1       7.096   5.267  18.057  0.00  0.00    +0.000 C 
ATOM     25  C   UNL     1       7.917   5.808  19.208  0.00  0.00    +0.000 C 
ATOM     26  O   UNL     1       7.484   5.996  16.887  0.00  0.00    +0.000 OA
ENDBRANCH  16  21
ENDBRANCH   1  16
TORSDOF 4
ENDMDL
