MODEL 1
REMARK VINA RESULT:      -8.0      0.000      0.000
REMARK  Name = 
REMARK  7 active torsions:
REMARK  status: ('A' for Active; 'I' for Inactive)
REMARK    1  A    between atoms: C_1  and  C_2
REMARK    2  A    between atoms: C_2  and  C_3
REMARK    3  A    between atoms: C_3  and  N_4
REMARK    4  A    between atoms: N_4  and  C_5
REMARK    5  A    between atoms: N_4  and  C_15
REMARK    6  A    between atoms: C_5  and  C_6
REMARK    7  A    between atoms: C_18  and  C_19
REMARK                            x       y       z     vdW  Elec       q    Type
REMARK                         _______ _______ _______ _____ _____    ______ ____
ROOT
ATOM      1  N   UNL     1       7.128   6.126  18.241  0.00  0.00    +0.000 N 
ENDROOT
BRANCH   1   2
ATOM      2  C   UNL     1       6.745   5.662  16.986  0.00  0.00    +0.000 A 
ATOM      3  C   UNL     1       7.345   4.542  16.387  0.00  0.00    +0.000 A 
ATOM      4  C   UNL     1       6.883   4.006  15.176  0.00  0.00    +0.000 A 
ATOM      5  C   UNL     1       5.800   4.578  14.513  0.00  0.00    +0.000 A 
ATOM      6  C   UNL     1       5.278   3.999  13.234  0.00  0.00    +0.000 C 
ATOM      7  C   UNL     1       5.207   5.709  15.068  0.00  0.00    +0.000 A 
ATOM      8  C   UNL     1       5.689   6.249  16.267  0.00  0.00    +0.000 A 
ENDBRANCH   1   2
BRANCH   1   9
ATOM      9  C   UNL     1       8.159   7.160  18.407  0.00  0.00    +0.000 C 
BRANCH   9  11
ATOM     10  C   UNL     1       8.527   9.651  18.213  0.00  0.00    +0.000 C 
ATOM     11  C   UNL     1       7.753   8.451  17.694  0.00  0.00    +0.000 C 
ENDBRANCH   9  11
ENDBRANCH   1   9
BRANCH   1  12
ATOM     12  C   UNL     1       6.644   5.497  19.489  0.00  0.00    +0.000 C 
BRANCH  12  13
ATOM     13  C   UNL     1       5.318   4.785  19.456  0.00  0.00    +0.000 A 
ATOM     14  N   UNL     1       4.121   5.345  19.468  0.00  0.00    +0.000 NA
ATOM     15  C   UNL     1       3.246   4.345  19.117  0.00  0.00    +0.000 A 
ATOM     16  C   UNL     1       1.867   4.402  18.873  0.00  0.00    +0.000 A 
ATOM     17  C   UNL     1       1.221   3.251  18.401  0.00  0.00    +0.000 A 
ATOM     18  C   UNL     1       1.930   2.062  18.200  0.00  0.00    +0.000 A 
ATOM     19  C   UNL     1       3.296   1.973  18.489  0.00  0.00    +0.000 A 
ATOM     20  C   UNL     1       3.911   3.139  18.944  0.00  0.00    +0.000 A 
ATOM     21  N   UNL     1       5.206   3.424  19.294  0.00  0.00    +0.000 N 
ATOM     22  H   UNL     1       5.976   2.774  19.292  0.00  0.00    +0.000 HD
ENDBRANCH  12  13
ENDBRANCH   1  12
TORSDOF 5
ENDMDL
MODEL 2
REMARK VINA RESULT:      -8.0      1.181      1.518
REMARK  Name = 
REMARK  7 active torsions:
REMARK  status: ('A' for Active; 'I' for Inactive)
REMARK    1  A    between atoms: C_1  and  C_2
REMARK    2  A    between atoms: C_2  and  C_3
REMARK    3  A    between atoms: C_3  and  N_4
REMARK    4  A    between atoms: N_4  and  C_5
REMARK    5  A    between atoms: N_4  and  C_15
REMARK    6  A    between atoms: C_5  and  C_6
REMARK    7  A    between atoms: C_18  and  C_19
REMARK                            x       y       z     vdW  Elec       q    Type
REMARK                         _______ _______ _______ _____ _____    ______ ____
ROOT
ATOM      1  N   UNL     1       6.547   5.778  17.187  0.00  0.00    +0.000 N 
ENDROOT
BRANCH   1   2
ATOM      2  C   UNL     1       6.414   5.087  15.987  0.00  0.00    +0.000 A 
ATOM      3  C   UNL     1       5.290   4.297  15.699  0.00  0.00    +0.000 A 
ATOM      4  C   UNL     1       5.103   3.692  14.446  0.00  0.00    +0.000 A 
ATOM      5  C   UNL     1       6.042   3.855  13.432  0.00  0.00    +0.000 A 
ATOM      6  C   UNL     1       5.842   3.240  12.080  0.00  0.00    +0.000 C 
ATOM      7  C   UNL     1       7.183   4.607  13.701  0.00  0.00    +0.000 A 
ATOM      8  C   UNL     1       7.371   5.189  14.961  0.00  0.00    +0.000 A 
ENDBRANCH   1   2
BRANCH   1   9
ATOM      9  C   UNL     1       6.770   7.230  17.229  0.00  0.00    +0.000 C 
BRANCH   9  11
ATOM     10  C   UNL     1       8.298   9.054  18.075  0.00  0.00    +0.000 C 
ATOM     11  C   UNL     1       7.979   7.569  18.101  0.00  0.00    +0.000 C 
ENDBRANCH   9  11
ENDBRANCH   1   9
BRANCH   1  12
ATOM     12  C   UNL     1       6.635   5.078  18.488  0.00  0.00    +0.000 C 
BRANCH  12  13
ATOM     13  C   UNL     1       5.351   4.687  19.170  0.00  0.00    +0.000 A 
ATOM     14  N   UNL     1       4.398   5.504  19.585  0.00  0.00    +0.000 NA
ATOM     15  C   UNL     1       3.317   4.697  19.851  0.00  0.00    +0.000 A 
ATOM     16  C   UNL     1       2.009   5.041  20.219  0.00  0.00    +0.000 A 
ATOM     17  C   UNL     1       1.048   4.023  20.309  0.00  0.00    +0.000 A 
ATOM     18  C   UNL     1       1.391   2.690  20.064  0.00  0.00    +0.000 A 
ATOM     19  C   UNL     1       2.704   2.323  19.748  0.00  0.00    +0.000 A 
ATOM     20  C   UNL     1       3.631   3.361  19.652  0.00  0.00    +0.000 A 
ATOM     21  N   UNL     1       4.968   3.378  19.346  0.00  0.00    +0.000 N 
ATOM     22  H   UNL     1       5.539   2.573  19.142  0.00  0.00    +0.000 HD
ENDBRANCH  12  13
ENDBRANCH   1  12
TORSDOF 5
ENDMDL
MODEL 3
REMARK VINA RESULT:      -8.0      1.222      1.427
REMARK  Name = 
REMARK  7 active torsions:
REMARK  status: ('A' for Active; 'I' for Inactive)
REMARK    1  A    between atoms: C_1  and  C_2
REMARK    2  A    between atoms: C_2  and  C_3
REMARK    3  A    between atoms: C_3  and  N_4
REMARK    4  A    between atoms: N_4  and  C_5
REMARK    5  A    between atoms: N_4  and  C_15
REMARK    6  A    between atoms: C_5  and  C_6
REMARK    7  A    between atoms: C_18  and  C_19
REMARK                            x       y       z     vdW  Elec       q    Type
REMARK                         _______ _______ _______ _____ _____    ______ ____
ROOT
ATOM      1  N   UNL     1       6.471   5.820  17.125  0.00  0.00    +0.000 N 
ENDROOT
BRANCH   1   2
ATOM      2  C   UNL     1       6.327   5.244  15.866  0.00  0.00    +0.000 A 
ATOM      3  C   UNL     1       7.348   5.287  14.903  0.00  0.00    +0.000 A 
ATOM      4  C   UNL     1       7.248   4.610  13.678  0.00  0.00    +0.000 A 
ATOM      5  C   UNL     1       6.113   3.865  13.368  0.00  0.00    +0.000 A 
ATOM      6  C   UNL     1       6.004   3.115  12.077  0.00  0.00    +0.000 C 
ATOM      7  C   UNL     1       5.071   3.833  14.291  0.00  0.00    +0.000 A 
ATOM      8  C   UNL     1       5.172   4.529  15.503  0.00  0.00    +0.000 A 
ENDBRANCH   1   2
BRANCH   1   9
ATOM      9  C   UNL     1       6.663   7.266  17.302  0.00  0.00    +0.000 C 
BRANCH   9  11
ATOM     10  C   UNL     1       8.296   9.037  18.061  0.00  0.00    +0.000 C 
ATOM     11  C   UNL     1       7.972   7.553  18.040  0.00  0.00    +0.000 C 
ENDBRANCH   9  11
ENDBRANCH   1   9
BRANCH   1  12
ATOM     12  C   UNL     1       6.602   5.000  18.350  0.00  0.00    +0.000 C 
BRANCH  12  13
ATOM     13  C   UNL     1       5.344   4.615  19.082  0.00  0.00    +0.000 A 
ATOM     14  N   UNL     1       4.431   5.437  19.568  0.00  0.00    +0.000 NA
ATOM     15  C   UNL     1       3.346   4.645  19.862  0.00  0.00    +0.000 A 
ATOM     16  C   UNL     1       2.065   5.004  20.304  0.00  0.00    +0.000 A 
ATOM     17  C   UNL     1       1.088   4.004  20.410  0.00  0.00    +0.000 A 
ATOM     18  C   UNL     1       1.388   2.673  20.107  0.00  0.00    +0.000 A 
ATOM     19  C   UNL     1       2.676   2.289  19.715  0.00  0.00    +0.000 A 
ATOM     20  C   UNL     1       3.621   3.309  19.606  0.00  0.00    +0.000 A 
ATOM     21  N   UNL     1       4.941   3.309  19.236  0.00  0.00    +0.000 N 
ATOM     22  H   UNL     1       5.484   2.499  18.980  0.00  0.00    +0.000 HD
ENDBRANCH  12  13
ENDBRANCH   1  12
TORSDOF 5
ENDMDL
MODEL 4
REMARK VINA RESULT:      -7.8      0.197      1.059
REMARK  Name = 
REMARK  7 active torsions:
REMARK  status: ('A' for Active; 'I' for Inactive)
REMARK    1  A    between atoms: C_1  and  C_2
REMARK    2  A    between atoms: C_2  and  C_3
REMARK    3  A    between atoms: C_3  and  N_4
REMARK    4  A    between atoms: N_4  and  C_5
REMARK    5  A    between atoms: N_4  and  C_15
REMARK    6  A    between atoms: C_5  and  C_6
REMARK    7  A    between atoms: C_18  and  C_19
REMARK                            x       y       z     vdW  Elec       q    Type
REMARK                         _______ _______ _______ _____ _____    ______ ____
ROOT
ATOM      1  N   UNL     1       7.004   6.042  18.172  0.00  0.00    +0.000 N 
ENDROOT
BRANCH   1   2
ATOM      2  C   UNL     1       6.570   5.503  16.966  0.00  0.00    +0.000 A 
ATOM      3  C   UNL     1       5.571   6.112  16.189  0.00  0.00    +0.000 A 
ATOM      4  C   UNL     1       5.213   5.632  14.920  0.00  0.00    +0.000 A 
ATOM      5  C   UNL     1       5.843   4.513  14.381  0.00  0.00    +0.000 A 
ATOM      6  C   UNL     1       5.492   4.006  13.016  0.00  0.00    +0.000 C 
ATOM      7  C   UNL     1       6.814   3.869  15.143  0.00  0.00    +0.000 A 
ATOM      8  C   UNL     1       7.150   4.344  16.418  0.00  0.00    +0.000 A 
ENDBRANCH   1   2
BRANCH   1   9
ATOM      9  C   UNL     1       8.104   7.015  18.239  0.00  0.00    +0.000 C 
BRANCH   9  11
ATOM     10  C   UNL     1       8.508   9.508  18.228  0.00  0.00    +0.000 C 
ATOM     11  C   UNL     1       7.667   8.369  17.678  0.00  0.00    +0.000 C 
ENDBRANCH   9  11
ENDBRANCH   1   9
BRANCH   1  12
ATOM     12  C   UNL     1       6.500   5.554  19.474  0.00  0.00    +0.000 C 
BRANCH  12  13
ATOM     13  C   UNL     1       5.213   4.773  19.488  0.00  0.00    +0.000 A 
ATOM     14  N   UNL     1       3.990   5.268  19.548  0.00  0.00    +0.000 NA
ATOM     15  C   UNL     1       3.156   4.223  19.226  0.00  0.00    +0.000 A 
ATOM     16  C   UNL     1       1.768   4.207  19.035  0.00  0.00    +0.000 A 
ATOM     17  C   UNL     1       1.167   3.024  18.583  0.00  0.00    +0.000 A 
ATOM     18  C   UNL     1       1.930   1.875  18.351  0.00  0.00    +0.000 A 
ATOM     19  C   UNL     1       3.309   1.858  18.588  0.00  0.00    +0.000 A 
ATOM     20  C   UNL     1       3.878   3.055  19.024  0.00  0.00    +0.000 A 
ATOM     21  N   UNL     1       5.168   3.408  19.326  0.00  0.00    +0.000 N 
ATOM     22  H   UNL     1       5.971   2.800  19.293  0.00  0.00    +0.000 HD
ENDBRANCH  12  13
ENDBRANCH   1  12
TORSDOF 5
ENDMDL
MODEL 5
REMARK VINA RESULT:      -7.7      1.468      2.070
REMARK  Name = 
REMARK  7 active torsions:
REMARK  status: ('A' for Active; 'I' for Inactive)
REMARK    1  A    between atoms: C_1  and  C_2
REMARK    2  A    between atoms: C_2  and  C_3
REMARK    3  A    between atoms: C_3  and  N_4
REMARK    4  A    between atoms: N_4  and  C_5
REMARK    5  A    between atoms: N_4  and  C_15
REMARK    6  A    between atoms: C_5  and  C_6
REMARK    7  A    between atoms: C_18  and  C_19
REMARK                            x       y       z     vdW  Elec       q    Type
REMARK                         _______ _______ _______ _____ _____    ______ ____
ROOT
ATOM      1  N   UNL     1       6.279   5.550  16.996  0.00  0.00    +0.000 N 
ENDROOT
BRANCH   1   2
ATOM      2  C   UNL     1       6.308   5.088  15.685  0.00  0.00    +0.000 A 
ATOM      3  C   UNL     1       7.410   5.302  14.841  0.00  0.00    +0.000 A 
ATOM      4  C   UNL     1       7.489   4.739  13.557  0.00  0.00    +0.000 A 
ATOM      5  C   UNL     1       6.459   3.940  13.068  0.00  0.00    +0.000 A 
ATOM      6  C   UNL     1       6.541   3.309  11.712  0.00  0.00    +0.000 C 
ATOM      7  C   UNL     1       5.339   3.738  13.871  0.00  0.00    +0.000 A 
ATOM      8  C   UNL     1       5.261   4.321  15.143  0.00  0.00    +0.000 A 
ENDBRANCH   1   2
BRANCH   1   9
ATOM      9  C   UNL     1       6.349   6.983  17.319  0.00  0.00    +0.000 C 
BRANCH   9  11
ATOM     10  C   UNL     1       8.013   8.827  17.776  0.00  0.00    +0.000 C 
ATOM     11  C   UNL     1       7.718   7.342  17.899  0.00  0.00    +0.000 C 
ENDBRANCH   9  11
ENDBRANCH   1   9
BRANCH   1  12
ATOM     12  C   UNL     1       6.338   4.629  18.153  0.00  0.00    +0.000 C 
BRANCH  12  13
ATOM     13  C   UNL     1       5.043   4.081  18.689  0.00  0.00    +0.000 A 
ATOM     14  N   UNL     1       4.902   3.203  19.667  0.00  0.00    +0.000 NA
ATOM     15  C   UNL     1       3.570   3.244  20.006  0.00  0.00    +0.000 A 
ATOM     16  C   UNL     1       2.887   2.599  21.046  0.00  0.00    +0.000 A 
ATOM     17  C   UNL     1       1.537   2.910  21.256  0.00  0.00    +0.000 A 
ATOM     18  C   UNL     1       0.875   3.826  20.432  0.00  0.00    +0.000 A 
ATOM     19  C   UNL     1       1.527   4.439  19.356  0.00  0.00    +0.000 A 
ATOM     20  C   UNL     1       2.874   4.118  19.183  0.00  0.00    +0.000 A 
ATOM     21  N   UNL     1       3.812   4.534  18.274  0.00  0.00    +0.000 N 
ATOM     22  H   UNL     1       3.656   5.178  17.515  0.00  0.00    +0.000 HD
ENDBRANCH  12  13
ENDBRANCH   1  12
TORSDOF 5
ENDMDL
MODEL 6
REMARK VINA RESULT:      -7.7      0.925      1.897
REMARK  Name = 
REMARK  7 active torsions:
REMARK  status: ('A' for Active; 'I' for Inactive)
REMARK    1  A    between atoms: C_1  and  C_2
REMARK    2  A    between atoms: C_2  and  C_3
REMARK    3  A    between atoms: C_3  and  N_4
REMARK    4  A    between atoms: N_4  and  C_5
REMARK    5  A    between atoms: N_4  and  C_15
REMARK    6  A    between atoms: C_5  and  C_6
REMARK    7  A    between atoms: C_18  and  C_19
REMARK                            x       y       z     vdW  Elec       q    Type
REMARK                         _______ _______ _______ _____ _____    ______ ____
ROOT
ATOM      1  N   UNL     1       7.001   6.136  18.096  0.00  0.00    +0.000 N 
ENDROOT
BRANCH   1   2
ATOM      2  C   UNL     1       6.572   5.575  16.897  0.00  0.00    +0.000 A 
ATOM      3  C   UNL     1       5.597   6.186  16.092  0.00  0.00    +0.000 A 
ATOM      4  C   UNL     1       5.246   5.681  14.831  0.00  0.00    +0.000 A 
ATOM      5  C   UNL     1       5.859   4.536  14.328  0.00  0.00    +0.000 A 
ATOM      6  C   UNL     1       5.516   4.002  12.972  0.00  0.00    +0.000 C 
ATOM      7  C   UNL     1       6.806   3.891  15.120  0.00  0.00    +0.000 A 
ATOM      8  C   UNL     1       7.135   4.392  16.387  0.00  0.00    +0.000 A 
ENDBRANCH   1   2
BRANCH   1   9
ATOM      9  C   UNL     1       8.100   7.111  18.149  0.00  0.00    +0.000 C 
BRANCH   9  11
ATOM     10  C   UNL     1       8.543   9.597  18.187  0.00  0.00    +0.000 C 
ATOM     11  C   UNL     1       7.623   8.492  17.697  0.00  0.00    +0.000 C 
ENDBRANCH   9  11
ENDBRANCH   1   9
BRANCH   1  12
ATOM     12  C   UNL     1       6.494   5.669  19.405  0.00  0.00    +0.000 C 
BRANCH  12  13
ATOM     13  C   UNL     1       5.155   4.982  19.441  0.00  0.00    +0.000 A 
ATOM     14  N   UNL     1       4.934   3.681  19.386  0.00  0.00    +0.000 NA
ATOM     15  C   UNL     1       3.621   3.517  19.759  0.00  0.00    +0.000 A 
ATOM     16  C   UNL     1       2.888   2.342  19.976  0.00  0.00    +0.000 A 
ATOM     17  C   UNL     1       1.584   2.448  20.480  0.00  0.00    +0.000 A 
ATOM     18  C   UNL     1       1.014   3.699  20.738  0.00  0.00    +0.000 A 
ATOM     19  C   UNL     1       1.713   4.883  20.477  0.00  0.00    +0.000 A 
ATOM     20  C   UNL     1       3.012   4.742  19.990  0.00  0.00    +0.000 A 
ATOM     21  N   UNL     1       3.976   5.658  19.653  0.00  0.00    +0.000 N 
ATOM     22  H   UNL     1       3.880   6.661  19.693  0.00  0.00    +0.000 HD
ENDBRANCH  12  13
ENDBRANCH   1  12
TORSDOF 5
ENDMDL
MODEL 7
REMARK VINA RESULT:      -7.5      1.397      2.078
REMARK  Name = 
REMARK  7 active torsions:
REMARK  status: ('A' for Active; 'I' for Inactive)
REMARK    1  A    between atoms: C_1  and  C_2
REMARK    2  A    between atoms: C_2  and  C_3
REMARK    3  A    between atoms: C_3  and  N_4
REMARK    4  A    between atoms: N_4  and  C_5
REMARK    5  A    between atoms: N_4  and  C_15
REMARK    6  A    between atoms: C_5  and  C_6
REMARK    7  A    between atoms: C_18  and  C_19
REMARK                            x       y       z     vdW  Elec       q    Type
REMARK                         _______ _______ _______ _____ _____    ______ ____
ROOT
ATOM      1  N   UNL     1       6.425   5.874  17.245  0.00  0.00    +0.000 N 
ENDROOT
BRANCH   1   2
ATOM      2  C   UNL     1       6.404   5.191  16.034  0.00  0.00    +0.000 A 
ATOM      3  C   UNL     1       5.304   4.418  15.630  0.00  0.00    +0.000 A 
ATOM      4  C   UNL     1       5.234   3.823  14.361  0.00  0.00    +0.000 A 
ATOM      5  C   UNL     1       6.273   3.977  13.446  0.00  0.00    +0.000 A 
ATOM      6  C   UNL     1       6.200   3.371  12.078  0.00  0.00    +0.000 C 
ATOM      7  C   UNL     1       7.391   4.710  13.833  0.00  0.00    +0.000 A 
ATOM      8  C   UNL     1       7.460   5.284  15.110  0.00  0.00    +0.000 A 
ENDBRANCH   1   2
BRANCH   1   9
ATOM      9  C   UNL     1       6.630   7.328  17.316  0.00  0.00    +0.000 C 
BRANCH   9  11
ATOM     10  C   UNL     1       8.232   9.153  18.009  0.00  0.00    +0.000 C 
ATOM     11  C   UNL     1       7.983   7.655  17.950  0.00  0.00    +0.000 C 
ENDBRANCH   9  11
ENDBRANCH   1   9
BRANCH   1  12
ATOM     12  C   UNL     1       6.406   5.165  18.544  0.00  0.00    +0.000 C 
BRANCH  12  13
ATOM     13  C   UNL     1       5.121   4.511  18.975  0.00  0.00    +0.000 A 
ATOM     14  N   UNL     1       4.997   3.365  19.622  0.00  0.00    +0.000 NA
ATOM     15  C   UNL     1       3.695   3.333  20.062  0.00  0.00    +0.000 A 
ATOM     16  C   UNL     1       3.047   2.403  20.887  0.00  0.00    +0.000 A 
ATOM     17  C   UNL     1       1.733   2.670  21.296  0.00  0.00    +0.000 A 
ATOM     18  C   UNL     1       1.070   3.825  20.870  0.00  0.00    +0.000 A 
ATOM     19  C   UNL     1       1.682   4.737  20.004  0.00  0.00    +0.000 A 
ATOM     20  C   UNL     1       2.995   4.450  19.628  0.00  0.00    +0.000 A 
ATOM     21  N   UNL     1       3.893   5.113  18.831  0.00  0.00    +0.000 N 
ATOM     22  H   UNL     1       3.723   5.976  18.338  0.00  0.00    +0.000 HD
ENDBRANCH  12  13
ENDBRANCH   1  12
TORSDOF 5
ENDMDL
MODEL 8
REMARK VINA RESULT:      -7.5      2.343      6.020
REMARK  Name = 
REMARK  7 active torsions:
REMARK  status: ('A' for Active; 'I' for Inactive)
REMARK    1  A    between atoms: C_1  and  C_2
REMARK    2  A    between atoms: C_2  and  C_3
REMARK    3  A    between atoms: C_3  and  N_4
REMARK    4  A    between atoms: N_4  and  C_5
REMARK    5  A    between atoms: N_4  and  C_15
REMARK    6  A    between atoms: C_5  and  C_6
REMARK    7  A    between atoms: C_18  and  C_19
REMARK                            x       y       z     vdW  Elec       q    Type
REMARK                         _______ _______ _______ _____ _____    ______ ____
ROOT
ATOM      1  N   UNL     1       4.794   4.640  18.458  0.00  0.00    +0.000 N 
ENDROOT
BRANCH   1   2
ATOM      2  C   UNL     1       4.027   5.798  18.538  0.00  0.00    +0.000 A 
ATOM      3  C   UNL     1       4.044   6.778  17.533  0.00  0.00    +0.000 A 
ATOM      4  C   UNL     1       3.187   7.889  17.557  0.00  0.00    +0.000 A 
ATOM      5  C   UNL     1       2.280   8.063  18.598  0.00  0.00    +0.000 A 
ATOM      6  C   UNL     1       1.339   9.229  18.623  0.00  0.00    +0.000 C 
ATOM      7  C   UNL     1       2.264   7.124  19.626  0.00  0.00    +0.000 A 
ATOM      8  C   UNL     1       3.138   6.029  19.603  0.00  0.00    +0.000 A 
ENDBRANCH   1   2
BRANCH   1   9
ATOM      9  C   UNL     1       4.386   3.389  19.114  0.00  0.00    +0.000 C 
BRANCH   9  11
ATOM     10  C   UNL     1       2.474   2.994  17.513  0.00  0.00    +0.000 C 
ATOM     11  C   UNL     1       3.753   2.429  18.106  0.00  0.00    +0.000 C 
ENDBRANCH   9  11
ENDBRANCH   1   9
BRANCH   1  12
ATOM     12  C   UNL     1       6.142   4.635  17.850  0.00  0.00    +0.000 C 
BRANCH  12  13
ATOM     13  C   UNL     1       6.244   4.749  16.352  0.00  0.00    +0.000 A 
ATOM     14  N   UNL     1       7.165   5.408  15.671  0.00  0.00    +0.000 NA
ATOM     15  C   UNL     1       7.037   4.978  14.372  0.00  0.00    +0.000 A 
ATOM     16  C   UNL     1       7.822   5.268  13.248  0.00  0.00    +0.000 A 
ATOM     17  C   UNL     1       7.551   4.594  12.048  0.00  0.00    +0.000 A 
ATOM     18  C   UNL     1       6.503   3.671  11.965  0.00  0.00    +0.000 A 
ATOM     19  C   UNL     1       5.676   3.410  13.063  0.00  0.00    +0.000 A 
ATOM     20  C   UNL     1       5.981   4.086  14.245  0.00  0.00    +0.000 A 
ATOM     21  N   UNL     1       5.417   4.062  15.494  0.00  0.00    +0.000 N 
ATOM     22  H   UNL     1       4.615   3.518  15.771  0.00  0.00    +0.000 HD
ENDBRANCH  12  13
ENDBRANCH   1  12
TORSDOF 5
ENDMDL
MODEL 9
REMARK VINA RESULT:      -7.5      2.298      6.078
REMARK  Name = 
REMARK  7 active torsions:
REMARK  status: ('A' for Active; 'I' for Inactive)
REMARK    1  A    between atoms: C_1  and  C_2
REMARK    2  A    between atoms: C_2  and  C_3
REMARK    3  A    between atoms: C_3  and  N_4
REMARK    4  A    between atoms: N_4  and  C_5
REMARK    5  A    between atoms: N_4  and  C_15
REMARK    6  A    between atoms: C_5  and  C_6
REMARK    7  A    between atoms: C_18  and  C_19
REMARK                            x       y       z     vdW  Elec       q    Type
REMARK                         _______ _______ _______ _____ _____    ______ ____
ROOT
ATOM      1  N   UNL     1       4.836   4.576  18.500  0.00  0.00    +0.000 N 
ENDROOT
BRANCH   1   2
ATOM      2  C   UNL     1       3.943   5.640  18.560  0.00  0.00    +0.000 A 
ATOM      3  C   UNL     1       3.080   5.832  19.651  0.00  0.00    +0.000 A 
ATOM      4  C   UNL     1       2.261   6.966  19.767  0.00  0.00    +0.000 A 
ATOM      5  C   UNL     1       2.274   7.953  18.785  0.00  0.00    +0.000 A 
ATOM      6  C   UNL     1       1.427   9.183  18.908  0.00  0.00    +0.000 C 
ATOM      7  C   UNL     1       3.095   7.773  17.675  0.00  0.00    +0.000 A 
ATOM      8  C   UNL     1       3.894   6.627  17.560  0.00  0.00    +0.000 A 
ENDBRANCH   1   2
BRANCH   1   9
ATOM      9  C   UNL     1       4.573   3.299  19.179  0.00  0.00    +0.000 C 
BRANCH   9  11
ATOM     10  C   UNL     1       2.328   2.181  18.881  0.00  0.00    +0.000 C 
ATOM     11  C   UNL     1       3.718   2.383  18.302  0.00  0.00    +0.000 C 
ENDBRANCH   9  11
ENDBRANCH   1   9
BRANCH   1  12
ATOM     12  C   UNL     1       6.176   4.712  17.887  0.00  0.00    +0.000 C 
BRANCH  12  13
ATOM     13  C   UNL     1       6.263   4.800  16.386  0.00  0.00    +0.000 A 
ATOM     14  N   UNL     1       7.177   5.449  15.686  0.00  0.00    +0.000 NA
ATOM     15  C   UNL     1       7.036   4.997  14.395  0.00  0.00    +0.000 A 
ATOM     16  C   UNL     1       7.810   5.268  13.259  0.00  0.00    +0.000 A 
ATOM     17  C   UNL     1       7.529   4.574  12.074  0.00  0.00    +0.000 A 
ATOM     18  C   UNL     1       6.482   3.649  12.016  0.00  0.00    +0.000 A 
ATOM     19  C   UNL     1       5.665   3.405  13.126  0.00  0.00    +0.000 A 
ATOM     20  C   UNL     1       5.981   4.102  14.293  0.00  0.00    +0.000 A 
ATOM     21  N   UNL     1       5.429   4.098  15.548  0.00  0.00    +0.000 N 
ATOM     22  H   UNL     1       4.630   3.557  15.842  0.00  0.00    +0.000 HD
ENDBRANCH  12  13
ENDBRANCH   1  12
TORSDOF 5
ENDMDL
