MODEL 1
REMARK VINA RESULT:      -9.2      0.000      0.000
REMARK  Name = 
REMARK  7 active torsions:
REMARK  status: ('A' for Active; 'I' for Inactive)
REMARK    1  A    between atoms: C_1  and  C_2
REMARK    2  A    between atoms: C_2  and  O_3
REMARK    3  A    between atoms: O_3  and  C_4
REMARK    4  A    between atoms: C_7  and  N_8
REMARK    5  A    between atoms: N_8  and  S_9
REMARK    6  A    between atoms: S_9  and  C_12
REMARK    7  A    between atoms: C_18  and  C_19
REMARK                            x       y       z     vdW  Elec       q    Type
REMARK                         _______ _______ _______ _____ _____    ______ ____
ROOT
ATOM      1  C   UNL     1       3.103   4.958  18.789  0.00  0.00    +0.000 A 
ATOM      2  C   UNL     1       2.643   4.706  20.085  0.00  0.00    +0.000 A 
ATOM      3  C   UNL     1       1.995   5.717  20.785  0.00  0.00    +0.000 A 
ATOM      4  C   UNL     1       1.810   6.985  20.207  0.00  0.00    +0.000 A 
ATOM      5  N   UNL     1       1.203   8.002  20.948  0.00  0.00    +0.000 N 
ATOM      6  C   UNL     1       1.089   9.266  20.435  0.00  0.00    +0.000 A 
ATOM      7  C   UNL     1       1.329   9.659  19.167  0.00  0.00    +0.000 A 
ATOM      8  C   UNL     1       1.904   8.593  18.274  0.00  0.00    +0.000 A 
ATOM      9  O   UNL     1       2.182   8.788  17.099  0.00  0.00    +0.000 OA
ATOM     10  C   UNL     1       2.196   7.220  18.876  0.00  0.00    +0.000 A 
ATOM     11  C   UNL     1       2.875   6.203  18.169  0.00  0.00    +0.000 A 
ATOM     12  H   UNL     1       1.156   7.896  21.954  0.00  0.00    +0.000 HD
ENDROOT
BRANCH   7  13
ATOM     13  C   UNL     1       1.130  11.147  18.946  0.00  0.00    +0.000 C 
ATOM     14  O   UNL     1       2.158  11.834  18.893  0.00  0.00    +0.000 OA
ATOM     15  N   UNL     1      -0.108  11.789  18.868  0.00  0.00    +0.000 N 
ATOM     16  C   UNL     1      -0.102  13.219  18.510  0.00  0.00    +0.000 C 
ATOM     17  C   UNL     1      -0.206  14.150  19.721  0.00  0.00    +0.000 C 
ATOM     18  C   UNL     1      -1.616  14.308  20.289  0.00  0.00    +0.000 C 
ATOM     19  C   UNL     1      -2.308  12.998  20.659  0.00  0.00    +0.000 C 
ATOM     20  C   UNL     1      -2.572  12.090  19.456  0.00  0.00    +0.000 C 
ATOM     21  C   UNL     1      -1.409  11.157  19.068  0.00  0.00    +0.000 C 
ENDBRANCH   7  13
BRANCH   1  22
ATOM     22  S   UNL     1       4.199   3.741  18.072  0.00  0.00    +0.000 S 
ATOM     23  O   UNL     1       4.254   3.998  16.649  0.00  0.00    +0.000 OA
ATOM     24  O   UNL     1       3.797   2.437  18.564  0.00  0.00    +0.000 OA
BRANCH  22  25
ATOM     25  N   UNL     1       5.765   3.998  18.662  0.00  0.00    +0.000 N 
ATOM     26  H   UNL     1       5.666   3.925  19.678  0.00  0.00    +0.000 HD
BRANCH  25  30
ATOM     27  C   UNL     1       7.777   7.633  17.930  0.00  0.00    +0.000 A 
ATOM     28  C   UNL     1       6.700   7.264  17.115  0.00  0.00    +0.000 A 
ATOM     29  C   UNL     1       6.019   6.057  17.330  0.00  0.00    +0.000 A 
ATOM     30  C   UNL     1       6.436   5.219  18.354  0.00  0.00    +0.000 A 
ATOM     31  C   UNL     1       7.521   5.568  19.157  0.00  0.00    +0.000 A 
ATOM     32  C   UNL     1       8.192   6.774  18.946  0.00  0.00    +0.000 A 
BRANCH  27  33
ATOM     33  O   UNL     1       8.362   8.832  17.619  0.00  0.00    +0.000 OA
BRANCH  33  35
ATOM     34  C   UNL     1       9.130  11.015  18.217  0.00  0.00    +0.000 C 
ATOM     35  C   UNL     1       8.820   9.618  18.722  0.00  0.00    +0.000 C 
ENDBRANCH  33  35
ENDBRANCH  27  33
ENDBRANCH  25  30
ENDBRANCH  22  25
ENDBRANCH   1  22
TORSDOF 6
ENDMDL
MODEL 2
REMARK VINA RESULT:      -9.2      3.437      4.826
REMARK  Name = 
REMARK  7 active torsions:
REMARK  status: ('A' for Active; 'I' for Inactive)
REMARK    1  A    between atoms: C_1  and  C_2
REMARK    2  A    between atoms: C_2  and  O_3
REMARK    3  A    between atoms: O_3  and  C_4
REMARK    4  A    between atoms: C_7  and  N_8
REMARK    5  A    between atoms: N_8  and  S_9
REMARK    6  A    between atoms: S_9  and  C_12
REMARK    7  A    between atoms: C_18  and  C_19
REMARK                            x       y       z     vdW  Elec       q    Type
REMARK                         _______ _______ _______ _____ _____    ______ ____
ROOT
ATOM      1  C   UNL     1       4.991   5.878  17.792  0.00  0.00    +0.000 A 
ATOM      2  C   UNL     1       4.698   5.084  18.905  0.00  0.00    +0.000 A 
ATOM      3  C   UNL     1       3.668   5.462  19.758  0.00  0.00    +0.000 A 
ATOM      4  C   UNL     1       2.932   6.635  19.518  0.00  0.00    +0.000 A 
ATOM      5  N   UNL     1       1.935   7.024  20.417  0.00  0.00    +0.000 N 
ATOM      6  C   UNL     1       1.265   8.204  20.246  0.00  0.00    +0.000 A 
ATOM      7  C   UNL     1       1.298   9.016  19.170  0.00  0.00    +0.000 A 
ATOM      8  C   UNL     1       2.287   8.617  18.108  0.00  0.00    +0.000 A 
ATOM      9  O   UNL     1       2.443   9.249  17.073  0.00  0.00    +0.000 OA
ATOM     10  C   UNL     1       3.166   7.394  18.358  0.00  0.00    +0.000 A 
ATOM     11  C   UNL     1       4.227   7.025  17.500  0.00  0.00    +0.000 A 
ATOM     12  H   UNL     1       1.945   6.616  21.344  0.00  0.00    +0.000 HD
ENDROOT
BRANCH   7  13
ATOM     13  C   UNL     1       0.452  10.267  19.328  0.00  0.00    +0.000 C 
ATOM     14  O   UNL     1       0.643  10.931  20.354  0.00  0.00    +0.000 OA
ATOM     15  N   UNL     1      -0.552  10.673  18.445  0.00  0.00    +0.000 N 
ATOM     16  C   UNL     1      -1.169  11.989  18.691  0.00  0.00    +0.000 C 
ATOM     17  C   UNL     1      -2.498  11.906  19.448  0.00  0.00    +0.000 C 
ATOM     18  C   UNL     1      -3.700  11.512  18.592  0.00  0.00    +0.000 C 
ATOM     19  C   UNL     1      -3.534  10.208  17.816  0.00  0.00    +0.000 C 
ATOM     20  C   UNL     1      -2.426  10.264  16.764  0.00  0.00    +0.000 C 
ATOM     21  C   UNL     1      -1.013   9.928  17.277  0.00  0.00    +0.000 C 
ENDBRANCH   7  13
BRANCH   1  22
ATOM     22  S   UNL     1       6.515   5.522  16.927  0.00  0.00    +0.000 S 
ATOM     23  O   UNL     1       6.673   4.083  16.911  0.00  0.00    +0.000 OA
ATOM     24  O   UNL     1       7.553   6.364  17.490  0.00  0.00    +0.000 OA
BRANCH  22  25
ATOM     25  N   UNL     1       6.352   6.000  15.311  0.00  0.00    +0.000 N 
ATOM     26  H   UNL     1       5.527   6.604  15.309  0.00  0.00    +0.000 HD
BRANCH  25  30
ATOM     27  C   UNL     1       5.978   3.167  12.207  0.00  0.00    +0.000 A 
ATOM     28  C   UNL     1       4.920   3.351  13.106  0.00  0.00    +0.000 A 
ATOM     29  C   UNL     1       5.022   4.278  14.152  0.00  0.00    +0.000 A 
ATOM     30  C   UNL     1       6.194   5.006  14.300  0.00  0.00    +0.000 A 
ATOM     31  C   UNL     1       7.260   4.815  13.423  0.00  0.00    +0.000 A 
ATOM     32  C   UNL     1       7.155   3.896  12.377  0.00  0.00    +0.000 A 
BRANCH  27  33
ATOM     33  O   UNL     1       5.762   2.232  11.231  0.00  0.00    +0.000 OA
BRANCH  33  35
ATOM     34  C   UNL     1       6.139  -0.128  11.300  0.00  0.00    +0.000 C 
ATOM     35  C   UNL     1       6.772   1.233  11.075  0.00  0.00    +0.000 C 
ENDBRANCH  33  35
ENDBRANCH  27  33
ENDBRANCH  25  30
ENDBRANCH  22  25
ENDBRANCH   1  22
TORSDOF 6
ENDMDL
MODEL 3
REMARK VINA RESULT:      -9.1      0.665      1.056
REMARK  Name = 
REMARK  7 active torsions:
REMARK  status: ('A' for Active; 'I' for Inactive)
REMARK    1  A    between atoms: C_1  and  C_2
REMARK    2  A    between atoms: C_2  and  O_3
REMARK    3  A    between atoms: O_3  and  C_4
REMARK    4  A    between atoms: C_7  and  N_8
REMARK    5  A    between atoms: N_8  and  S_9
REMARK    6  A    between atoms: S_9  and  C_12
REMARK    7  A    between atoms: C_18  and  C_19
REMARK                            x       y       z     vdW  Elec       q    Type
REMARK                         _______ _______ _______ _____ _____    ______ ____
ROOT
ATOM      1  C   UNL     1       2.926   4.877  18.847  0.00  0.00    +0.000 A 
ATOM      2  C   UNL     1       2.552   4.686  20.180  0.00  0.00    +0.000 A 
ATOM      3  C   UNL     1       1.996   5.743  20.890  0.00  0.00    +0.000 A 
ATOM      4  C   UNL     1       1.817   6.999  20.283  0.00  0.00    +0.000 A 
ATOM      5  N   UNL     1       1.304   8.062  21.031  0.00  0.00    +0.000 N 
ATOM      6  C   UNL     1       1.201   9.312  20.483  0.00  0.00    +0.000 A 
ATOM      7  C   UNL     1       1.362   9.655  19.189  0.00  0.00    +0.000 A 
ATOM      8  C   UNL     1       1.830   8.539  18.294  0.00  0.00    +0.000 A 
ATOM      9  O   UNL     1       2.029   8.687  17.096  0.00  0.00    +0.000 OA
ATOM     10  C   UNL     1       2.114   7.176  18.921  0.00  0.00    +0.000 A 
ATOM     11  C   UNL     1       2.701   6.110  18.202  0.00  0.00    +0.000 A 
ATOM     12  H   UNL     1       1.327   7.989  22.041  0.00  0.00    +0.000 HD
ENDROOT
BRANCH   7  13
ATOM     13  C   UNL     1       1.205  11.143  18.932  0.00  0.00    +0.000 C 
ATOM     14  O   UNL     1       2.251  11.794  18.829  0.00  0.00    +0.000 OA
ATOM     15  N   UNL     1      -0.015  11.822  18.873  0.00  0.00    +0.000 N 
ATOM     16  C   UNL     1       0.025  13.241  18.473  0.00  0.00    +0.000 C 
ATOM     17  C   UNL     1      -0.013  14.208  19.660  0.00  0.00    +0.000 C 
ATOM     18  C   UNL     1      -1.399  14.427  20.265  0.00  0.00    +0.000 C 
ATOM     19  C   UNL     1      -2.120  13.150  20.692  0.00  0.00    +0.000 C 
ATOM     20  C   UNL     1      -2.449  12.219  19.524  0.00  0.00    +0.000 C 
ATOM     21  C   UNL     1      -1.329  11.239  19.129  0.00  0.00    +0.000 C 
ENDBRANCH   7  13
BRANCH   1  22
ATOM     22  S   UNL     1       3.921   3.596  18.096  0.00  0.00    +0.000 S 
ATOM     23  O   UNL     1       3.031   2.766  17.312  0.00  0.00    +0.000 OA
ATOM     24  O   UNL     1       4.743   3.006  19.135  0.00  0.00    +0.000 OA
BRANCH  22  25
ATOM     25  N   UNL     1       4.996   4.308  16.999  0.00  0.00    +0.000 N 
ATOM     26  H   UNL     1       5.517   3.519  16.609  0.00  0.00    +0.000 HD
BRANCH  25  30
ATOM     27  C   UNL     1       7.757   7.260  18.205  0.00  0.00    +0.000 A 
ATOM     28  C   UNL     1       7.769   6.008  18.829  0.00  0.00    +0.000 A 
ATOM     29  C   UNL     1       6.857   5.011  18.455  0.00  0.00    +0.000 A 
ATOM     30  C   UNL     1       5.925   5.286  17.465  0.00  0.00    +0.000 A 
ATOM     31  C   UNL     1       5.891   6.537  16.852  0.00  0.00    +0.000 A 
ATOM     32  C   UNL     1       6.806   7.525  17.220  0.00  0.00    +0.000 A 
BRANCH  27  33
ATOM     33  O   UNL     1       8.694   8.150  18.658  0.00  0.00    +0.000 OA
BRANCH  33  35
ATOM     34  C   UNL     1       9.322  10.384  19.233  0.00  0.00    +0.000 C 
ATOM     35  C   UNL     1       8.494   9.519  18.300  0.00  0.00    +0.000 C 
ENDBRANCH  33  35
ENDBRANCH  27  33
ENDBRANCH  25  30
ENDBRANCH  22  25
ENDBRANCH   1  22
TORSDOF 6
ENDMDL
MODEL 4
REMARK VINA RESULT:      -9.0      2.924      4.464
REMARK  Name = 
REMARK  7 active torsions:
REMARK  status: ('A' for Active; 'I' for Inactive)
REMARK    1  A    between atoms: C_1  and  C_2
REMARK    2  A    between atoms: C_2  and  O_3
REMARK    3  A    between atoms: O_3  and  C_4
REMARK    4  A    between atoms: C_7  and  N_8
REMARK    5  A    between atoms: N_8  and  S_9
REMARK    6  A    between atoms: S_9  and  C_12
REMARK    7  A    between atoms: C_18  and  C_19
REMARK                            x       y       z     vdW  Elec       q    Type
REMARK                         _______ _______ _______ _____ _____    ______ ____
ROOT
ATOM      1  C   UNL     1       2.118   7.413  19.424  0.00  0.00    +0.000 A 
ATOM      2  C   UNL     1       1.957   8.019  18.174  0.00  0.00    +0.000 A 
ATOM      3  C   UNL     1       1.323   9.253  18.093  0.00  0.00    +0.000 A 
ATOM      4  C   UNL     1       0.837   9.887  19.250  0.00  0.00    +0.000 A 
ATOM      5  N   UNL     1       0.158  11.103  19.140  0.00  0.00    +0.000 N 
ATOM      6  C   UNL     1      -0.395  11.695  20.243  0.00  0.00    +0.000 A 
ATOM      7  C   UNL     1      -0.216  11.348  21.534  0.00  0.00    +0.000 A 
ATOM      8  C   UNL     1       0.585  10.092  21.745  0.00  0.00    +0.000 A 
ATOM      9  O   UNL     1       0.833   9.640  22.854  0.00  0.00    +0.000 OA
ATOM     10  C   UNL     1       1.069   9.324  20.517  0.00  0.00    +0.000 A 
ATOM     11  C   UNL     1       1.692   8.059  20.602  0.00  0.00    +0.000 A 
ATOM     12  H   UNL     1      -0.206  11.365  18.231  0.00  0.00    +0.000 HD
ENDROOT
BRANCH   7  13
ATOM     13  C   UNL     1      -1.008  12.204  22.506  0.00  0.00    +0.000 C 
ATOM     14  O   UNL     1      -1.992  11.669  23.030  0.00  0.00    +0.000 OA
ATOM     15  N   UNL     1      -0.745  13.546  22.792  0.00  0.00    +0.000 N 
ATOM     16  C   UNL     1      -1.535  14.171  23.868  0.00  0.00    +0.000 C 
ATOM     17  C   UNL     1      -2.727  14.984  23.355  0.00  0.00    +0.000 C 
ATOM     18  C   UNL     1      -2.374  16.372  22.821  0.00  0.00    +0.000 C 
ATOM     19  C   UNL     1      -1.306  16.385  21.730  0.00  0.00    +0.000 C 
ATOM     20  C   UNL     1       0.061  15.896  22.211  0.00  0.00    +0.000 C 
ATOM     21  C   UNL     1       0.273  14.371  22.147  0.00  0.00    +0.000 C 
ENDBRANCH   7  13
BRANCH   1  22
ATOM     22  S   UNL     1       2.640   5.703  19.429  0.00  0.00    +0.000 S 
ATOM     23  O   UNL     1       2.029   5.064  18.283  0.00  0.00    +0.000 OA
ATOM     24  O   UNL     1       2.419   5.175  20.763  0.00  0.00    +0.000 OA
BRANCH  22  25
ATOM     25  N   UNL     1       4.312   5.639  19.174  0.00  0.00    +0.000 N 
ATOM     26  H   UNL     1       4.653   6.540  19.517  0.00  0.00    +0.000 HD
BRANCH  25  30
ATOM     27  C   UNL     1       5.902   4.906  15.336  0.00  0.00    +0.000 A 
ATOM     28  C   UNL     1       5.508   6.204  15.684  0.00  0.00    +0.000 A 
ATOM     29  C   UNL     1       4.968   6.474  16.949  0.00  0.00    +0.000 A 
ATOM     30  C   UNL     1       4.811   5.433  17.853  0.00  0.00    +0.000 A 
ATOM     31  C   UNL     1       5.181   4.134  17.509  0.00  0.00    +0.000 A 
ATOM     32  C   UNL     1       5.726   3.869  16.251  0.00  0.00    +0.000 A 
BRANCH  27  33
ATOM     33  O   UNL     1       6.412   4.768  14.073  0.00  0.00    +0.000 OA
BRANCH  33  35
ATOM     34  C   UNL     1       6.734   3.544  12.045  0.00  0.00    +0.000 C 
ATOM     35  C   UNL     1       5.872   3.705  13.284  0.00  0.00    +0.000 C 
ENDBRANCH  33  35
ENDBRANCH  27  33
ENDBRANCH  25  30
ENDBRANCH  22  25
ENDBRANCH   1  22
TORSDOF 6
ENDMDL
MODEL 5
REMARK VINA RESULT:      -9.0      3.138      8.747
REMARK  Name = 
REMARK  7 active torsions:
REMARK  status: ('A' for Active; 'I' for Inactive)
REMARK    1  A    between atoms: C_1  and  C_2
REMARK    2  A    between atoms: C_2  and  O_3
REMARK    3  A    between atoms: O_3  and  C_4
REMARK    4  A    between atoms: C_7  and  N_8
REMARK    5  A    between atoms: N_8  and  S_9
REMARK    6  A    between atoms: S_9  and  C_12
REMARK    7  A    between atoms: C_18  and  C_19
REMARK                            x       y       z     vdW  Elec       q    Type
REMARK                         _______ _______ _______ _____ _____    ______ ____
ROOT
ATOM      1  C   UNL     1      -0.239  11.137  20.058  0.00  0.00    +0.000 A 
ATOM      2  C   UNL     1      -0.269  10.623  21.358  0.00  0.00    +0.000 A 
ATOM      3  C   UNL     1       0.408   9.442  21.639  0.00  0.00    +0.000 A 
ATOM      4  C   UNL     1       1.109   8.759  20.629  0.00  0.00    +0.000 A 
ATOM      5  N   UNL     1       1.738   7.547  20.922  0.00  0.00    +0.000 N 
ATOM      6  C   UNL     1       2.354   6.826  19.936  0.00  0.00    +0.000 A 
ATOM      7  C   UNL     1       2.618   7.223  18.674  0.00  0.00    +0.000 A 
ATOM      8  C   UNL     1       2.048   8.566  18.303  0.00  0.00    +0.000 A 
ATOM      9  O   UNL     1       2.193   9.067  17.197  0.00  0.00    +0.000 OA
ATOM     10  C   UNL     1       1.212   9.312  19.341  0.00  0.00    +0.000 A 
ATOM     11  C   UNL     1       0.507  10.500  19.045  0.00  0.00    +0.000 A 
ATOM     12  H   UNL     1       1.457   7.055  21.761  0.00  0.00    +0.000 HD
ENDROOT
BRANCH   7  13
ATOM     13  C   UNL     1       3.290   6.155  17.830  0.00  0.00    +0.000 C 
ATOM     14  O   UNL     1       2.660   5.101  17.679  0.00  0.00    +0.000 OA
ATOM     15  N   UNL     1       4.571   6.254  17.281  0.00  0.00    +0.000 N 
ATOM     16  C   UNL     1       4.998   5.174  16.373  0.00  0.00    +0.000 C 
ATOM     17  C   UNL     1       5.866   4.113  17.056  0.00  0.00    +0.000 C 
ATOM     18  C   UNL     1       7.328   4.512  17.255  0.00  0.00    +0.000 C 
ATOM     19  C   UNL     1       7.537   5.826  18.003  0.00  0.00    +0.000 C 
ATOM     20  C   UNL     1       6.996   7.045  17.254  0.00  0.00    +0.000 C 
ATOM     21  C   UNL     1       5.506   7.355  17.493  0.00  0.00    +0.000 C 
ENDBRANCH   7  13
BRANCH   1  22
ATOM     22  S   UNL     1      -1.379  12.463  19.688  0.00  0.00    +0.000 S 
ATOM     23  O   UNL     1      -1.373  13.362  20.822  0.00  0.00    +0.000 OA
ATOM     24  O   UNL     1      -2.622  11.867  19.235  0.00  0.00    +0.000 OA
BRANCH  22  25
ATOM     25  N   UNL     1      -0.782  13.349  18.375  0.00  0.00    +0.000 N 
ATOM     26  H   UNL     1      -0.401  12.640  17.745  0.00  0.00    +0.000 HD
BRANCH  25  30
ATOM     27  C   UNL     1       2.072  16.407  18.925  0.00  0.00    +0.000 A 
ATOM     28  C   UNL     1       2.489  15.071  18.890  0.00  0.00    +0.000 A 
ATOM     29  C   UNL     1       1.561  14.034  18.718  0.00  0.00    +0.000 A 
ATOM     30  C   UNL     1       0.214  14.346  18.598  0.00  0.00    +0.000 A 
ATOM     31  C   UNL     1      -0.213  15.672  18.653  0.00  0.00    +0.000 A 
ATOM     32  C   UNL     1       0.714  16.702  18.816  0.00  0.00    +0.000 A 
BRANCH  27  33
ATOM     33  O   UNL     1       3.070  17.327  19.101  0.00  0.00    +0.000 OA
BRANCH  33  35
ATOM     34  C   UNL     1       5.003  17.400  20.506  0.00  0.00    +0.000 C 
ATOM     35  C   UNL     1       4.393  16.808  19.248  0.00  0.00    +0.000 C 
ENDBRANCH  33  35
ENDBRANCH  27  33
ENDBRANCH  25  30
ENDBRANCH  22  25
ENDBRANCH   1  22
TORSDOF 6
ENDMDL
MODEL 6
REMARK VINA RESULT:      -8.9      3.494     10.470
REMARK  Name = 
REMARK  7 active torsions:
REMARK  status: ('A' for Active; 'I' for Inactive)
REMARK    1  A    between atoms: C_1  and  C_2
REMARK    2  A    between atoms: C_2  and  O_3
REMARK    3  A    between atoms: O_3  and  C_4
REMARK    4  A    between atoms: C_7  and  N_8
REMARK    5  A    between atoms: N_8  and  S_9
REMARK    6  A    between atoms: S_9  and  C_12
REMARK    7  A    between atoms: C_18  and  C_19
REMARK                            x       y       z     vdW  Elec       q    Type
REMARK                         _______ _______ _______ _____ _____    ______ ____
ROOT
ATOM      1  C   UNL     1      -0.249  11.087  20.010  0.00  0.00    +0.000 A 
ATOM      2  C   UNL     1      -0.310  10.558  21.303  0.00  0.00    +0.000 A 
ATOM      3  C   UNL     1       0.359   9.372  21.586  0.00  0.00    +0.000 A 
ATOM      4  C   UNL     1       1.083   8.701  20.585  0.00  0.00    +0.000 A 
ATOM      5  N   UNL     1       1.704   7.485  20.877  0.00  0.00    +0.000 N 
ATOM      6  C   UNL     1       2.342   6.774  19.897  0.00  0.00    +0.000 A 
ATOM      7  C   UNL     1       2.635   7.187  18.646  0.00  0.00    +0.000 A 
ATOM      8  C   UNL     1       2.075   8.534  18.279  0.00  0.00    +0.000 A 
ATOM      9  O   UNL     1       2.247   9.049  17.182  0.00  0.00    +0.000 OA
ATOM     10  C   UNL     1       1.217   9.269  19.305  0.00  0.00    +0.000 A 
ATOM     11  C   UNL     1       0.520  10.461  19.008  0.00  0.00    +0.000 A 
ATOM     12  H   UNL     1       1.403   6.983  21.704  0.00  0.00    +0.000 HD
ENDROOT
BRANCH   7  13
ATOM     13  C   UNL     1       3.326   6.128  17.806  0.00  0.00    +0.000 C 
ATOM     14  O   UNL     1       2.709   5.068  17.647  0.00  0.00    +0.000 OA
ATOM     15  N   UNL     1       4.610   6.243  17.267  0.00  0.00    +0.000 N 
ATOM     16  C   UNL     1       5.056   5.169  16.361  0.00  0.00    +0.000 C 
ATOM     17  C   UNL     1       5.930   4.117  17.048  0.00  0.00    +0.000 C 
ATOM     18  C   UNL     1       7.386   4.531  17.259  0.00  0.00    +0.000 C 
ATOM     19  C   UNL     1       7.575   5.846  18.012  0.00  0.00    +0.000 C 
ATOM     20  C   UNL     1       7.027   7.060  17.262  0.00  0.00    +0.000 C 
ATOM     21  C   UNL     1       5.531   7.353  17.489  0.00  0.00    +0.000 C 
ENDBRANCH   7  13
BRANCH   1  22
ATOM     22  S   UNL     1      -1.379  12.419  19.630  0.00  0.00    +0.000 S 
ATOM     23  O   UNL     1      -2.693  11.833  19.468  0.00  0.00    +0.000 OA
ATOM     24  O   UNL     1      -0.794  13.206  18.562  0.00  0.00    +0.000 OA
BRANCH  22  25
ATOM     25  N   UNL     1      -1.480  13.451  20.968  0.00  0.00    +0.000 N 
ATOM     26  H   UNL     1      -0.775  13.092  21.616  0.00  0.00    +0.000 HD
BRANCH  25  30
ATOM     27  C   UNL     1      -5.144  13.643  23.050  0.00  0.00    +0.000 A 
ATOM     28  C   UNL     1      -4.922  14.497  21.963  0.00  0.00    +0.000 A 
ATOM     29  C   UNL     1      -3.710  14.461  21.260  0.00  0.00    +0.000 A 
ATOM     30  C   UNL     1      -2.720  13.576  21.663  0.00  0.00    +0.000 A 
ATOM     31  C   UNL     1      -2.924  12.737  22.757  0.00  0.00    +0.000 A 
ATOM     32  C   UNL     1      -4.135  12.769  23.451  0.00  0.00    +0.000 A 
BRANCH  27  33
ATOM     33  O   UNL     1      -6.364  13.774  23.658  0.00  0.00    +0.000 OA
BRANCH  33  35
ATOM     34  C   UNL     1      -7.790  12.127  22.673  0.00  0.00    +0.000 C 
ATOM     35  C   UNL     1      -7.067  12.561  23.936  0.00  0.00    +0.000 C 
ENDBRANCH  33  35
ENDBRANCH  27  33
ENDBRANCH  25  30
ENDBRANCH  22  25
ENDBRANCH   1  22
TORSDOF 6
ENDMDL
MODEL 7
REMARK VINA RESULT:      -8.9      0.808      1.254
REMARK  Name = 
REMARK  7 active torsions:
REMARK  status: ('A' for Active; 'I' for Inactive)
REMARK    1  A    between atoms: C_1  and  C_2
REMARK    2  A    between atoms: C_2  and  O_3
REMARK    3  A    between atoms: O_3  and  C_4
REMARK    4  A    between atoms: C_7  and  N_8
REMARK    5  A    between atoms: N_8  and  S_9
REMARK    6  A    between atoms: S_9  and  C_12
REMARK    7  A    between atoms: C_18  and  C_19
REMARK                            x       y       z     vdW  Elec       q    Type
REMARK                         _______ _______ _______ _____ _____    ______ ____
ROOT
ATOM      1  C   UNL     1       3.260   4.757  18.624  0.00  0.00    +0.000 A 
ATOM      2  C   UNL     1       2.866   4.200  19.844  0.00  0.00    +0.000 A 
ATOM      3  C   UNL     1       2.185   4.988  20.764  0.00  0.00    +0.000 A 
ATOM      4  C   UNL     1       1.902   6.336  20.483  0.00  0.00    +0.000 A 
ATOM      5  N   UNL     1       1.262   7.125  21.443  0.00  0.00    +0.000 N 
ATOM      6  C   UNL     1       1.053   8.459  21.222  0.00  0.00    +0.000 A 
ATOM      7  C   UNL     1       1.221   9.133  20.066  0.00  0.00    +0.000 A 
ATOM      8  C   UNL     1       1.825   8.328  18.948  0.00  0.00    +0.000 A 
ATOM      9  O   UNL     1       2.046   8.793  17.838  0.00  0.00    +0.000 OA
ATOM     10  C   UNL     1       2.222   6.880  19.227  0.00  0.00    +0.000 A 
ATOM     11  C   UNL     1       2.934   6.089  18.298  0.00  0.00    +0.000 A 
ATOM     12  H   UNL     1       1.260   6.799  22.402  0.00  0.00    +0.000 HD
ENDROOT
BRANCH   7  13
ATOM     13  C   UNL     1       0.924  10.617  20.182  0.00  0.00    +0.000 C 
ATOM     14  O   UNL     1       1.536  11.230  21.066  0.00  0.00    +0.000 OA
ATOM     15  N   UNL     1      -0.021  11.309  19.420  0.00  0.00    +0.000 N 
ATOM     16  C   UNL     1      -0.067  12.774  19.577  0.00  0.00    +0.000 C 
ATOM     17  C   UNL     1      -1.162  13.249  20.536  0.00  0.00    +0.000 C 
ATOM     18  C   UNL     1      -2.569  13.277  19.940  0.00  0.00    +0.000 C 
ATOM     19  C   UNL     1      -3.034  11.955  19.332  0.00  0.00    +0.000 C 
ATOM     20  C   UNL     1      -2.206  11.519  18.122  0.00  0.00    +0.000 C 
ATOM     21  C   UNL     1      -0.935  10.713  18.451  0.00  0.00    +0.000 C 
ENDBRANCH   7  13
BRANCH   1  22
ATOM     22  S   UNL     1       4.401   3.802  17.633  0.00  0.00    +0.000 S 
ATOM     23  O   UNL     1       4.397   4.374  16.303  0.00  0.00    +0.000 OA
ATOM     24  O   UNL     1       4.088   2.398  17.825  0.00  0.00    +0.000 OA
BRANCH  22  25
ATOM     25  N   UNL     1       5.967   4.017  18.238  0.00  0.00    +0.000 N 
ATOM     26  H   UNL     1       5.894   3.754  19.224  0.00  0.00    +0.000 HD
BRANCH  25  30
ATOM     27  C   UNL     1       7.768   7.806  17.800  0.00  0.00    +0.000 A 
ATOM     28  C   UNL     1       8.187   6.958  18.832  0.00  0.00    +0.000 A 
ATOM     29  C   UNL     1       7.599   5.697  19.006  0.00  0.00    +0.000 A 
ATOM     30  C   UNL     1       6.580   5.302  18.151  0.00  0.00    +0.000 A 
ATOM     31  C   UNL     1       6.142   6.149  17.133  0.00  0.00    +0.000 A 
ATOM     32  C   UNL     1       6.735   7.400  16.957  0.00  0.00    +0.000 A 
BRANCH  27  33
ATOM     33  O   UNL     1       8.415   9.011  17.734  0.00  0.00    +0.000 OA
BRANCH  33  35
ATOM     34  C   UNL     1       9.550  10.883  18.694  0.00  0.00    +0.000 C 
ATOM     35  C   UNL     1       8.899   9.540  18.970  0.00  0.00    +0.000 C 
ENDBRANCH  33  35
ENDBRANCH  27  33
ENDBRANCH  25  30
ENDBRANCH  22  25
ENDBRANCH   1  22
TORSDOF 6
ENDMDL
MODEL 8
REMARK VINA RESULT:      -8.8      3.065      8.366
REMARK  Name = 
REMARK  7 active torsions:
REMARK  status: ('A' for Active; 'I' for Inactive)
REMARK    1  A    between atoms: C_1  and  C_2
REMARK    2  A    between atoms: C_2  and  O_3
REMARK    3  A    between atoms: O_3  and  C_4
REMARK    4  A    between atoms: C_7  and  N_8
REMARK    5  A    between atoms: N_8  and  S_9
REMARK    6  A    between atoms: S_9  and  C_12
REMARK    7  A    between atoms: C_18  and  C_19
REMARK                            x       y       z     vdW  Elec       q    Type
REMARK                         _______ _______ _______ _____ _____    ______ ____
ROOT
ATOM      1  C   UNL     1      -0.398  11.096  19.613  0.00  0.00    +0.000 A 
ATOM      2  C   UNL     1      -0.454  10.686  20.948  0.00  0.00    +0.000 A 
ATOM      3  C   UNL     1       0.266   9.565  21.347  0.00  0.00    +0.000 A 
ATOM      4  C   UNL     1       1.036   8.841  20.421  0.00  0.00    +0.000 A 
ATOM      5  N   UNL     1       1.710   7.688  20.832  0.00  0.00    +0.000 N 
ATOM      6  C   UNL     1       2.396   6.923  19.929  0.00  0.00    +0.000 A 
ATOM      7  C   UNL     1       2.689   7.232  18.649  0.00  0.00    +0.000 A 
ATOM      8  C   UNL     1       2.072   8.511  18.152  0.00  0.00    +0.000 A 
ATOM      9  O   UNL     1       2.235   8.930  17.014  0.00  0.00    +0.000 OA
ATOM     10  C   UNL     1       1.163   9.294  19.096  0.00  0.00    +0.000 A 
ATOM     11  C   UNL     1       0.415  10.419  18.681  0.00  0.00    +0.000 A 
ATOM     12  H   UNL     1       1.420   7.250  21.698  0.00  0.00    +0.000 HD
ENDROOT
BRANCH   7  13
ATOM     13  C   UNL     1       3.442   6.135  17.918  0.00  0.00    +0.000 C 
ATOM     14  O   UNL     1       2.860   5.049  17.811  0.00  0.00    +0.000 OA
ATOM     15  N   UNL     1       4.746   6.246  17.428  0.00  0.00    +0.000 N 
ATOM     16  C   UNL     1       5.258   5.123  16.622  0.00  0.00    +0.000 C 
ATOM     17  C   UNL     1       6.126   4.147  17.421  0.00  0.00    +0.000 C 
ATOM     18  C   UNL     1       7.561   4.616  17.663  0.00  0.00    +0.000 C 
ATOM     19  C   UNL     1       7.683   5.986  18.325  0.00  0.00    +0.000 C 
ATOM     20  C   UNL     1       7.139   7.128  17.465  0.00  0.00    +0.000 C 
ATOM     21  C   UNL     1       5.628   7.395  17.607  0.00  0.00    +0.000 C 
ENDBRANCH   7  13
BRANCH   1  22
ATOM     22  S   UNL     1      -1.584  12.330  19.098  0.00  0.00    +0.000 S 
ATOM     23  O   UNL     1      -2.538  12.484  20.176  0.00  0.00    +0.000 OA
ATOM     24  O   UNL     1      -2.038  11.981  17.765  0.00  0.00    +0.000 OA
BRANCH  22  25
ATOM     25  N   UNL     1      -0.794  13.820  18.946  0.00  0.00    +0.000 N 
ATOM     26  H   UNL     1      -0.735  13.972  17.937  0.00  0.00    +0.000 HD
BRANCH  25  30
ATOM     27  C   UNL     1       3.110  14.170  20.505  0.00  0.00    +0.000 A 
ATOM     28  C   UNL     1       2.010  14.349  21.352  0.00  0.00    +0.000 A 
ATOM     29  C   UNL     1       0.702  14.247  20.859  0.00  0.00    +0.000 A 
ATOM     30  C   UNL     1       0.506  13.983  19.511  0.00  0.00    +0.000 A 
ATOM     31  C   UNL     1       1.595  13.824  18.655  0.00  0.00    +0.000 A 
ATOM     32  C   UNL     1       2.897  13.918  19.150  0.00  0.00    +0.000 A 
BRANCH  27  33
ATOM     33  O   UNL     1       4.336  14.297  21.103  0.00  0.00    +0.000 OA
BRANCH  33  35
ATOM     34  C   UNL     1       5.357  14.147  23.259  0.00  0.00    +0.000 C 
ATOM     35  C   UNL     1       4.349  14.892  22.402  0.00  0.00    +0.000 C 
ENDBRANCH  33  35
ENDBRANCH  27  33
ENDBRANCH  25  30
ENDBRANCH  22  25
ENDBRANCH   1  22
TORSDOF 6
ENDMDL
MODEL 9
REMARK VINA RESULT:      -8.8      3.037      8.332
REMARK  Name = 
REMARK  7 active torsions:
REMARK  status: ('A' for Active; 'I' for Inactive)
REMARK    1  A    between atoms: C_1  and  C_2
REMARK    2  A    between atoms: C_2  and  O_3
REMARK    3  A    between atoms: O_3  and  C_4
REMARK    4  A    between atoms: C_7  and  N_8
REMARK    5  A    between atoms: N_8  and  S_9
REMARK    6  A    between atoms: S_9  and  C_12
REMARK    7  A    between atoms: C_18  and  C_19
REMARK                            x       y       z     vdW  Elec       q    Type
REMARK                         _______ _______ _______ _____ _____    ______ ____
ROOT
ATOM      1  C   UNL     1      -0.392  11.112  19.605  0.00  0.00    +0.000 A 
ATOM      2  C   UNL     1      -0.499  10.692  20.934  0.00  0.00    +0.000 A 
ATOM      3  C   UNL     1       0.182   9.551  21.345  0.00  0.00    +0.000 A 
ATOM      4  C   UNL     1       0.964   8.817  20.436  0.00  0.00    +0.000 A 
ATOM      5  N   UNL     1       1.599   7.646  20.857  0.00  0.00    +0.000 N 
ATOM      6  C   UNL     1       2.296   6.873  19.969  0.00  0.00    +0.000 A 
ATOM      7  C   UNL     1       2.635   7.186  18.702  0.00  0.00    +0.000 A 
ATOM      8  C   UNL     1       2.063   8.483  18.197  0.00  0.00    +0.000 A 
ATOM      9  O   UNL     1       2.272   8.908  17.070  0.00  0.00    +0.000 OA
ATOM     10  C   UNL     1       1.143   9.279  19.120  0.00  0.00    +0.000 A 
ATOM     11  C   UNL     1       0.434  10.424  18.693  0.00  0.00    +0.000 A 
ATOM     12  H   UNL     1       1.272   7.207  21.710  0.00  0.00    +0.000 HD
ENDROOT
BRANCH   7  13
ATOM     13  C   UNL     1       3.386   6.079  17.984  0.00  0.00    +0.000 C 
ATOM     14  O   UNL     1       2.826   4.976  17.942  0.00  0.00    +0.000 OA
ATOM     15  N   UNL     1       4.666   6.200  17.439  0.00  0.00    +0.000 N 
ATOM     16  C   UNL     1       5.174   5.058  16.657  0.00  0.00    +0.000 C 
ATOM     17  C   UNL     1       6.096   4.134  17.458  0.00  0.00    +0.000 C 
ATOM     18  C   UNL     1       7.527   4.644  17.625  0.00  0.00    +0.000 C 
ATOM     19  C   UNL     1       7.642   6.042  18.229  0.00  0.00    +0.000 C 
ATOM     20  C   UNL     1       7.037   7.136  17.348  0.00  0.00    +0.000 C 
ATOM     21  C   UNL     1       5.527   7.375  17.539  0.00  0.00    +0.000 C 
ENDBRANCH   7  13
BRANCH   1  22
ATOM     22  S   UNL     1      -1.533  12.378  19.065  0.00  0.00    +0.000 S 
ATOM     23  O   UNL     1      -2.372  12.710  20.197  0.00  0.00    +0.000 OA
ATOM     24  O   UNL     1      -2.130  11.935  17.819  0.00  0.00    +0.000 OA
BRANCH  22  25
ATOM     25  N   UNL     1      -0.660  13.779  18.692  0.00  0.00    +0.000 N 
ATOM     26  H   UNL     1      -0.606  13.778  17.671  0.00  0.00    +0.000 HD
BRANCH  25  30
ATOM     27  C   UNL     1       3.167  14.412  20.350  0.00  0.00    +0.000 A 
ATOM     28  C   UNL     1       3.052  13.987  19.022  0.00  0.00    +0.000 A 
ATOM     29  C   UNL     1       1.793  13.760  18.448  0.00  0.00    +0.000 A 
ATOM     30  C   UNL     1       0.655  13.946  19.220  0.00  0.00    +0.000 A 
ATOM     31  C   UNL     1       0.760  14.349  20.551  0.00  0.00    +0.000 A 
ATOM     32  C   UNL     1       2.014  14.582  21.117  0.00  0.00    +0.000 A 
BRANCH  27  33
ATOM     33  O   UNL     1       4.448  14.597  20.797  0.00  0.00    +0.000 OA
BRANCH  33  35
ATOM     34  C   UNL     1       4.763  16.934  20.408  0.00  0.00    +0.000 C 
ATOM     35  C   UNL     1       5.244  15.534  20.070  0.00  0.00    +0.000 C 
ENDBRANCH  33  35
ENDBRANCH  27  33
ENDBRANCH  25  30
ENDBRANCH  22  25
ENDBRANCH   1  22
TORSDOF 6
ENDMDL
