MODEL 1
REMARK VINA RESULT:      -8.1      0.000      0.000
REMARK  Name = 
REMARK  4 active torsions:
REMARK  status: ('A' for Active; 'I' for Inactive)
REMARK    1  A    between atoms: C_8  and  C_9
REMARK    2  A    between atoms: C_11  and  C_12
REMARK    3  A    between atoms: C_15  and  S_16
REMARK    4  A    between atoms: S_16  and  C_17
REMARK                            x       y       z     vdW  Elec       q    Type
REMARK                         _______ _______ _______ _____ _____    ______ ____
ROOT
ATOM      1  C   UNL     1      -2.793  11.774  18.724  0.00  0.00    +0.000 A 
ATOM      2  N   UNL     1      -2.166  10.623  18.889  0.00  0.00    +0.000 NA
ATOM      3  C   UNL     1      -0.819  10.888  18.806  0.00  0.00    +0.000 A 
ATOM      4  C   UNL     1      -0.613  12.225  18.558  0.00  0.00    +0.000 A 
ATOM      5  N   UNL     1      -1.865  12.771  18.516  0.00  0.00    +0.000 N 
ATOM      6  H   UNL     1      -2.088  13.748  18.370  0.00  0.00    +0.000 HD
ENDROOT
BRANCH   1  14
ATOM      7  F   UNL     1      -4.437  11.349  16.480  0.00  0.00    +0.000 F 
ATOM      8  C   UNL     1      -5.017  11.794  17.610  0.00  0.00    +0.000 A 
ATOM      9  C   UNL     1      -6.395  12.011  17.579  0.00  0.00    +0.000 A 
ATOM     10  C   UNL     1      -7.047  12.457  18.721  0.00  0.00    +0.000 A 
ATOM     11  C   UNL     1      -6.311  12.679  19.883  0.00  0.00    +0.000 A 
ATOM     12  C   UNL     1      -4.923  12.464  19.909  0.00  0.00    +0.000 A 
ATOM     13 CL   UNL     1      -4.144  12.729  21.434  0.00  0.00    +0.000 Cl
ATOM     14  C   UNL     1      -4.243  12.015  18.762  0.00  0.00    +0.000 A 
ENDBRANCH   1  14
BRANCH   3  15
ATOM     15  C   UNL     1       0.210   9.873  18.938  0.00  0.00    +0.000 A 
ATOM     16  C   UNL     1       0.907   9.444  17.804  0.00  0.00    +0.000 A 
ATOM     17  C   UNL     1       1.894   8.458  17.906  0.00  0.00    +0.000 A 
ATOM     18  C   UNL     1       2.204   7.892  19.146  0.00  0.00    +0.000 A 
ATOM     19  C   UNL     1       1.500   8.308  20.281  0.00  0.00    +0.000 A 
ATOM     20  C   UNL     1       0.509   9.294  20.178  0.00  0.00    +0.000 A 
BRANCH  18  21
ATOM     21  S   UNL     1       3.432   6.603  19.256  0.00  0.00    +0.000 S 
BRANCH  21  22
ATOM     22  C   UNL     1       2.419   5.135  19.342  0.00  0.00    +0.000 A 
ATOM     23  C   UNL     1       1.950   4.703  20.588  0.00  0.00    +0.000 A 
ATOM     24  C   UNL     1       1.156   3.557  20.687  0.00  0.00    +0.000 A 
ATOM     25  C   UNL     1       0.813   2.844  19.540  0.00  0.00    +0.000 A 
ATOM     26  C   UNL     1       1.250   3.283  18.293  0.00  0.00    +0.000 A 
ATOM     27  C   UNL     1       2.046   4.428  18.194  0.00  0.00    +0.000 A 
ENDBRANCH  21  22
ENDBRANCH  18  21
ENDBRANCH   3  15
TORSDOF 4
ENDMDL
MODEL 2
REMARK VINA RESULT:      -8.1      1.656      1.937
REMARK  Name = 
REMARK  4 active torsions:
REMARK  status: ('A' for Active; 'I' for Inactive)
REMARK    1  A    between atoms: C_8  and  C_9
REMARK    2  A    between atoms: C_11  and  C_12
REMARK    3  A    between atoms: C_15  and  S_16
REMARK    4  A    between atoms: S_16  and  C_17
REMARK                            x       y       z     vdW  Elec       q    Type
REMARK                         _______ _______ _______ _____ _____    ______ ____
ROOT
ATOM      1  C   UNL     1      -1.950  11.440  18.623  0.00  0.00    +0.000 A 
ATOM      2  N   UNL     1      -1.419  10.234  18.701  0.00  0.00    +0.000 NA
ATOM      3  C   UNL     1      -0.065  10.405  18.872  0.00  0.00    +0.000 A 
ATOM      4  C   UNL     1       0.248  11.744  18.874  0.00  0.00    +0.000 A 
ATOM      5  N   UNL     1      -0.950  12.384  18.723  0.00  0.00    +0.000 N 
ATOM      6  H   UNL     1      -1.096  13.386  18.700  0.00  0.00    +0.000 HD
ENDROOT
BRANCH   1  14
ATOM      7  F   UNL     1      -3.460  12.522  20.738  0.00  0.00    +0.000 F 
ATOM      8  C   UNL     1      -4.081  12.313  19.563  0.00  0.00    +0.000 A 
ATOM      9  C   UNL     1      -5.432  12.652  19.486  0.00  0.00    +0.000 A 
ATOM     10  C   UNL     1      -6.120  12.471  18.293  0.00  0.00    +0.000 A 
ATOM     11  C   UNL     1      -5.446  11.953  17.190  0.00  0.00    +0.000 A 
ATOM     12  C   UNL     1      -4.086  11.609  17.272  0.00  0.00    +0.000 A 
ATOM     13 CL   UNL     1      -3.362  11.028  15.809  0.00  0.00    +0.000 Cl
ATOM     14  C   UNL     1      -3.372  11.783  18.472  0.00  0.00    +0.000 A 
ENDBRANCH   1  14
BRANCH   3  15
ATOM     15  C   UNL     1       0.875   9.306  19.001  0.00  0.00    +0.000 A 
ATOM     16  C   UNL     1       1.618   8.898  17.889  0.00  0.00    +0.000 A 
ATOM     17  C   UNL     1       2.520   7.833  17.988  0.00  0.00    +0.000 A 
ATOM     18  C   UNL     1       2.697   7.166  19.204  0.00  0.00    +0.000 A 
ATOM     19  C   UNL     1       1.946   7.561  20.315  0.00  0.00    +0.000 A 
ATOM     20  C   UNL     1       1.040   8.626  20.215  0.00  0.00    +0.000 A 
BRANCH  18  21
ATOM     21  S   UNL     1       3.816   5.780  19.305  0.00  0.00    +0.000 S 
BRANCH  21  22
ATOM     22  C   UNL     1       2.689   4.407  19.473  0.00  0.00    +0.000 A 
ATOM     23  C   UNL     1       2.344   3.962  20.754  0.00  0.00    +0.000 A 
ATOM     24  C   UNL     1       1.463   2.889  20.918  0.00  0.00    +0.000 A 
ATOM     25  C   UNL     1       0.911   2.262  19.803  0.00  0.00    +0.000 A 
ATOM     26  C   UNL     1       1.225   2.717  18.525  0.00  0.00    +0.000 A 
ATOM     27  C   UNL     1       2.106   3.790  18.361  0.00  0.00    +0.000 A 
ENDBRANCH  21  22
ENDBRANCH  18  21
ENDBRANCH   3  15
TORSDOF 4
ENDMDL
MODEL 3
REMARK VINA RESULT:      -8.0      1.466      1.982
REMARK  Name = 
REMARK  4 active torsions:
REMARK  status: ('A' for Active; 'I' for Inactive)
REMARK    1  A    between atoms: C_8  and  C_9
REMARK    2  A    between atoms: C_11  and  C_12
REMARK    3  A    between atoms: C_15  and  S_16
REMARK    4  A    between atoms: S_16  and  C_17
REMARK                            x       y       z     vdW  Elec       q    Type
REMARK                         _______ _______ _______ _____ _____    ______ ____
ROOT
ATOM      1  C   UNL     1      -2.539  11.706  18.705  0.00  0.00    +0.000 A 
ATOM      2  N   UNL     1      -1.958  10.521  18.759  0.00  0.00    +0.000 NA
ATOM      3  C   UNL     1      -0.603  10.745  18.836  0.00  0.00    +0.000 A 
ATOM      4  C   UNL     1      -0.342  12.095  18.803  0.00  0.00    +0.000 A 
ATOM      5  N   UNL     1      -1.571  12.687  18.726  0.00  0.00    +0.000 N 
ATOM      6  H   UNL     1      -1.756  13.683  18.702  0.00  0.00    +0.000 HD
ENDROOT
BRANCH   1  14
ATOM      7  F   UNL     1      -3.928  12.827  20.880  0.00  0.00    +0.000 F 
ATOM      8  C   UNL     1      -4.626  12.546  19.765  0.00  0.00    +0.000 A 
ATOM      9  C   UNL     1      -5.991  12.836  19.775  0.00  0.00    +0.000 A 
ATOM     10  C   UNL     1      -6.757  12.580  18.645  0.00  0.00    +0.000 A 
ATOM     11  C   UNL     1      -6.146  12.039  17.516  0.00  0.00    +0.000 A 
ATOM     12  C   UNL     1      -4.772  11.745  17.511  0.00  0.00    +0.000 A 
ATOM     13 CL   UNL     1      -4.136  11.125  16.023  0.00  0.00    +0.000 Cl
ATOM     14  C   UNL     1      -3.979  11.994  18.646  0.00  0.00    +0.000 A 
ENDBRANCH   1  14
BRANCH   3  15
ATOM     15  C   UNL     1       0.384   9.684  18.914  0.00  0.00    +0.000 A 
ATOM     16  C   UNL     1       0.661   9.087  20.148  0.00  0.00    +0.000 A 
ATOM     17  C   UNL     1       1.617   8.071  20.249  0.00  0.00    +0.000 A 
ATOM     18  C   UNL     1       2.307   7.633  19.115  0.00  0.00    +0.000 A 
ATOM     19  C   UNL     1       2.045   8.236  17.881  0.00  0.00    +0.000 A 
ATOM     20  C   UNL     1       1.088   9.256  17.780  0.00  0.00    +0.000 A 
BRANCH  18  21
ATOM     21  S   UNL     1       3.558   6.370  19.265  0.00  0.00    +0.000 S 
BRANCH  21  22
ATOM     22  C   UNL     1       2.574   4.882  19.333  0.00  0.00    +0.000 A 
ATOM     23  C   UNL     1       2.029   4.481  20.559  0.00  0.00    +0.000 A 
ATOM     24  C   UNL     1       1.255   3.320  20.644  0.00  0.00    +0.000 A 
ATOM     25  C   UNL     1       1.008   2.560  19.502  0.00  0.00    +0.000 A 
ATOM     26  C   UNL     1       1.520   2.968  18.273  0.00  0.00    +0.000 A 
ATOM     27  C   UNL     1       2.296   4.128  18.188  0.00  0.00    +0.000 A 
ENDBRANCH  21  22
ENDBRANCH  18  21
ENDBRANCH   3  15
TORSDOF 4
ENDMDL
MODEL 4
REMARK VINA RESULT:      -7.9      1.763      2.468
REMARK  Name = 
REMARK  4 active torsions:
REMARK  status: ('A' for Active; 'I' for Inactive)
REMARK    1  A    between atoms: C_8  and  C_9
REMARK    2  A    between atoms: C_11  and  C_12
REMARK    3  A    between atoms: C_15  and  S_16
REMARK    4  A    between atoms: S_16  and  C_17
REMARK                            x       y       z     vdW  Elec       q    Type
REMARK                         _______ _______ _______ _____ _____    ______ ____
ROOT
ATOM      1  C   UNL     1      -1.743  11.347  18.586  0.00  0.00    +0.000 A 
ATOM      2  N   UNL     1      -1.209  10.139  18.555  0.00  0.00    +0.000 NA
ATOM      3  C   UNL     1       0.127  10.287  18.849  0.00  0.00    +0.000 A 
ATOM      4  C   UNL     1       0.427  11.616  19.040  0.00  0.00    +0.000 A 
ATOM      5  N   UNL     1      -0.762  12.270  18.877  0.00  0.00    +0.000 N 
ATOM      6  H   UNL     1      -0.914  13.267  18.966  0.00  0.00    +0.000 HD
ENDROOT
BRANCH   1  14
ATOM      7  F   UNL     1      -3.343  12.423  20.635  0.00  0.00    +0.000 F 
ATOM      8  C   UNL     1      -3.908  12.233  19.430  0.00  0.00    +0.000 A 
ATOM      9  C   UNL     1      -5.250  12.588  19.290  0.00  0.00    +0.000 A 
ATOM     10  C   UNL     1      -5.881  12.426  18.063  0.00  0.00    +0.000 A 
ATOM     11  C   UNL     1      -5.159  11.913  16.988  0.00  0.00    +0.000 A 
ATOM     12  C   UNL     1      -3.808  11.553  17.134  0.00  0.00    +0.000 A 
ATOM     13 CL   UNL     1      -3.019  10.978  15.702  0.00  0.00    +0.000 Cl
ATOM     14  C   UNL     1      -3.152  11.706  18.369  0.00  0.00    +0.000 A 
ENDBRANCH   1  14
BRANCH   3  15
ATOM     15  C   UNL     1       1.063   9.180  18.915  0.00  0.00    +0.000 A 
ATOM     16  C   UNL     1       1.190   8.452  20.103  0.00  0.00    +0.000 A 
ATOM     17  C   UNL     1       2.095   7.390  20.193  0.00  0.00    +0.000 A 
ATOM     18  C   UNL     1       2.882   7.035  19.093  0.00  0.00    +0.000 A 
ATOM     19  C   UNL     1       2.770   7.768  17.909  0.00  0.00    +0.000 A 
ATOM     20  C   UNL     1       1.865   8.835  17.819  0.00  0.00    +0.000 A 
BRANCH  18  21
ATOM     21  S   UNL     1       4.066   5.708  19.236  0.00  0.00    +0.000 S 
BRANCH  21  22
ATOM     22  C   UNL     1       3.011   4.268  19.223  0.00  0.00    +0.000 A 
ATOM     23  C   UNL     1       2.841   3.559  18.028  0.00  0.00    +0.000 A 
ATOM     24  C   UNL     1       2.021   2.428  17.986  0.00  0.00    +0.000 A 
ATOM     25  C   UNL     1       1.376   1.990  19.141  0.00  0.00    +0.000 A 
ATOM     26  C   UNL     1       1.563   2.672  20.341  0.00  0.00    +0.000 A 
ATOM     27  C   UNL     1       2.382   3.803  20.383  0.00  0.00    +0.000 A 
ENDBRANCH  21  22
ENDBRANCH  18  21
ENDBRANCH   3  15
TORSDOF 4
ENDMDL
MODEL 5
REMARK VINA RESULT:      -7.9      3.066      4.008
REMARK  Name = 
REMARK  4 active torsions:
REMARK  status: ('A' for Active; 'I' for Inactive)
REMARK    1  A    between atoms: C_8  and  C_9
REMARK    2  A    between atoms: C_11  and  C_12
REMARK    3  A    between atoms: C_15  and  S_16
REMARK    4  A    between atoms: S_16  and  C_17
REMARK                            x       y       z     vdW  Elec       q    Type
REMARK                         _______ _______ _______ _____ _____    ______ ____
ROOT
ATOM      1  C   UNL     1      -0.445  10.787  18.767  0.00  0.00    +0.000 A 
ATOM      2  N   UNL     1      -0.054   9.542  18.968  0.00  0.00    +0.000 NA
ATOM      3  C   UNL     1       1.286   9.490  18.660  0.00  0.00    +0.000 A 
ATOM      4  C   UNL     1       1.723  10.724  18.237  0.00  0.00    +0.000 A 
ATOM      5  N   UNL     1       0.624  11.531  18.316  0.00  0.00    +0.000 N 
ATOM      6  H   UNL     1       0.589  12.519  18.095  0.00  0.00    +0.000 HD
ENDROOT
BRANCH   1  14
ATOM      7  F   UNL     1      -1.003  12.519  20.915  0.00  0.00    +0.000 F 
ATOM      8  C   UNL     1      -2.011  12.204  20.081  0.00  0.00    +0.000 A 
ATOM      9  C   UNL     1      -3.260  12.764  20.349  0.00  0.00    +0.000 A 
ATOM     10  C   UNL     1      -4.333  12.485  19.514  0.00  0.00    +0.000 A 
ATOM     11  C   UNL     1      -4.143  11.648  18.417  0.00  0.00    +0.000 A 
ATOM     12  C   UNL     1      -2.884  11.081  18.152  0.00  0.00    +0.000 A 
ATOM     13 CL   UNL     1      -2.779  10.103  16.726  0.00  0.00    +0.000 Cl
ATOM     14  C   UNL     1      -1.785  11.350  18.988  0.00  0.00    +0.000 A 
ENDBRANCH   1  14
BRANCH   3  15
ATOM     15  C   UNL     1       2.087   8.284  18.754  0.00  0.00    +0.000 A 
ATOM     16  C   UNL     1       2.991   7.973  17.733  0.00  0.00    +0.000 A 
ATOM     17  C   UNL     1       3.764   6.809  17.797  0.00  0.00    +0.000 A 
ATOM     18  C   UNL     1       3.650   5.942  18.888  0.00  0.00    +0.000 A 
ATOM     19  C   UNL     1       2.737   6.241  19.904  0.00  0.00    +0.000 A 
ATOM     20  C   UNL     1       1.961   7.405  19.839  0.00  0.00    +0.000 A 
BRANCH  18  21
ATOM     21  S   UNL     1       4.608   4.438  18.935  0.00  0.00    +0.000 S 
BRANCH  21  22
ATOM     22  C   UNL     1       5.438   4.479  17.355  0.00  0.00    +0.000 A 
ATOM     23  C   UNL     1       6.791   4.832  17.306  0.00  0.00    +0.000 A 
ATOM     24  C   UNL     1       7.469   4.874  16.084  0.00  0.00    +0.000 A 
ATOM     25  C   UNL     1       6.801   4.549  14.905  0.00  0.00    +0.000 A 
ATOM     26  C   UNL     1       5.463   4.167  14.947  0.00  0.00    +0.000 A 
ATOM     27  C   UNL     1       4.785   4.127  16.169  0.00  0.00    +0.000 A 
ENDBRANCH  21  22
ENDBRANCH  18  21
ENDBRANCH   3  15
TORSDOF 4
ENDMDL
MODEL 6
REMARK VINA RESULT:      -7.9      2.737      3.465
REMARK  Name = 
REMARK  4 active torsions:
REMARK  status: ('A' for Active; 'I' for Inactive)
REMARK    1  A    between atoms: C_8  and  C_9
REMARK    2  A    between atoms: C_11  and  C_12
REMARK    3  A    between atoms: C_15  and  S_16
REMARK    4  A    between atoms: S_16  and  C_17
REMARK                            x       y       z     vdW  Elec       q    Type
REMARK                         _______ _______ _______ _____ _____    ______ ____
ROOT
ATOM      1  C   UNL     1      -1.363  11.090  18.386  0.00  0.00    +0.000 A 
ATOM      2  N   UNL     1      -0.899   9.864  18.551  0.00  0.00    +0.000 NA
ATOM      3  C   UNL     1       0.465   9.969  18.687  0.00  0.00    +0.000 A 
ATOM      4  C   UNL     1       0.853  11.285  18.579  0.00  0.00    +0.000 A 
ATOM      5  N   UNL     1      -0.310  11.979  18.396  0.00  0.00    +0.000 N 
ATOM      6  H   UNL     1      -0.399  12.982  18.296  0.00  0.00    +0.000 HD
ENDROOT
BRANCH   1  14
ATOM      7  F   UNL     1      -2.826  12.245  20.495  0.00  0.00    +0.000 F 
ATOM      8  C   UNL     1      -3.452  12.066  19.318  0.00  0.00    +0.000 A 
ATOM      9  C   UNL     1      -4.785  12.470  19.236  0.00  0.00    +0.000 A 
ATOM     10  C   UNL     1      -5.477  12.322  18.041  0.00  0.00    +0.000 A 
ATOM     11  C   UNL     1      -4.825  11.772  16.940  0.00  0.00    +0.000 A 
ATOM     12  C   UNL     1      -3.483  11.362  17.027  0.00  0.00    +0.000 A 
ATOM     13 CL   UNL     1      -2.783  10.746  15.567  0.00  0.00    +0.000 Cl
ATOM     14  C   UNL     1      -2.766  11.501  18.230  0.00  0.00    +0.000 A 
ENDBRANCH   1  14
BRANCH   3  15
ATOM     15  C   UNL     1       1.343   8.832  18.889  0.00  0.00    +0.000 A 
ATOM     16  C   UNL     1       2.157   8.392  17.840  0.00  0.00    +0.000 A 
ATOM     17  C   UNL     1       3.002   7.290  18.008  0.00  0.00    +0.000 A 
ATOM     18  C   UNL     1       3.051   6.616  19.232  0.00  0.00    +0.000 A 
ATOM     19  C   UNL     1       2.230   7.043  20.279  0.00  0.00    +0.000 A 
ATOM     20  C   UNL     1       1.381   8.145  20.110  0.00  0.00    +0.000 A 
BRANCH  18  21
ATOM     21  S   UNL     1       4.098   5.184  19.419  0.00  0.00    +0.000 S 
BRANCH  21  22
ATOM     22  C   UNL     1       5.042   5.216  17.904  0.00  0.00    +0.000 A 
ATOM     23  C   UNL     1       6.253   5.918  17.872  0.00  0.00    +0.000 A 
ATOM     24  C   UNL     1       7.015   5.962  16.700  0.00  0.00    +0.000 A 
ATOM     25  C   UNL     1       6.578   5.294  15.558  0.00  0.00    +0.000 A 
ATOM     26  C   UNL     1       5.390   4.568  15.590  0.00  0.00    +0.000 A 
ATOM     27  C   UNL     1       4.628   4.525  16.761  0.00  0.00    +0.000 A 
ENDBRANCH  21  22
ENDBRANCH  18  21
ENDBRANCH   3  15
TORSDOF 4
ENDMDL
MODEL 7
REMARK VINA RESULT:      -7.8      0.615      1.469
REMARK  Name = 
REMARK  4 active torsions:
REMARK  status: ('A' for Active; 'I' for Inactive)
REMARK    1  A    between atoms: C_8  and  C_9
REMARK    2  A    between atoms: C_11  and  C_12
REMARK    3  A    between atoms: C_15  and  S_16
REMARK    4  A    between atoms: S_16  and  C_17
REMARK                            x       y       z     vdW  Elec       q    Type
REMARK                         _______ _______ _______ _____ _____    ______ ____
ROOT
ATOM      1  C   UNL     1      -2.183  11.730  18.893  0.00  0.00    +0.000 A 
ATOM      2  N   UNL     1      -1.661  10.517  18.937  0.00  0.00    +0.000 NA
ATOM      3  C   UNL     1      -0.294  10.672  18.951  0.00  0.00    +0.000 A 
ATOM      4  C   UNL     1       0.033  12.007  18.888  0.00  0.00    +0.000 A 
ATOM      5  N   UNL     1      -1.166  12.660  18.859  0.00  0.00    +0.000 N 
ATOM      6  H   UNL     1      -1.302  13.664  18.830  0.00  0.00    +0.000 HD
ENDROOT
BRANCH   1  14
ATOM      7  F   UNL     1      -3.818  11.364  16.633  0.00  0.00    +0.000 F 
ATOM      8  C   UNL     1      -4.378  11.894  17.736  0.00  0.00    +0.000 A 
ATOM      9  C   UNL     1      -5.732  12.221  17.671  0.00  0.00    +0.000 A 
ATOM     10  C   UNL     1      -6.365  12.758  18.784  0.00  0.00    +0.000 A 
ATOM     11  C   UNL     1      -5.633  12.959  19.953  0.00  0.00    +0.000 A 
ATOM     12  C   UNL     1      -4.267  12.632  20.013  0.00  0.00    +0.000 A 
ATOM     13 CL   UNL     1      -3.495  12.884  21.544  0.00  0.00    +0.000 Cl
ATOM     14  C   UNL     1      -3.608  12.090  18.895  0.00  0.00    +0.000 A 
ENDBRANCH   1  14
BRANCH   3  15
ATOM     15  C   UNL     1       0.641   9.563  18.999  0.00  0.00    +0.000 A 
ATOM     16  C   UNL     1       0.863   8.899  20.210  0.00  0.00    +0.000 A 
ATOM     17  C   UNL     1       1.769   7.836  20.282  0.00  0.00    +0.000 A 
ATOM     18  C   UNL     1       2.460   7.416  19.142  0.00  0.00    +0.000 A 
ATOM     19  C   UNL     1       2.252   8.085  17.932  0.00  0.00    +0.000 A 
ATOM     20  C   UNL     1       1.347   9.152  17.860  0.00  0.00    +0.000 A 
BRANCH  18  21
ATOM     21  S   UNL     1       3.648   6.089  19.258  0.00  0.00    +0.000 S 
BRANCH  21  22
ATOM     22  C   UNL     1       2.593   4.670  19.501  0.00  0.00    +0.000 A 
ATOM     23  C   UNL     1       2.067   4.012  18.383  0.00  0.00    +0.000 A 
ATOM     24  C   UNL     1       1.238   2.898  18.542  0.00  0.00    +0.000 A 
ATOM     25  C   UNL     1       0.939   2.426  19.819  0.00  0.00    +0.000 A 
ATOM     26  C   UNL     1       1.482   3.056  20.936  0.00  0.00    +0.000 A 
ATOM     27  C   UNL     1       2.310   4.171  20.777  0.00  0.00    +0.000 A 
ENDBRANCH  21  22
ENDBRANCH  18  21
ENDBRANCH   3  15
TORSDOF 4
ENDMDL
MODEL 8
REMARK VINA RESULT:      -7.8      2.766      3.677
REMARK  Name = 
REMARK  4 active torsions:
REMARK  status: ('A' for Active; 'I' for Inactive)
REMARK    1  A    between atoms: C_8  and  C_9
REMARK    2  A    between atoms: C_11  and  C_12
REMARK    3  A    between atoms: C_15  and  S_16
REMARK    4  A    between atoms: S_16  and  C_17
REMARK                            x       y       z     vdW  Elec       q    Type
REMARK                         _______ _______ _______ _____ _____    ______ ____
ROOT
ATOM      1  C   UNL     1      -1.304  11.092  18.319  0.00  0.00    +0.000 A 
ATOM      2  N   UNL     1      -0.832   9.863  18.427  0.00  0.00    +0.000 NA
ATOM      3  C   UNL     1       0.530   9.972  18.589  0.00  0.00    +0.000 A 
ATOM      4  C   UNL     1       0.907  11.294  18.555  0.00  0.00    +0.000 A 
ATOM      5  N   UNL     1      -0.259  11.987  18.390  0.00  0.00    +0.000 N 
ATOM      6  H   UNL     1      -0.355  12.994  18.341  0.00  0.00    +0.000 HD
ENDROOT
BRANCH   1  14
ATOM      7  F   UNL     1      -2.772  12.234  20.431  0.00  0.00    +0.000 F 
ATOM      8  C   UNL     1      -3.397  12.058  19.252  0.00  0.00    +0.000 A 
ATOM      9  C   UNL     1      -4.731  12.458  19.170  0.00  0.00    +0.000 A 
ATOM     10  C   UNL     1      -5.421  12.313  17.974  0.00  0.00    +0.000 A 
ATOM     11  C   UNL     1      -4.766  11.769  16.871  0.00  0.00    +0.000 A 
ATOM     12  C   UNL     1      -3.423  11.363  16.958  0.00  0.00    +0.000 A 
ATOM     13 CL   UNL     1      -2.720  10.754  15.497  0.00  0.00    +0.000 Cl
ATOM     14  C   UNL     1      -2.707  11.499  18.162  0.00  0.00    +0.000 A 
ENDBRANCH   1  14
BRANCH   3  15
ATOM     15  C   UNL     1       1.415   8.833  18.746  0.00  0.00    +0.000 A 
ATOM     16  C   UNL     1       1.427   8.128  19.954  0.00  0.00    +0.000 A 
ATOM     17  C   UNL     1       2.281   7.035  20.131  0.00  0.00    +0.000 A 
ATOM     18  C   UNL     1       3.131   6.625  19.100  0.00  0.00    +0.000 A 
ATOM     19  C   UNL     1       3.133   7.335  17.896  0.00  0.00    +0.000 A 
ATOM     20  C   UNL     1       2.280   8.432  17.718  0.00  0.00    +0.000 A 
BRANCH  18  21
ATOM     21  S   UNL     1       4.249   5.258  19.356  0.00  0.00    +0.000 S 
BRANCH  21  22
ATOM     22  C   UNL     1       5.131   5.208  17.805  0.00  0.00    +0.000 A 
ATOM     23  C   UNL     1       4.621   4.435  16.755  0.00  0.00    +0.000 A 
ATOM     24  C   UNL     1       5.289   4.376  15.529  0.00  0.00    +0.000 A 
ATOM     25  C   UNL     1       6.465   5.099  15.340  0.00  0.00    +0.000 A 
ATOM     26  C   UNL     1       6.964   5.894  16.368  0.00  0.00    +0.000 A 
ATOM     27  C   UNL     1       6.297   5.953  17.594  0.00  0.00    +0.000 A 
ENDBRANCH  21  22
ENDBRANCH  18  21
ENDBRANCH   3  15
TORSDOF 4
ENDMDL
MODEL 9
REMARK VINA RESULT:      -7.8      4.799      9.536
REMARK  Name = 
REMARK  4 active torsions:
REMARK  status: ('A' for Active; 'I' for Inactive)
REMARK    1  A    between atoms: C_8  and  C_9
REMARK    2  A    between atoms: C_11  and  C_12
REMARK    3  A    between atoms: C_15  and  S_16
REMARK    4  A    between atoms: S_16  and  C_17
REMARK                            x       y       z     vdW  Elec       q    Type
REMARK                         _______ _______ _______ _____ _____    ______ ____
ROOT
ATOM      1  C   UNL     1       4.113   5.988  17.909  0.00  0.00    +0.000 A 
ATOM      2  N   UNL     1       3.454   7.126  17.786  0.00  0.00    +0.000 NA
ATOM      3  C   UNL     1       2.703   7.277  18.929  0.00  0.00    +0.000 A 
ATOM      4  C   UNL     1       2.884   6.197  19.762  0.00  0.00    +0.000 A 
ATOM      5  N   UNL     1       3.779   5.397  19.109  0.00  0.00    +0.000 N 
ATOM      6  H   UNL     1       4.155   4.519  19.445  0.00  0.00    +0.000 HD
ENDROOT
BRANCH   1  14
ATOM      7  F   UNL     1       3.535   3.654  16.448  0.00  0.00    +0.000 F 
ATOM      8  C   UNL     1       4.736   4.232  16.262  0.00  0.00    +0.000 A 
ATOM      9  C   UNL     1       5.604   3.625  15.354  0.00  0.00    +0.000 A 
ATOM     10  C   UNL     1       6.850   4.186  15.112  0.00  0.00    +0.000 A 
ATOM     11  C   UNL     1       7.214   5.353  15.782  0.00  0.00    +0.000 A 
ATOM     12  C   UNL     1       6.338   5.959  16.700  0.00  0.00    +0.000 A 
ATOM     13 CL   UNL     1       6.898   7.433  17.419  0.00  0.00    +0.000 Cl
ATOM     14  C   UNL     1       5.072   5.404  16.960  0.00  0.00    +0.000 A 
ENDBRANCH   1  14
BRANCH   3  15
ATOM     15  C   UNL     1       1.835   8.413  19.177  0.00  0.00    +0.000 A 
ATOM     16  C   UNL     1       1.711   9.413  18.206  0.00  0.00    +0.000 A 
ATOM     17  C   UNL     1       0.891  10.523  18.429  0.00  0.00    +0.000 A 
ATOM     18  C   UNL     1       0.175  10.646  19.623  0.00  0.00    +0.000 A 
ATOM     19  C   UNL     1       0.306   9.657  20.603  0.00  0.00    +0.000 A 
ATOM     20  C   UNL     1       1.131   8.546  20.381  0.00  0.00    +0.000 A 
BRANCH  18  21
ATOM     21  S   UNL     1      -0.832  12.090  19.914  0.00  0.00    +0.000 S 
BRANCH  21  22
ATOM     22  C   UNL     1      -2.374  11.627  19.142  0.00  0.00    +0.000 A 
ATOM     23  C   UNL     1      -3.543  12.311  19.493  0.00  0.00    +0.000 A 
ATOM     24  C   UNL     1      -4.766  11.971  18.906  0.00  0.00    +0.000 A 
ATOM     25  C   UNL     1      -4.824  10.955  17.955  0.00  0.00    +0.000 A 
ATOM     26  C   UNL     1      -3.661  10.288  17.578  0.00  0.00    +0.000 A 
ATOM     27  C   UNL     1      -2.439  10.628  18.166  0.00  0.00    +0.000 A 
ENDBRANCH  21  22
ENDBRANCH  18  21
ENDBRANCH   3  15
TORSDOF 4
ENDMDL
