MODEL 1
REMARK VINA RESULT:      -6.9      0.000      0.000
REMARK  Name = 
REMARK  9 active torsions:
REMARK  status: ('A' for Active; 'I' for Inactive)
REMARK    1  A    between atoms: C_1  and  C_2
REMARK    2  A    between atoms: C_5  and  N_6
REMARK    3  A    between atoms: N_6  and  C_7
REMARK    4  A    between atoms: C_7  and  C_8
REMARK    5  A    between atoms: C_8  and  C_9
REMARK    6  A    between atoms: C_11  and  C_13
REMARK    7  A    between atoms: C_13  and  C_14
REMARK    8  A    between atoms: C_14  and  C_15
REMARK    9  A    between atoms: C_21  and  C_22
REMARK                            x       y       z     vdW  Elec       q    Type
REMARK                         _______ _______ _______ _____ _____    ______ ____
ROOT
ATOM      1  N   UNL     1       3.404   5.817  18.077  0.00  0.00    +0.000 N 
ATOM      2  C   UNL     1       2.681   4.717  17.575  0.00  0.00    +0.000 C 
ATOM      3  O   UNL     1       1.461   4.744  17.387  0.00  0.00    +0.000 OA
ENDROOT
BRANCH   1   8
ATOM      4  C   UNL     1       0.637  10.637  19.692  0.00  0.00    +0.000 C 
ATOM      5  C   UNL     1       1.320   9.362  19.272  0.00  0.00    +0.000 A 
ATOM      6  C   UNL     1       1.785   9.215  17.954  0.00  0.00    +0.000 A 
ATOM      7  C   UNL     1       2.465   8.051  17.556  0.00  0.00    +0.000 A 
ATOM      8  C   UNL     1       2.677   7.000  18.455  0.00  0.00    +0.000 A 
ATOM      9  C   UNL     1       2.221   7.161  19.768  0.00  0.00    +0.000 A 
ATOM     10  C   UNL     1       1.542   8.320  20.189  0.00  0.00    +0.000 A 
ATOM     11  C   UNL     1       1.112   8.433  21.627  0.00  0.00    +0.000 C 
ENDBRANCH   1   8
BRANCH   1  12
ATOM     12  C   UNL     1       4.835   5.747  18.470  0.00  0.00    +0.000 C 
BRANCH  12  13
ATOM     13  C   UNL     1       5.829   6.372  17.491  0.00  0.00    +0.000 C 
BRANCH  13  14
ATOM     14  C   UNL     1       6.811   5.388  17.024  0.00  0.00    +0.000 C 
ATOM     15  N   UNL     1       7.582   4.615  16.632  0.00  0.00    +0.000 NA
ENDBRANCH  13  14
ENDBRANCH  12  13
ENDBRANCH   1  12
BRANCH   2  16
ATOM     16  C   UNL     1       3.477   3.471  17.193  0.00  0.00    +0.000 C 
BRANCH  16  17
ATOM     17  C   UNL     1       2.912   2.220  17.872  0.00  0.00    +0.000 C 
BRANCH  17  18
ATOM     18  C   UNL     1       2.594   2.377  19.332  0.00  0.00    +0.000 A 
ATOM     19  C   UNL     1       1.317   2.406  19.866  0.00  0.00    +0.000 A 
ATOM     20  S   UNL     1       1.384   2.604  21.566  0.00  0.00    +0.000 S 
ATOM     21  C   UNL     1       3.095   2.637  21.469  0.00  0.00    +0.000 A 
ATOM     22  N   UNL     1       3.612   2.510  20.265  0.00  0.00    +0.000 NA
ENDBRANCH  17  18
ENDBRANCH  16  17
ENDBRANCH   2  16
TORSDOF 7
ENDMDL
MODEL 2
REMARK VINA RESULT:      -6.6      0.636      1.483
REMARK  Name = 
REMARK  9 active torsions:
REMARK  status: ('A' for Active; 'I' for Inactive)
REMARK    1  A    between atoms: C_1  and  C_2
REMARK    2  A    between atoms: C_5  and  N_6
REMARK    3  A    between atoms: N_6  and  C_7
REMARK    4  A    between atoms: C_7  and  C_8
REMARK    5  A    between atoms: C_8  and  C_9
REMARK    6  A    between atoms: C_11  and  C_13
REMARK    7  A    between atoms: C_13  and  C_14
REMARK    8  A    between atoms: C_14  and  C_15
REMARK    9  A    between atoms: C_21  and  C_22
REMARK                            x       y       z     vdW  Elec       q    Type
REMARK                         _______ _______ _______ _____ _____    ______ ____
ROOT
ATOM      1  N   UNL     1       3.315   5.590  18.422  0.00  0.00    +0.000 N 
ATOM      2  C   UNL     1       2.564   4.643  17.699  0.00  0.00    +0.000 C 
ATOM      3  O   UNL     1       1.355   4.767  17.482  0.00  0.00    +0.000 OA
ENDROOT
BRANCH   1   8
ATOM      4  C   UNL     1       0.400  10.089  20.605  0.00  0.00    +0.000 C 
ATOM      5  C   UNL     1       1.194   8.939  20.043  0.00  0.00    +0.000 A 
ATOM      6  C   UNL     1       1.363   7.765  20.797  0.00  0.00    +0.000 A 
ATOM      7  C   UNL     1       2.062   6.666  20.271  0.00  0.00    +0.000 A 
ATOM      8  C   UNL     1       2.627   6.719  18.993  0.00  0.00    +0.000 A 
ATOM      9  C   UNL     1       2.444   7.887  18.245  0.00  0.00    +0.000 A 
ATOM     10  C   UNL     1       1.743   8.998  18.750  0.00  0.00    +0.000 A 
ATOM     11  C   UNL     1       1.559  10.207  17.872  0.00  0.00    +0.000 C 
ENDBRANCH   1   8
BRANCH   1  12
ATOM     12  C   UNL     1       4.724   5.374  18.839  0.00  0.00    +0.000 C 
BRANCH  12  13
ATOM     13  C   UNL     1       5.792   5.966  17.920  0.00  0.00    +0.000 C 
BRANCH  13  14
ATOM     14  C   UNL     1       6.980   5.108  17.857  0.00  0.00    +0.000 C 
ATOM     15  N   UNL     1       7.932   4.445  17.820  0.00  0.00    +0.000 NA
ENDBRANCH  13  14
ENDBRANCH  12  13
ENDBRANCH   1  12
BRANCH   2  16
ATOM     16  C   UNL     1       3.317   3.449  17.115  0.00  0.00    +0.000 C 
BRANCH  16  17
ATOM     17  C   UNL     1       2.958   2.152  17.845  0.00  0.00    +0.000 C 
BRANCH  17  18
ATOM     18  C   UNL     1       2.649   2.309  19.307  0.00  0.00    +0.000 A 
ATOM     19  C   UNL     1       1.376   2.397  19.843  0.00  0.00    +0.000 A 
ATOM     20  S   UNL     1       1.453   2.574  21.545  0.00  0.00    +0.000 S 
ATOM     21  C   UNL     1       3.164   2.521  21.446  0.00  0.00    +0.000 A 
ATOM     22  N   UNL     1       3.673   2.381  20.240  0.00  0.00    +0.000 NA
ENDBRANCH  17  18
ENDBRANCH  16  17
ENDBRANCH   2  16
TORSDOF 7
ENDMDL
MODEL 3
REMARK VINA RESULT:      -6.6      0.974      1.136
REMARK  Name = 
REMARK  9 active torsions:
REMARK  status: ('A' for Active; 'I' for Inactive)
REMARK    1  A    between atoms: C_1  and  C_2
REMARK    2  A    between atoms: C_5  and  N_6
REMARK    3  A    between atoms: N_6  and  C_7
REMARK    4  A    between atoms: C_7  and  C_8
REMARK    5  A    between atoms: C_8  and  C_9
REMARK    6  A    between atoms: C_11  and  C_13
REMARK    7  A    between atoms: C_13  and  C_14
REMARK    8  A    between atoms: C_14  and  C_15
REMARK    9  A    between atoms: C_21  and  C_22
REMARK                            x       y       z     vdW  Elec       q    Type
REMARK                         _______ _______ _______ _____ _____    ______ ____
ROOT
ATOM      1  N   UNL     1       3.567   5.638  18.137  0.00  0.00    +0.000 N 
ATOM      2  C   UNL     1       2.862   4.556  17.575  0.00  0.00    +0.000 C 
ATOM      3  O   UNL     1       1.661   4.608  17.295  0.00  0.00    +0.000 OA
ENDROOT
BRANCH   1   8
ATOM      4  C   UNL     1       0.786  10.512  19.556  0.00  0.00    +0.000 C 
ATOM      5  C   UNL     1       1.473   9.224  19.185  0.00  0.00    +0.000 A 
ATOM      6  C   UNL     1       2.013   9.060  17.898  0.00  0.00    +0.000 A 
ATOM      7  C   UNL     1       2.697   7.883  17.548  0.00  0.00    +0.000 A 
ATOM      8  C   UNL     1       2.838   6.835  18.464  0.00  0.00    +0.000 A 
ATOM      9  C   UNL     1       2.307   7.012  19.747  0.00  0.00    +0.000 A 
ATOM     10  C   UNL     1       1.623   8.184  20.119  0.00  0.00    +0.000 A 
ATOM     11  C   UNL     1       1.109   8.313  21.528  0.00  0.00    +0.000 C 
ENDBRANCH   1   8
BRANCH   1  12
ATOM     12  C   UNL     1       4.962   5.537  18.638  0.00  0.00    +0.000 C 
BRANCH  12  13
ATOM     13  C   UNL     1       6.020   6.283  17.826  0.00  0.00    +0.000 C 
BRANCH  13  14
ATOM     14  C   UNL     1       5.758   6.185  16.386  0.00  0.00    +0.000 C 
ATOM     15  N   UNL     1       5.568   6.123  15.243  0.00  0.00    +0.000 NA
ENDBRANCH  13  14
ENDBRANCH  12  13
ENDBRANCH   1  12
BRANCH   2  16
ATOM     16  C   UNL     1       3.659   3.293  17.250  0.00  0.00    +0.000 C 
BRANCH  16  17
ATOM     17  C   UNL     1       3.135   2.087  18.033  0.00  0.00    +0.000 C 
BRANCH  17  18
ATOM     18  C   UNL     1       2.562   2.406  19.384  0.00  0.00    +0.000 A 
ATOM     19  C   UNL     1       3.309   2.697  20.513  0.00  0.00    +0.000 A 
ATOM     20  S   UNL     1       2.282   2.997  21.850  0.00  0.00    +0.000 S 
ATOM     21  C   UNL     1       0.927   2.720  20.838  0.00  0.00    +0.000 A 
ATOM     22  N   UNL     1       1.189   2.423  19.582  0.00  0.00    +0.000 NA
ENDBRANCH  17  18
ENDBRANCH  16  17
ENDBRANCH   2  16
TORSDOF 7
ENDMDL
MODEL 4
REMARK VINA RESULT:      -6.5      2.551      4.392
REMARK  Name = 
REMARK  9 active torsions:
REMARK  status: ('A' for Active; 'I' for Inactive)
REMARK    1  A    between atoms: C_1  and  C_2
REMARK    2  A    between atoms: C_5  and  N_6
REMARK    3  A    between atoms: N_6  and  C_7
REMARK    4  A    between atoms: C_7  and  C_8
REMARK    5  A    between atoms: C_8  and  C_9
REMARK    6  A    between atoms: C_11  and  C_13
REMARK    7  A    between atoms: C_13  and  C_14
REMARK    8  A    between atoms: C_14  and  C_15
REMARK    9  A    between atoms: C_21  and  C_22
REMARK                            x       y       z     vdW  Elec       q    Type
REMARK                         _______ _______ _______ _____ _____    ______ ____
ROOT
ATOM      1  N   UNL     1       3.374   5.899  19.229  0.00  0.00    +0.000 N 
ATOM      2  C   UNL     1       4.553   5.850  18.461  0.00  0.00    +0.000 C 
ATOM      3  O   UNL     1       4.949   6.798  17.775  0.00  0.00    +0.000 OA
ENDROOT
BRANCH   1   8
ATOM      4  C   UNL     1       0.229  10.753  19.019  0.00  0.00    +0.000 C 
ATOM      5  C   UNL     1       1.012   9.468  19.078  0.00  0.00    +0.000 A 
ATOM      6  C   UNL     1       1.599   8.947  17.911  0.00  0.00    +0.000 A 
ATOM      7  C   UNL     1       2.371   7.774  17.955  0.00  0.00    +0.000 A 
ATOM      8  C   UNL     1       2.556   7.081  19.156  0.00  0.00    +0.000 A 
ATOM      9  C   UNL     1       1.978   7.613  20.314  0.00  0.00    +0.000 A 
ATOM     10  C   UNL     1       1.205   8.790  20.293  0.00  0.00    +0.000 A 
ATOM     11  C   UNL     1       0.644   9.318  21.586  0.00  0.00    +0.000 C 
ENDBRANCH   1   8
BRANCH   1  12
ATOM     12  C   UNL     1       2.795   4.716  19.918  0.00  0.00    +0.000 C 
BRANCH  12  13
ATOM     13  C   UNL     1       1.573   4.085  19.250  0.00  0.00    +0.000 C 
BRANCH  13  14
ATOM     14  C   UNL     1       1.964   3.171  18.172  0.00  0.00    +0.000 C 
ATOM     15  N   UNL     1       2.263   2.431  17.330  0.00  0.00    +0.000 NA
ENDBRANCH  13  14
ENDBRANCH  12  13
ENDBRANCH   1  12
BRANCH   2  16
ATOM     16  C   UNL     1       5.395   4.578  18.548  0.00  0.00    +0.000 C 
BRANCH  16  17
ATOM     17  C   UNL     1       6.729   4.743  17.815  0.00  0.00    +0.000 C 
BRANCH  17  18
ATOM     18  C   UNL     1       6.657   4.603  16.322  0.00  0.00    +0.000 A 
ATOM     19  C   UNL     1       5.815   3.736  15.647  0.00  0.00    +0.000 A 
ATOM     20  S   UNL     1       6.041   3.876  13.955  0.00  0.00    +0.000 S 
ATOM     21  C   UNL     1       7.236   5.073  14.241  0.00  0.00    +0.000 A 
ATOM     22  N   UNL     1       7.472   5.370  15.501  0.00  0.00    +0.000 NA
ENDBRANCH  17  18
ENDBRANCH  16  17
ENDBRANCH   2  16
TORSDOF 7
ENDMDL
MODEL 5
REMARK VINA RESULT:      -6.5      3.057      6.511
REMARK  Name = 
REMARK  9 active torsions:
REMARK  status: ('A' for Active; 'I' for Inactive)
REMARK    1  A    between atoms: C_1  and  C_2
REMARK    2  A    between atoms: C_5  and  N_6
REMARK    3  A    between atoms: N_6  and  C_7
REMARK    4  A    between atoms: C_7  and  C_8
REMARK    5  A    between atoms: C_8  and  C_9
REMARK    6  A    between atoms: C_11  and  C_13
REMARK    7  A    between atoms: C_13  and  C_14
REMARK    8  A    between atoms: C_14  and  C_15
REMARK    9  A    between atoms: C_21  and  C_22
REMARK                            x       y       z     vdW  Elec       q    Type
REMARK                         _______ _______ _______ _____ _____    ______ ____
ROOT
ATOM      1  N   UNL     1       2.737   5.735  19.766  0.00  0.00    +0.000 N 
ATOM      2  C   UNL     1       2.213   7.042  19.786  0.00  0.00    +0.000 C 
ATOM      3  O   UNL     1       2.557   7.916  18.985  0.00  0.00    +0.000 OA
ENDROOT
BRANCH   1   8
ATOM      4  C   UNL     1       6.936   4.329  16.040  0.00  0.00    +0.000 C 
ATOM      5  C   UNL     1       5.851   4.736  17.001  0.00  0.00    +0.000 A 
ATOM      6  C   UNL     1       4.501   4.539  16.661  0.00  0.00    +0.000 A 
ATOM      7  C   UNL     1       3.476   4.870  17.563  0.00  0.00    +0.000 A 
ATOM      8  C   UNL     1       3.770   5.424  18.814  0.00  0.00    +0.000 A 
ATOM      9  C   UNL     1       5.117   5.605  19.148  0.00  0.00    +0.000 A 
ATOM     10  C   UNL     1       6.160   5.276  18.261  0.00  0.00    +0.000 A 
ATOM     11  C   UNL     1       7.585   5.469  18.705  0.00  0.00    +0.000 C 
ENDBRANCH   1   8
BRANCH   1  12
ATOM     12  C   UNL     1       2.465   4.727  20.823  0.00  0.00    +0.000 C 
BRANCH  12  13
ATOM     13  C   UNL     1       1.122   4.004  20.730  0.00  0.00    +0.000 C 
BRANCH  13  14
ATOM     14  C   UNL     1       1.086   3.085  19.587  0.00  0.00    +0.000 C 
ATOM     15  N   UNL     1       1.081   2.352  18.688  0.00  0.00    +0.000 NA
ENDBRANCH  13  14
ENDBRANCH  12  13
ENDBRANCH   1  12
BRANCH   2  16
ATOM     16  C   UNL     1       1.126   7.347  20.815  0.00  0.00    +0.000 C 
BRANCH  16  17
ATOM     17  C   UNL     1       1.543   8.491  21.742  0.00  0.00    +0.000 C 
BRANCH  17  18
ATOM     18  C   UNL     1       0.553   9.615  21.850  0.00  0.00    +0.000 A 
ATOM     19  C   UNL     1       0.075  10.356  20.782  0.00  0.00    +0.000 A 
ATOM     20  S   UNL     1      -1.031  11.545  21.325  0.00  0.00    +0.000 S 
ATOM     21  C   UNL     1      -0.796  10.993  22.931  0.00  0.00    +0.000 A 
ATOM     22  N   UNL     1       0.043   9.990  23.085  0.00  0.00    +0.000 NA
ENDBRANCH  17  18
ENDBRANCH  16  17
ENDBRANCH   2  16
TORSDOF 7
ENDMDL
MODEL 6
REMARK VINA RESULT:      -6.4      2.657      5.548
REMARK  Name = 
REMARK  9 active torsions:
REMARK  status: ('A' for Active; 'I' for Inactive)
REMARK    1  A    between atoms: C_1  and  C_2
REMARK    2  A    between atoms: C_5  and  N_6
REMARK    3  A    between atoms: N_6  and  C_7
REMARK    4  A    between atoms: C_7  and  C_8
REMARK    5  A    between atoms: C_8  and  C_9
REMARK    6  A    between atoms: C_11  and  C_13
REMARK    7  A    between atoms: C_13  and  C_14
REMARK    8  A    between atoms: C_14  and  C_15
REMARK    9  A    between atoms: C_21  and  C_22
REMARK                            x       y       z     vdW  Elec       q    Type
REMARK                         _______ _______ _______ _____ _____    ______ ____
ROOT
ATOM      1  N   UNL     1       3.734   5.476  17.389  0.00  0.00    +0.000 N 
ATOM      2  C   UNL     1       4.559   4.740  16.517  0.00  0.00    +0.000 C 
ATOM      3  O   UNL     1       4.716   3.519  16.610  0.00  0.00    +0.000 OA
ENDROOT
BRANCH   1   8
ATOM      4  C   UNL     1       1.281   2.535  21.728  0.00  0.00    +0.000 C 
ATOM      5  C   UNL     1       1.885   3.324  20.597  0.00  0.00    +0.000 A 
ATOM      6  C   UNL     1       2.914   4.246  20.852  0.00  0.00    +0.000 A 
ATOM      7  C   UNL     1       3.520   4.958  19.804  0.00  0.00    +0.000 A 
ATOM      8  C   UNL     1       3.101   4.784  18.481  0.00  0.00    +0.000 A 
ATOM      9  C   UNL     1       2.084   3.855  18.234  0.00  0.00    +0.000 A 
ATOM     10  C   UNL     1       1.466   3.128  19.269  0.00  0.00    +0.000 A 
ATOM     11  C   UNL     1       0.402   2.121  18.921  0.00  0.00    +0.000 C 
ENDBRANCH   1   8
BRANCH   1  12
ATOM     12  C   UNL     1       3.669   6.960  17.399  0.00  0.00    +0.000 C 
BRANCH  12  13
ATOM     13  C   UNL     1       2.517   7.574  18.193  0.00  0.00    +0.000 C 
BRANCH  13  14
ATOM     14  C   UNL     1       2.299   8.977  17.825  0.00  0.00    +0.000 C 
ATOM     15  N   UNL     1       2.144  10.085  17.517  0.00  0.00    +0.000 NA
ENDBRANCH  13  14
ENDBRANCH  12  13
ENDBRANCH   1  12
BRANCH   2  16
ATOM     16  C   UNL     1       5.228   5.502  15.374  0.00  0.00    +0.000 C 
BRANCH  16  17
ATOM     17  C   UNL     1       6.753   5.491  15.515  0.00  0.00    +0.000 C 
BRANCH  17  18
ATOM     18  C   UNL     1       7.271   5.902  16.863  0.00  0.00    +0.000 A 
ATOM     19  C   UNL     1       7.516   5.036  17.916  0.00  0.00    +0.000 A 
ATOM     20  S   UNL     1       8.094   5.898  19.278  0.00  0.00    +0.000 S 
ATOM     21  C   UNL     1       7.976   7.351  18.376  0.00  0.00    +0.000 A 
ATOM     22  N   UNL     1       7.540   7.235  17.139  0.00  0.00    +0.000 NA
ENDBRANCH  17  18
ENDBRANCH  16  17
ENDBRANCH   2  16
TORSDOF 7
ENDMDL
MODEL 7
REMARK VINA RESULT:      -6.4      2.843      5.110
REMARK  Name = 
REMARK  9 active torsions:
REMARK  status: ('A' for Active; 'I' for Inactive)
REMARK    1  A    between atoms: C_1  and  C_2
REMARK    2  A    between atoms: C_5  and  N_6
REMARK    3  A    between atoms: N_6  and  C_7
REMARK    4  A    between atoms: C_7  and  C_8
REMARK    5  A    between atoms: C_8  and  C_9
REMARK    6  A    between atoms: C_11  and  C_13
REMARK    7  A    between atoms: C_13  and  C_14
REMARK    8  A    between atoms: C_14  and  C_15
REMARK    9  A    between atoms: C_21  and  C_22
REMARK                            x       y       z     vdW  Elec       q    Type
REMARK                         _______ _______ _______ _____ _____    ______ ____
ROOT
ATOM      1  N   UNL     1       3.978   5.102  18.242  0.00  0.00    +0.000 N 
ATOM      2  C   UNL     1       5.374   5.173  18.409  0.00  0.00    +0.000 C 
ATOM      3  O   UNL     1       5.925   6.033  19.103  0.00  0.00    +0.000 OA
ENDROOT
BRANCH   1   8
ATOM      4  C   UNL     1       0.553   9.145  20.571  0.00  0.00    +0.000 C 
ATOM      5  C   UNL     1       1.477   8.117  19.974  0.00  0.00    +0.000 A 
ATOM      6  C   UNL     1       1.725   6.913  20.656  0.00  0.00    +0.000 A 
ATOM      7  C   UNL     1       2.548   5.923  20.094  0.00  0.00    +0.000 A 
ATOM      8  C   UNL     1       3.161   6.119  18.851  0.00  0.00    +0.000 A 
ATOM      9  C   UNL     1       2.899   7.315  18.174  0.00  0.00    +0.000 A 
ATOM     10  C   UNL     1       2.074   8.318  18.717  0.00  0.00    +0.000 A 
ATOM     11  C   UNL     1       1.813   9.563  17.913  0.00  0.00    +0.000 C 
ENDBRANCH   1   8
BRANCH   1  12
ATOM     12  C   UNL     1       3.313   4.187  17.279  0.00  0.00    +0.000 C 
BRANCH  12  13
ATOM     13  C   UNL     1       3.057   2.764  17.774  0.00  0.00    +0.000 C 
BRANCH  13  14
ATOM     14  C   UNL     1       1.732   2.641  18.391  0.00  0.00    +0.000 C 
ATOM     15  N   UNL     1       0.689   2.562  18.893  0.00  0.00    +0.000 NA
ENDBRANCH  13  14
ENDBRANCH  12  13
ENDBRANCH   1  12
BRANCH   2  16
ATOM     16  C   UNL     1       6.217   4.088  17.741  0.00  0.00    +0.000 C 
BRANCH  16  17
ATOM     17  C   UNL     1       7.287   4.695  16.831  0.00  0.00    +0.000 C 
BRANCH  17  18
ATOM     18  C   UNL     1       7.029   4.551  15.359  0.00  0.00    +0.000 A 
ATOM     19  C   UNL     1       6.095   3.695  14.799  0.00  0.00    +0.000 A 
ATOM     20  S   UNL     1       6.113   3.825  13.091  0.00  0.00    +0.000 S 
ATOM     21  C   UNL     1       7.353   5.002  13.220  0.00  0.00    +0.000 A 
ATOM     22  N   UNL     1       7.748   5.301  14.440  0.00  0.00    +0.000 NA
ENDBRANCH  17  18
ENDBRANCH  16  17
ENDBRANCH   2  16
TORSDOF 7
ENDMDL
MODEL 8
REMARK VINA RESULT:      -6.4      2.575      4.575
REMARK  Name = 
REMARK  9 active torsions:
REMARK  status: ('A' for Active; 'I' for Inactive)
REMARK    1  A    between atoms: C_1  and  C_2
REMARK    2  A    between atoms: C_5  and  N_6
REMARK    3  A    between atoms: N_6  and  C_7
REMARK    4  A    between atoms: C_7  and  C_8
REMARK    5  A    between atoms: C_8  and  C_9
REMARK    6  A    between atoms: C_11  and  C_13
REMARK    7  A    between atoms: C_13  and  C_14
REMARK    8  A    between atoms: C_14  and  C_15
REMARK    9  A    between atoms: C_21  and  C_22
REMARK                            x       y       z     vdW  Elec       q    Type
REMARK                         _______ _______ _______ _____ _____    ______ ____
ROOT
ATOM      1  N   UNL     1       2.669   5.094  19.323  0.00  0.00    +0.000 N 
ATOM      2  C   UNL     1       4.056   4.855  19.272  0.00  0.00    +0.000 C 
ATOM      3  O   UNL     1       4.896   5.718  19.542  0.00  0.00    +0.000 OA
ENDROOT
BRANCH   1   8
ATOM      4  C   UNL     1       0.675  10.403  20.479  0.00  0.00    +0.000 C 
ATOM      5  C   UNL     1       1.233   9.037  20.181  0.00  0.00    +0.000 A 
ATOM      6  C   UNL     1       1.186   8.029  21.159  0.00  0.00    +0.000 A 
ATOM      7  C   UNL     1       1.660   6.735  20.884  0.00  0.00    +0.000 A 
ATOM      8  C   UNL     1       2.212   6.422  19.637  0.00  0.00    +0.000 A 
ATOM      9  C   UNL     1       2.243   7.428  18.665  0.00  0.00    +0.000 A 
ATOM     10  C   UNL     1       1.769   8.730  18.918  0.00  0.00    +0.000 A 
ATOM     11  C   UNL     1       1.807   9.749  17.811  0.00  0.00    +0.000 C 
ENDBRANCH   1   8
BRANCH   1  12
ATOM     12  C   UNL     1       1.651   4.125  18.838  0.00  0.00    +0.000 C 
BRANCH  12  13
ATOM     13  C   UNL     1       0.766   3.491  19.910  0.00  0.00    +0.000 C 
BRANCH  13  14
ATOM     14  C   UNL     1       1.553   3.069  21.074  0.00  0.00    +0.000 C 
ATOM     15  N   UNL     1       2.155   2.728  22.005  0.00  0.00    +0.000 NA
ENDBRANCH  13  14
ENDBRANCH  12  13
ENDBRANCH   1  12
BRANCH   2  16
ATOM     16  C   UNL     1       4.511   3.439  18.925  0.00  0.00    +0.000 C 
BRANCH  16  17
ATOM     17  C   UNL     1       4.273   3.124  17.446  0.00  0.00    +0.000 C 
BRANCH  17  18
ATOM     18  C   UNL     1       5.039   3.982  16.481  0.00  0.00    +0.000 A 
ATOM     19  C   UNL     1       6.134   3.562  15.744  0.00  0.00    +0.000 A 
ATOM     20  S   UNL     1       6.724   4.839  14.767  0.00  0.00    +0.000 S 
ATOM     21  C   UNL     1       5.490   5.852  15.391  0.00  0.00    +0.000 A 
ATOM     22  N   UNL     1       4.675   5.304  16.269  0.00  0.00    +0.000 NA
ENDBRANCH  17  18
ENDBRANCH  16  17
ENDBRANCH   2  16
TORSDOF 7
ENDMDL
MODEL 9
REMARK VINA RESULT:      -6.4      2.771      4.746
REMARK  Name = 
REMARK  9 active torsions:
REMARK  status: ('A' for Active; 'I' for Inactive)
REMARK    1  A    between atoms: C_1  and  C_2
REMARK    2  A    between atoms: C_5  and  N_6
REMARK    3  A    between atoms: N_6  and  C_7
REMARK    4  A    between atoms: C_7  and  C_8
REMARK    5  A    between atoms: C_8  and  C_9
REMARK    6  A    between atoms: C_11  and  C_13
REMARK    7  A    between atoms: C_13  and  C_14
REMARK    8  A    between atoms: C_14  and  C_15
REMARK    9  A    between atoms: C_21  and  C_22
REMARK                            x       y       z     vdW  Elec       q    Type
REMARK                         _______ _______ _______ _____ _____    ______ ____
ROOT
ATOM      1  N   UNL     1       3.836   5.576  17.999  0.00  0.00    +0.000 N 
ATOM      2  C   UNL     1       5.228   5.738  17.865  0.00  0.00    +0.000 C 
ATOM      3  O   UNL     1       5.803   6.810  18.076  0.00  0.00    +0.000 OA
ENDROOT
BRANCH   1   8
ATOM      4  C   UNL     1       0.780  10.279  19.429  0.00  0.00    +0.000 C 
ATOM      5  C   UNL     1       1.539   9.033  19.055  0.00  0.00    +0.000 A 
ATOM      6  C   UNL     1       2.085   8.902  17.766  0.00  0.00    +0.000 A 
ATOM      7  C   UNL     1       2.835   7.768  17.414  0.00  0.00    +0.000 A 
ATOM      8  C   UNL     1       3.039   6.729  18.329  0.00  0.00    +0.000 A 
ATOM      9  C   UNL     1       2.502   6.873  19.613  0.00  0.00    +0.000 A 
ATOM     10  C   UNL     1       1.752   8.004  19.988  0.00  0.00    +0.000 A 
ATOM     11  C   UNL     1       1.235   8.102  21.398  0.00  0.00    +0.000 C 
ENDBRANCH   1   8
BRANCH   1  12
ATOM     12  C   UNL     1       3.110   4.348  17.585  0.00  0.00    +0.000 C 
BRANCH  12  13
ATOM     13  C   UNL     1       2.590   3.463  18.718  0.00  0.00    +0.000 C 
BRANCH  13  14
ATOM     14  C   UNL     1       3.691   2.835  19.455  0.00  0.00    +0.000 C 
ATOM     15  N   UNL     1       4.550   2.318  20.040  0.00  0.00    +0.000 NA
ENDBRANCH  13  14
ENDBRANCH  12  13
ENDBRANCH   1  12
BRANCH   2  16
ATOM     16  C   UNL     1       6.047   4.501  17.503  0.00  0.00    +0.000 C 
BRANCH  16  17
ATOM     17  C   UNL     1       7.240   4.863  16.615  0.00  0.00    +0.000 C 
BRANCH  17  18
ATOM     18  C   UNL     1       7.026   4.650  15.143  0.00  0.00    +0.000 A 
ATOM     19  C   UNL     1       6.143   3.735  14.596  0.00  0.00    +0.000 A 
ATOM     20  S   UNL     1       6.200   3.797  12.885  0.00  0.00    +0.000 S 
ATOM     21  C   UNL     1       7.388   5.028  12.996  0.00  0.00    +0.000 A 
ATOM     22  N   UNL     1       7.739   5.391  14.212  0.00  0.00    +0.000 NA
ENDBRANCH  17  18
ENDBRANCH  16  17
ENDBRANCH   2  16
TORSDOF 7
ENDMDL
