MODEL 1
REMARK VINA RESULT:      -8.5      0.000      0.000
REMARK  Name = 
REMARK  7 active torsions:
REMARK  status: ('A' for Active; 'I' for Inactive)
REMARK    1  A    between atoms: C_2  and  C_3
REMARK    2  A    between atoms: C_5  and  O_6
REMARK    3  A    between atoms: C_9  and  N_10
REMARK    4  A    between atoms: C_12  and  C_13
REMARK    5  A    between atoms: N_17  and  C_18
REMARK    6  A    between atoms: C_21  and  S_22
REMARK    7  A    between atoms: S_22  and  C_25
REMARK                            x       y       z     vdW  Elec       q    Type
REMARK                         _______ _______ _______ _____ _____    ______ ____
ROOT
ATOM      1  N   UNL     1       4.233   3.948  18.528  0.00  0.00    +0.000 N 
ATOM      2  C   UNL     1       3.966   2.986  19.444  0.00  0.00    +0.000 A 
ATOM      3  C   UNL     1       2.930   3.464  20.232  0.00  0.00    +0.000 A 
ATOM      4  C   UNL     1       2.610   4.742  19.648  0.00  0.00    +0.000 A 
ATOM      5  N   UNL     1       1.694   5.617  20.141  0.00  0.00    +0.000 N 
ATOM      6  N   UNL     1       3.400   4.978  18.590  0.00  0.00    +0.000 NA
ATOM      7  H   UNL     1       1.008   5.276  20.811  0.00  0.00    +0.000 HD
ENDROOT
BRANCH   1  13
ATOM      8  C   UNL     1       6.148   5.295  17.690  0.00  0.00    +0.000 C 
ATOM      9  C   UNL     1       7.237   5.377  16.606  0.00  0.00    +0.000 C 
ATOM     10  C   UNL     1       6.682   5.162  15.202  0.00  0.00    +0.000 C 
ATOM     11  C   UNL     1       5.924   3.839  15.101  0.00  0.00    +0.000 C 
ATOM     12  C   UNL     1       4.822   3.725  16.151  0.00  0.00    +0.000 C 
ATOM     13  C   UNL     1       5.345   3.978  17.577  0.00  0.00    +0.000 C 
BRANCH   8  15
ATOM     14  N   UNL     1       7.296   5.463  20.064  0.00  0.00    +0.000 NA
ATOM     15  C   UNL     1       6.778   5.412  19.018  0.00  0.00    +0.000 C 
ENDBRANCH   8  15
BRANCH  10  16
ATOM     16  O   UNL     1       5.851   6.257  14.831  0.00  0.00    +0.000 OA
ATOM     17  H   UNL     1       4.914   6.005  14.846  0.00  0.00    +0.000 HD
ENDBRANCH  10  16
ENDBRANCH   1  13
BRANCH   5  18
ATOM     18  C   UNL     1       1.630   7.022  19.949  0.00  0.00    +0.000 A 
ATOM     19  C   UNL     1       1.129   7.890  20.929  0.00  0.00    +0.000 A 
ATOM     20  C   UNL     1       1.019   9.262  20.717  0.00  0.00    +0.000 A 
ATOM     21  C   UNL     1       1.411   9.797  19.495  0.00  0.00    +0.000 A 
ATOM     22  C   UNL     1       1.854   8.962  18.466  0.00  0.00    +0.000 A 
ATOM     23  C   UNL     1       1.970   7.579  18.703  0.00  0.00    +0.000 A 
BRANCH  21  24
ATOM     24  S   UNL     1       1.287  11.566  19.292  0.00  0.00    +0.000 S 
ATOM     25  O   UNL     1       1.465  12.132  20.623  0.00  0.00    +0.000 OA
ATOM     26  O   UNL     1       2.232  11.915  18.242  0.00  0.00    +0.000 OA
BRANCH  24  27
ATOM     27  C   UNL     1      -0.426  11.808  18.704  0.00  0.00    +0.000 C 
ATOM     28  F   UNL     1      -0.878  10.784  17.921  0.00  0.00    +0.000 F 
ATOM     29  F   UNL     1      -1.320  11.920  19.734  0.00  0.00    +0.000 F 
ATOM     30  F   UNL     1      -0.567  12.938  17.959  0.00  0.00    +0.000 F 
ENDBRANCH  24  27
ENDBRANCH  21  24
ENDBRANCH   5  18
BRANCH   3  31
ATOM     31  C   UNL     1       2.389   2.800  21.401  0.00  0.00    +0.000 C 
ATOM     32  N   UNL     1       1.017   2.805  21.516  0.00  0.00    +0.000 N 
ATOM     33  O   UNL     1       3.075   2.242  22.248  0.00  0.00    +0.000 OA
ATOM     34  H   UNL     1       0.393   3.047  20.765  0.00  0.00    +0.000 HD
ATOM     35  H   UNL     1       0.632   2.272  22.284  0.00  0.00    +0.000 HD
ENDBRANCH   3  31
TORSDOF 7
ENDMDL
MODEL 2
REMARK VINA RESULT:      -8.2      0.394      1.197
REMARK  Name = 
REMARK  7 active torsions:
REMARK  status: ('A' for Active; 'I' for Inactive)
REMARK    1  A    between atoms: C_2  and  C_3
REMARK    2  A    between atoms: C_5  and  O_6
REMARK    3  A    between atoms: C_9  and  N_10
REMARK    4  A    between atoms: C_12  and  C_13
REMARK    5  A    between atoms: N_17  and  C_18
REMARK    6  A    between atoms: C_21  and  S_22
REMARK    7  A    between atoms: S_22  and  C_25
REMARK                            x       y       z     vdW  Elec       q    Type
REMARK                         _______ _______ _______ _____ _____    ______ ____
ROOT
ATOM      1  N   UNL     1       4.096   4.013  18.539  0.00  0.00    +0.000 N 
ATOM      2  C   UNL     1       3.907   3.020  19.442  0.00  0.00    +0.000 A 
ATOM      3  C   UNL     1       2.890   3.441  20.287  0.00  0.00    +0.000 A 
ATOM      4  C   UNL     1       2.498   4.719  19.751  0.00  0.00    +0.000 A 
ATOM      5  N   UNL     1       1.575   5.547  20.306  0.00  0.00    +0.000 N 
ATOM      6  N   UNL     1       3.230   5.009  18.664  0.00  0.00    +0.000 NA
ATOM      7  H   UNL     1       0.932   5.165  20.998  0.00  0.00    +0.000 HD
ENDROOT
BRANCH   1  13
ATOM      8  C   UNL     1       5.984   5.405  17.714  0.00  0.00    +0.000 C 
ATOM      9  C   UNL     1       7.021   5.560  16.587  0.00  0.00    +0.000 C 
ATOM     10  C   UNL     1       6.396   5.457  15.200  0.00  0.00    +0.000 C 
ATOM     11  C   UNL     1       5.620   4.152  15.036  0.00  0.00    +0.000 C 
ATOM     12  C   UNL     1       4.568   3.967  16.126  0.00  0.00    +0.000 C 
ATOM     13  C   UNL     1       5.161   4.106  17.540  0.00  0.00    +0.000 C 
BRANCH   8  15
ATOM     14  N   UNL     1       7.240   5.467  20.038  0.00  0.00    +0.000 NA
ATOM     15  C   UNL     1       6.678   5.415  19.014  0.00  0.00    +0.000 C 
ENDBRANCH   8  15
BRANCH  10  16
ATOM     16  O   UNL     1       5.562   6.583  14.954  0.00  0.00    +0.000 OA
ATOM     17  H   UNL     1       4.981   6.760  15.711  0.00  0.00    +0.000 HD
ENDBRANCH  10  16
ENDBRANCH   1  13
BRANCH   5  18
ATOM     18  C   UNL     1       1.451   6.953  20.152  0.00  0.00    +0.000 A 
ATOM     19  C   UNL     1       1.829   7.615  18.977  0.00  0.00    +0.000 A 
ATOM     20  C   UNL     1       1.754   9.000  18.849  0.00  0.00    +0.000 A 
ATOM     21  C   UNL     1       1.295   9.759  19.918  0.00  0.00    +0.000 A 
ATOM     22  C   UNL     1       0.968   9.149  21.133  0.00  0.00    +0.000 A 
ATOM     23  C   UNL     1       1.039   7.747  21.239  0.00  0.00    +0.000 A 
BRANCH  21  24
ATOM     24  S   UNL     1       1.181  11.525  19.686  0.00  0.00    +0.000 S 
ATOM     25  O   UNL     1       1.473  12.116  20.987  0.00  0.00    +0.000 OA
ATOM     26  O   UNL     1       2.044  11.837  18.557  0.00  0.00    +0.000 OA
BRANCH  24  27
ATOM     27  C   UNL     1      -0.570  11.783  19.232  0.00  0.00    +0.000 C 
ATOM     28  F   UNL     1      -1.278  12.468  20.177  0.00  0.00    +0.000 F 
ATOM     29  F   UNL     1      -0.708  12.491  18.069  0.00  0.00    +0.000 F 
ATOM     30  F   UNL     1      -1.237  10.613  19.040  0.00  0.00    +0.000 F 
ENDBRANCH  24  27
ENDBRANCH  21  24
ENDBRANCH   5  18
BRANCH   3  31
ATOM     31  C   UNL     1       2.428   2.730  21.462  0.00  0.00    +0.000 C 
ATOM     32  N   UNL     1       1.070   2.752  21.685  0.00  0.00    +0.000 N 
ATOM     33  O   UNL     1       3.166   2.119  22.225  0.00  0.00    +0.000 OA
ATOM     34  H   UNL     1       0.395   3.041  20.997  0.00  0.00    +0.000 HD
ATOM     35  H   UNL     1       0.735   2.189  22.454  0.00  0.00    +0.000 HD
ENDBRANCH   3  31
TORSDOF 7
ENDMDL
MODEL 3
REMARK VINA RESULT:      -8.2      4.834      9.683
REMARK  Name = 
REMARK  7 active torsions:
REMARK  status: ('A' for Active; 'I' for Inactive)
REMARK    1  A    between atoms: C_2  and  C_3
REMARK    2  A    between atoms: C_5  and  O_6
REMARK    3  A    between atoms: C_9  and  N_10
REMARK    4  A    between atoms: C_12  and  C_13
REMARK    5  A    between atoms: N_17  and  C_18
REMARK    6  A    between atoms: C_21  and  S_22
REMARK    7  A    between atoms: S_22  and  C_25
REMARK                            x       y       z     vdW  Elec       q    Type
REMARK                         _______ _______ _______ _____ _____    ______ ____
ROOT
ATOM      1  N   UNL     1      -1.590  11.758  18.450  0.00  0.00    +0.000 N 
ATOM      2  C   UNL     1      -1.008  12.975  18.577  0.00  0.00    +0.000 A 
ATOM      3  C   UNL     1       0.363  12.764  18.554  0.00  0.00    +0.000 A 
ATOM      4  C   UNL     1       0.493  11.344  18.353  0.00  0.00    +0.000 A 
ATOM      5  N   UNL     1       1.669  10.663  18.340  0.00  0.00    +0.000 N 
ATOM      6  N   UNL     1      -0.719  10.777  18.255  0.00  0.00    +0.000 NA
ATOM      7  H   UNL     1       2.533  11.188  18.216  0.00  0.00    +0.000 HD
ENDROOT
BRANCH   1  13
ATOM      8  C   UNL     1      -3.739  11.566  17.213  0.00  0.00    +0.000 C 
ATOM      9  C   UNL     1      -5.255  11.356  17.371  0.00  0.00    +0.000 C 
ATOM     10  C   UNL     1      -5.865  12.267  18.431  0.00  0.00    +0.000 C 
ATOM     11  C   UNL     1      -5.159  12.103  19.776  0.00  0.00    +0.000 C 
ATOM     12  C   UNL     1      -3.652  12.320  19.666  0.00  0.00    +0.000 C 
ATOM     13  C   UNL     1      -3.013  11.443  18.575  0.00  0.00    +0.000 C 
BRANCH   8  15
ATOM     14  N   UNL     1      -2.829   9.777  15.494  0.00  0.00    +0.000 NA
ATOM     15  C   UNL     1      -3.212  10.584  16.248  0.00  0.00    +0.000 C 
ENDBRANCH   8  15
BRANCH  10  16
ATOM     16  O   UNL     1      -5.825  13.621  17.994  0.00  0.00    +0.000 OA
ATOM     17  H   UNL     1      -6.631  13.853  17.505  0.00  0.00    +0.000 HD
ENDBRANCH  10  16
ENDBRANCH   1  13
BRANCH   5  18
ATOM     18  C   UNL     1       1.891   9.287  18.612  0.00  0.00    +0.000 A 
ATOM     19  C   UNL     1       1.561   8.704  19.842  0.00  0.00    +0.000 A 
ATOM     20  C   UNL     1       1.827   7.366  20.123  0.00  0.00    +0.000 A 
ATOM     21  C   UNL     1       2.446   6.577  19.160  0.00  0.00    +0.000 A 
ATOM     22  C   UNL     1       2.853   7.133  17.944  0.00  0.00    +0.000 A 
ATOM     23  C   UNL     1       2.564   8.483  17.673  0.00  0.00    +0.000 A 
BRANCH  21  24
ATOM     24  S   UNL     1       2.727   4.860  19.558  0.00  0.00    +0.000 S 
ATOM     25  O   UNL     1       4.174   4.708  19.657  0.00  0.00    +0.000 OA
ATOM     26  O   UNL     1       1.905   4.579  20.724  0.00  0.00    +0.000 OA
BRANCH  24  27
ATOM     27  C   UNL     1       2.077   3.973  18.099  0.00  0.00    +0.000 C 
ATOM     28  F   UNL     1       1.011   4.598  17.518  0.00  0.00    +0.000 F 
ATOM     29  F   UNL     1       3.016   3.831  17.114  0.00  0.00    +0.000 F 
ATOM     30  F   UNL     1       1.654   2.715  18.399  0.00  0.00    +0.000 F 
ENDBRANCH  24  27
ENDBRANCH  21  24
ENDBRANCH   5  18
BRANCH   3  31
ATOM     31  C   UNL     1       1.372  13.784  18.760  0.00  0.00    +0.000 C 
ATOM     32  N   UNL     1       0.932  14.966  19.310  0.00  0.00    +0.000 N 
ATOM     33  O   UNL     1       2.558  13.635  18.492  0.00  0.00    +0.000 OA
ATOM     34  H   UNL     1       0.033  15.079  19.748  0.00  0.00    +0.000 HD
ATOM     35  H   UNL     1       1.644  15.647  19.532  0.00  0.00    +0.000 HD
ENDBRANCH   3  31
TORSDOF 7
ENDMDL
MODEL 4
REMARK VINA RESULT:      -8.1      0.717      1.022
REMARK  Name = 
REMARK  7 active torsions:
REMARK  status: ('A' for Active; 'I' for Inactive)
REMARK    1  A    between atoms: C_2  and  C_3
REMARK    2  A    between atoms: C_5  and  O_6
REMARK    3  A    between atoms: C_9  and  N_10
REMARK    4  A    between atoms: C_12  and  C_13
REMARK    5  A    between atoms: N_17  and  C_18
REMARK    6  A    between atoms: C_21  and  S_22
REMARK    7  A    between atoms: S_22  and  C_25
REMARK                            x       y       z     vdW  Elec       q    Type
REMARK                         _______ _______ _______ _____ _____    ______ ____
ROOT
ATOM      1  N   UNL     1       4.135   4.057  18.620  0.00  0.00    +0.000 N 
ATOM      2  C   UNL     1       3.943   3.063  19.520  0.00  0.00    +0.000 A 
ATOM      3  C   UNL     1       2.945   3.496  20.382  0.00  0.00    +0.000 A 
ATOM      4  C   UNL     1       2.565   4.782  19.857  0.00  0.00    +0.000 A 
ATOM      5  N   UNL     1       1.662   5.622  20.429  0.00  0.00    +0.000 N 
ATOM      6  N   UNL     1       3.285   5.066  18.762  0.00  0.00    +0.000 NA
ATOM      7  H   UNL     1       1.024   5.246  21.128  0.00  0.00    +0.000 HD
ENDROOT
BRANCH   1  13
ATOM      8  C   UNL     1       6.012   5.440  17.754  0.00  0.00    +0.000 C 
ATOM      9  C   UNL     1       7.033   5.582  16.612  0.00  0.00    +0.000 C 
ATOM     10  C   UNL     1       6.391   5.463  15.234  0.00  0.00    +0.000 C 
ATOM     11  C   UNL     1       5.613   4.156  15.096  0.00  0.00    +0.000 C 
ATOM     12  C   UNL     1       4.576   3.983  16.202  0.00  0.00    +0.000 C 
ATOM     13  C   UNL     1       5.186   4.139  17.606  0.00  0.00    +0.000 C 
BRANCH   8  15
ATOM     14  N   UNL     1       7.307   5.447  20.057  0.00  0.00    +0.000 NA
ATOM     15  C   UNL     1       6.722   5.465  19.045  0.00  0.00    +0.000 C 
ENDBRANCH   8  15
BRANCH  10  16
ATOM     16  O   UNL     1       5.554   6.586  14.986  0.00  0.00    +0.000 OA
ATOM     17  H   UNL     1       4.620   6.363  15.129  0.00  0.00    +0.000 HD
ENDBRANCH  10  16
ENDBRANCH   1  13
BRANCH   5  18
ATOM     18  C   UNL     1       1.557   7.030  20.283  0.00  0.00    +0.000 A 
ATOM     19  C   UNL     1       1.069   7.855  21.305  0.00  0.00    +0.000 A 
ATOM     20  C   UNL     1       0.919   9.230  21.140  0.00  0.00    +0.000 A 
ATOM     21  C   UNL     1       1.257   9.811  19.924  0.00  0.00    +0.000 A 
ATOM     22  C   UNL     1       1.685   9.019  18.854  0.00  0.00    +0.000 A 
ATOM     23  C   UNL     1       1.842   7.634  19.044  0.00  0.00    +0.000 A 
BRANCH  21  24
ATOM     24  S   UNL     1       1.083  11.582  19.779  0.00  0.00    +0.000 S 
ATOM     25  O   UNL     1       1.300  12.112  21.120  0.00  0.00    +0.000 OA
ATOM     26  O   UNL     1       1.978  11.985  18.706  0.00  0.00    +0.000 OA
BRANCH  24  27
ATOM     27  C   UNL     1      -0.656  11.799  19.266  0.00  0.00    +0.000 C 
ATOM     28  F   UNL     1      -1.377  12.587  20.118  0.00  0.00    +0.000 F 
ATOM     29  F   UNL     1      -0.767  12.377  18.031  0.00  0.00    +0.000 F 
ATOM     30  F   UNL     1      -1.329  10.619  19.189  0.00  0.00    +0.000 F 
ENDBRANCH  24  27
ENDBRANCH  21  24
ENDBRANCH   5  18
BRANCH   3  31
ATOM     31  C   UNL     1       2.489   2.787  21.561  0.00  0.00    +0.000 C 
ATOM     32  N   UNL     1       3.294   1.759  21.995  0.00  0.00    +0.000 N 
ATOM     33  O   UNL     1       1.465   3.066  22.172  0.00  0.00    +0.000 OA
ATOM     34  H   UNL     1       4.239   1.617  21.680  0.00  0.00    +0.000 HD
ATOM     35  H   UNL     1       3.025   1.317  22.863  0.00  0.00    +0.000 HD
ENDBRANCH   3  31
TORSDOF 7
ENDMDL
MODEL 5
REMARK VINA RESULT:      -8.0      5.005      9.749
REMARK  Name = 
REMARK  7 active torsions:
REMARK  status: ('A' for Active; 'I' for Inactive)
REMARK    1  A    between atoms: C_2  and  C_3
REMARK    2  A    between atoms: C_5  and  O_6
REMARK    3  A    between atoms: C_9  and  N_10
REMARK    4  A    between atoms: C_12  and  C_13
REMARK    5  A    between atoms: N_17  and  C_18
REMARK    6  A    between atoms: C_21  and  S_22
REMARK    7  A    between atoms: S_22  and  C_25
REMARK                            x       y       z     vdW  Elec       q    Type
REMARK                         _______ _______ _______ _____ _____    ______ ____
ROOT
ATOM      1  N   UNL     1      -1.689  11.710  18.529  0.00  0.00    +0.000 N 
ATOM      2  C   UNL     1      -1.089  12.917  18.671  0.00  0.00    +0.000 A 
ATOM      3  C   UNL     1       0.277  12.679  18.706  0.00  0.00    +0.000 A 
ATOM      4  C   UNL     1       0.388  11.255  18.521  0.00  0.00    +0.000 A 
ATOM      5  N   UNL     1       1.550  10.551  18.561  0.00  0.00    +0.000 N 
ATOM      6  N   UNL     1      -0.830  10.711  18.377  0.00  0.00    +0.000 NA
ATOM      7  H   UNL     1       2.428  11.058  18.469  0.00  0.00    +0.000 HD
ENDROOT
BRANCH   1  13
ATOM      8  C   UNL     1      -3.798  11.599  17.216  0.00  0.00    +0.000 C 
ATOM      9  C   UNL     1      -5.323  11.419  17.317  0.00  0.00    +0.000 C 
ATOM     10  C   UNL     1      -5.949  12.315  18.381  0.00  0.00    +0.000 C 
ATOM     11  C   UNL     1      -5.293  12.099  19.743  0.00  0.00    +0.000 C 
ATOM     12  C   UNL     1      -3.779  12.285  19.690  0.00  0.00    +0.000 C 
ATOM     13  C   UNL     1      -3.122  11.423  18.597  0.00  0.00    +0.000 C 
BRANCH   8  15
ATOM     14  N   UNL     1      -2.793   9.869  15.489  0.00  0.00    +0.000 NA
ATOM     15  C   UNL     1      -3.260  10.632  16.242  0.00  0.00    +0.000 C 
ENDBRANCH   8  15
BRANCH  10  16
ATOM     16  O   UNL     1      -5.866  13.678  17.983  0.00  0.00    +0.000 OA
ATOM     17  H   UNL     1      -5.065  13.841  17.458  0.00  0.00    +0.000 HD
ENDBRANCH  10  16
ENDBRANCH   1  13
BRANCH   5  18
ATOM     18  C   UNL     1       1.733   9.174  18.852  0.00  0.00    +0.000 A 
ATOM     19  C   UNL     1       1.496   8.639  20.126  0.00  0.00    +0.000 A 
ATOM     20  C   UNL     1       1.726   7.297  20.420  0.00  0.00    +0.000 A 
ATOM     21  C   UNL     1       2.212   6.455  19.427  0.00  0.00    +0.000 A 
ATOM     22  C   UNL     1       2.526   6.958  18.161  0.00  0.00    +0.000 A 
ATOM     23  C   UNL     1       2.275   8.314  17.879  0.00  0.00    +0.000 A 
BRANCH  21  24
ATOM     24  S   UNL     1       2.452   4.737  19.848  0.00  0.00    +0.000 S 
ATOM     25  O   UNL     1       2.333   4.663  21.299  0.00  0.00    +0.000 OA
ATOM     26  O   UNL     1       1.516   3.989  19.022  0.00  0.00    +0.000 OA
BRANCH  24  27
ATOM     27  C   UNL     1       4.167   4.403  19.317  0.00  0.00    +0.000 C 
ATOM     28  F   UNL     1       5.041   5.395  19.659  0.00  0.00    +0.000 F 
ATOM     29  F   UNL     1       4.668   3.252  19.863  0.00  0.00    +0.000 F 
ATOM     30  F   UNL     1       4.277   4.257  17.968  0.00  0.00    +0.000 F 
ENDBRANCH  24  27
ENDBRANCH  21  24
ENDBRANCH   5  18
BRANCH   3  31
ATOM     31  C   UNL     1       1.297  13.680  18.945  0.00  0.00    +0.000 C 
ATOM     32  N   UNL     1       0.879  14.991  18.899  0.00  0.00    +0.000 N 
ATOM     33  O   UNL     1       2.467  13.418  19.196  0.00  0.00    +0.000 OA
ATOM     34  H   UNL     1      -0.088  15.270  18.915  0.00  0.00    +0.000 HD
ATOM     35  H   UNL     1       1.566  15.688  19.147  0.00  0.00    +0.000 HD
ENDBRANCH   3  31
TORSDOF 7
ENDMDL
MODEL 6
REMARK VINA RESULT:      -7.9      5.225      9.071
REMARK  Name = 
REMARK  7 active torsions:
REMARK  status: ('A' for Active; 'I' for Inactive)
REMARK    1  A    between atoms: C_2  and  C_3
REMARK    2  A    between atoms: C_5  and  O_6
REMARK    3  A    between atoms: C_9  and  N_10
REMARK    4  A    between atoms: C_12  and  C_13
REMARK    5  A    between atoms: N_17  and  C_18
REMARK    6  A    between atoms: C_21  and  S_22
REMARK    7  A    between atoms: S_22  and  C_25
REMARK                            x       y       z     vdW  Elec       q    Type
REMARK                         _______ _______ _______ _____ _____    ______ ____
ROOT
ATOM      1  N   UNL     1       1.531  13.504  19.702  0.00  0.00    +0.000 N 
ATOM      2  C   UNL     1       0.230  13.880  19.693  0.00  0.00    +0.000 A 
ATOM      3  C   UNL     1      -0.521  12.715  19.746  0.00  0.00    +0.000 A 
ATOM      4  C   UNL     1       0.466  11.669  19.838  0.00  0.00    +0.000 A 
ATOM      5  N   UNL     1       0.193  10.338  19.837  0.00  0.00    +0.000 N 
ATOM      6  N   UNL     1       1.699  12.196  19.849  0.00  0.00    +0.000 NA
ATOM      7  H   UNL     1      -0.760  10.037  20.032  0.00  0.00    +0.000 HD
ENDROOT
BRANCH   1  13
ATOM      8  C   UNL     1       2.483  15.762  20.126  0.00  0.00    +0.000 C 
ATOM      9  C   UNL     1       3.660  16.700  19.808  0.00  0.00    +0.000 C 
ATOM     10  C   UNL     1       3.961  16.775  18.315  0.00  0.00    +0.000 C 
ATOM     11  C   UNL     1       4.209  15.387  17.728  0.00  0.00    +0.000 C 
ATOM     12  C   UNL     1       3.055  14.429  18.008  0.00  0.00    +0.000 C 
ATOM     13  C   UNL     1       2.700  14.362  19.504  0.00  0.00    +0.000 C 
BRANCH   8  15
ATOM     14  N   UNL     1       2.240  15.592  22.752  0.00  0.00    +0.000 NA
ATOM     15  C   UNL     1       2.322  15.667  21.588  0.00  0.00    +0.000 C 
ENDBRANCH   8  15
BRANCH  10  16
ATOM     16  O   UNL     1       2.901  17.436  17.634  0.00  0.00    +0.000 OA
ATOM     17  H   UNL     1       2.908  18.390  17.819  0.00  0.00    +0.000 HD
ENDBRANCH  10  16
ENDBRANCH   1  13
BRANCH   5  18
ATOM     18  C   UNL     1       1.047   9.266  19.465  0.00  0.00    +0.000 A 
ATOM     19  C   UNL     1       1.512   9.100  18.153  0.00  0.00    +0.000 A 
ATOM     20  C   UNL     1       2.307   8.019  17.781  0.00  0.00    +0.000 A 
ATOM     21  C   UNL     1       2.651   7.066  18.732  0.00  0.00    +0.000 A 
ATOM     22  C   UNL     1       2.156   7.155  20.036  0.00  0.00    +0.000 A 
ATOM     23  C   UNL     1       1.364   8.261  20.397  0.00  0.00    +0.000 A 
BRANCH  21  24
ATOM     24  S   UNL     1       3.705   5.723  18.210  0.00  0.00    +0.000 S 
ATOM     25  O   UNL     1       4.362   6.184  16.993  0.00  0.00    +0.000 OA
ATOM     26  O   UNL     1       4.519   5.380  19.367  0.00  0.00    +0.000 OA
BRANCH  24  27
ATOM     27  C   UNL     1       2.528   4.375  17.845  0.00  0.00    +0.000 C 
ATOM     28  F   UNL     1       2.967   3.523  16.872  0.00  0.00    +0.000 F 
ATOM     29  F   UNL     1       2.270   3.597  18.941  0.00  0.00    +0.000 F 
ATOM     30  F   UNL     1       1.321   4.837  17.420  0.00  0.00    +0.000 F 
ENDBRANCH  24  27
ENDBRANCH  21  24
ENDBRANCH   5  18
BRANCH   3  31
ATOM     31  C   UNL     1      -1.966  12.642  19.657  0.00  0.00    +0.000 C 
ATOM     32  N   UNL     1      -2.657  13.701  20.200  0.00  0.00    +0.000 N 
ATOM     33  O   UNL     1      -2.572  11.722  19.123  0.00  0.00    +0.000 OA
ATOM     34  H   UNL     1      -2.230  14.576  20.455  0.00  0.00    +0.000 HD
ATOM     35  H   UNL     1      -3.658  13.696  20.066  0.00  0.00    +0.000 HD
ENDBRANCH   3  31
TORSDOF 7
ENDMDL
MODEL 7
REMARK VINA RESULT:      -7.9      5.189      8.988
REMARK  Name = 
REMARK  7 active torsions:
REMARK  status: ('A' for Active; 'I' for Inactive)
REMARK    1  A    between atoms: C_2  and  C_3
REMARK    2  A    between atoms: C_5  and  O_6
REMARK    3  A    between atoms: C_9  and  N_10
REMARK    4  A    between atoms: C_12  and  C_13
REMARK    5  A    between atoms: N_17  and  C_18
REMARK    6  A    between atoms: C_21  and  S_22
REMARK    7  A    between atoms: S_22  and  C_25
REMARK                            x       y       z     vdW  Elec       q    Type
REMARK                         _______ _______ _______ _____ _____    ______ ____
ROOT
ATOM      1  N   UNL     1       1.550  13.438  19.576  0.00  0.00    +0.000 N 
ATOM      2  C   UNL     1       0.256  13.840  19.591  0.00  0.00    +0.000 A 
ATOM      3  C   UNL     1      -0.516  12.691  19.679  0.00  0.00    +0.000 A 
ATOM      4  C   UNL     1       0.452  11.627  19.765  0.00  0.00    +0.000 A 
ATOM      5  N   UNL     1       0.153  10.302  19.791  0.00  0.00    +0.000 N 
ATOM      6  N   UNL     1       1.695  12.130  19.740  0.00  0.00    +0.000 NA
ATOM      7  H   UNL     1      -0.801  10.023  20.013  0.00  0.00    +0.000 HD
ENDROOT
BRANCH   1  13
ATOM      8  C   UNL     1       2.659  15.591  20.140  0.00  0.00    +0.000 C 
ATOM      9  C   UNL     1       3.839  16.516  19.792  0.00  0.00    +0.000 C 
ATOM     10  C   UNL     1       3.967  16.761  18.292  0.00  0.00    +0.000 C 
ATOM     11  C   UNL     1       4.073  15.445  17.522  0.00  0.00    +0.000 C 
ATOM     12  C   UNL     1       2.911  14.504  17.828  0.00  0.00    +0.000 C 
ATOM     13  C   UNL     1       2.730  14.269  19.338  0.00  0.00    +0.000 C 
BRANCH   8  15
ATOM     14  N   UNL     1       2.650  15.154  22.746  0.00  0.00    +0.000 NA
ATOM     15  C   UNL     1       2.665  15.325  21.590  0.00  0.00    +0.000 C 
ENDBRANCH   8  15
BRANCH  10  16
ATOM     16  O   UNL     1       2.870  17.539  17.827  0.00  0.00    +0.000 OA
ATOM     17  H   UNL     1       2.137  17.525  18.464  0.00  0.00    +0.000 HD
ENDBRANCH  10  16
ENDBRANCH   1  13
BRANCH   5  18
ATOM     18  C   UNL     1       0.977   9.208  19.416  0.00  0.00    +0.000 A 
ATOM     19  C   UNL     1       1.371   8.219  20.328  0.00  0.00    +0.000 A 
ATOM     20  C   UNL     1       2.221   7.176  19.969  0.00  0.00    +0.000 A 
ATOM     21  C   UNL     1       2.704   7.108  18.667  0.00  0.00    +0.000 A 
ATOM     22  C   UNL     1       2.391   8.108  17.742  0.00  0.00    +0.000 A 
ATOM     23  C   UNL     1       1.521   9.148  18.120  0.00  0.00    +0.000 A 
BRANCH  21  24
ATOM     24  S   UNL     1       3.758   5.729  18.250  0.00  0.00    +0.000 S 
ATOM     25  O   UNL     1       4.482   6.132  17.051  0.00  0.00    +0.000 OA
ATOM     26  O   UNL     1       4.506   5.417  19.458  0.00  0.00    +0.000 OA
BRANCH  24  27
ATOM     27  C   UNL     1       2.575   4.387  17.877  0.00  0.00    +0.000 C 
ATOM     28  F   UNL     1       2.359   3.549  18.933  0.00  0.00    +0.000 F 
ATOM     29  F   UNL     1       1.344   4.863  17.514  0.00  0.00    +0.000 F 
ATOM     30  F   UNL     1       2.990   3.596  16.850  0.00  0.00    +0.000 F 
ENDBRANCH  24  27
ENDBRANCH  21  24
ENDBRANCH   5  18
BRANCH   3  31
ATOM     31  C   UNL     1      -1.963  12.646  19.624  0.00  0.00    +0.000 C 
ATOM     32  N   UNL     1      -2.621  13.724  20.171  0.00  0.00    +0.000 N 
ATOM     33  O   UNL     1      -2.600  11.732  19.115  0.00  0.00    +0.000 OA
ATOM     34  H   UNL     1      -2.172  14.594  20.405  0.00  0.00    +0.000 HD
ATOM     35  H   UNL     1      -3.625  13.737  20.060  0.00  0.00    +0.000 HD
ENDBRANCH   3  31
TORSDOF 7
ENDMDL
MODEL 8
REMARK VINA RESULT:      -7.9      4.985      9.756
REMARK  Name = 
REMARK  7 active torsions:
REMARK  status: ('A' for Active; 'I' for Inactive)
REMARK    1  A    between atoms: C_2  and  C_3
REMARK    2  A    between atoms: C_5  and  O_6
REMARK    3  A    between atoms: C_9  and  N_10
REMARK    4  A    between atoms: C_12  and  C_13
REMARK    5  A    between atoms: N_17  and  C_18
REMARK    6  A    between atoms: C_21  and  S_22
REMARK    7  A    between atoms: S_22  and  C_25
REMARK                            x       y       z     vdW  Elec       q    Type
REMARK                         _______ _______ _______ _____ _____    ______ ____
ROOT
ATOM      1  N   UNL     1      -1.628  11.744  18.513  0.00  0.00    +0.000 N 
ATOM      2  C   UNL     1      -1.053  12.964  18.644  0.00  0.00    +0.000 A 
ATOM      3  C   UNL     1       0.318  12.755  18.684  0.00  0.00    +0.000 A 
ATOM      4  C   UNL     1       0.458  11.331  18.513  0.00  0.00    +0.000 A 
ATOM      5  N   UNL     1       1.634  10.652  18.563  0.00  0.00    +0.000 N 
ATOM      6  N   UNL     1      -0.749  10.761  18.372  0.00  0.00    +0.000 NA
ATOM      7  H   UNL     1       2.502  11.175  18.467  0.00  0.00    +0.000 HD
ENDROOT
BRANCH   1  13
ATOM      8  C   UNL     1      -3.730  11.572  17.196  0.00  0.00    +0.000 C 
ATOM      9  C   UNL     1      -5.252  11.362  17.295  0.00  0.00    +0.000 C 
ATOM     10  C   UNL     1      -5.899  12.259  18.345  0.00  0.00    +0.000 C 
ATOM     11  C   UNL     1      -5.243  12.076  19.712  0.00  0.00    +0.000 C 
ATOM     12  C   UNL     1      -3.733  12.292  19.660  0.00  0.00    +0.000 C 
ATOM     13  C   UNL     1      -3.055  11.429  18.581  0.00  0.00    +0.000 C 
BRANCH   8  15
ATOM     14  N   UNL     1      -2.741   9.859  15.443  0.00  0.00    +0.000 NA
ATOM     15  C   UNL     1      -3.170  10.602  16.237  0.00  0.00    +0.000 C 
ENDBRANCH   8  15
BRANCH  10  16
ATOM     16  O   UNL     1      -5.842  13.619  17.928  0.00  0.00    +0.000 OA
ATOM     17  H   UNL     1      -5.057  13.784  17.382  0.00  0.00    +0.000 HD
ENDBRANCH  10  16
ENDBRANCH   1  13
BRANCH   5  18
ATOM     18  C   UNL     1       1.844   9.281  18.867  0.00  0.00    +0.000 A 
ATOM     19  C   UNL     1       2.262   8.354  17.903  0.00  0.00    +0.000 A 
ATOM     20  C   UNL     1       2.417   7.001  18.193  0.00  0.00    +0.000 A 
ATOM     21  C   UNL     1       2.147   6.545  19.478  0.00  0.00    +0.000 A 
ATOM     22  C   UNL     1       1.665   7.421  20.455  0.00  0.00    +0.000 A 
ATOM     23  C   UNL     1       1.526   8.787  20.146  0.00  0.00    +0.000 A 
BRANCH  21  24
ATOM     24  S   UNL     1       2.401   4.809  19.807  0.00  0.00    +0.000 S 
ATOM     25  O   UNL     1       2.258   4.653  21.249  0.00  0.00    +0.000 OA
ATOM     26  O   UNL     1       1.490   4.097  18.924  0.00  0.00    +0.000 OA
BRANCH  24  27
ATOM     27  C   UNL     1       4.130   4.526  19.289  0.00  0.00    +0.000 C 
ATOM     28  F   UNL     1       4.669   3.384  19.808  0.00  0.00    +0.000 F 
ATOM     29  F   UNL     1       4.257   4.421  17.930  0.00  0.00    +0.000 F 
ATOM     30  F   UNL     1       4.960   5.536  19.666  0.00  0.00    +0.000 F 
ENDBRANCH  24  27
ENDBRANCH  21  24
ENDBRANCH   5  18
BRANCH   3  31
ATOM     31  C   UNL     1       1.317  13.779  18.915  0.00  0.00    +0.000 C 
ATOM     32  N   UNL     1       0.888  15.080  18.785  0.00  0.00    +0.000 N 
ATOM     33  O   UNL     1       2.477  13.543  19.227  0.00  0.00    +0.000 OA
ATOM     34  H   UNL     1      -0.082  15.348  18.747  0.00  0.00    +0.000 HD
ATOM     35  H   UNL     1       1.557  15.797  19.027  0.00  0.00    +0.000 HD
ENDBRANCH   3  31
TORSDOF 7
ENDMDL
MODEL 9
REMARK VINA RESULT:      -7.8      5.163      9.044
REMARK  Name = 
REMARK  7 active torsions:
REMARK  status: ('A' for Active; 'I' for Inactive)
REMARK    1  A    between atoms: C_2  and  C_3
REMARK    2  A    between atoms: C_5  and  O_6
REMARK    3  A    between atoms: C_9  and  N_10
REMARK    4  A    between atoms: C_12  and  C_13
REMARK    5  A    between atoms: N_17  and  C_18
REMARK    6  A    between atoms: C_21  and  S_22
REMARK    7  A    between atoms: S_22  and  C_25
REMARK                            x       y       z     vdW  Elec       q    Type
REMARK                         _______ _______ _______ _____ _____    ______ ____
ROOT
ATOM      1  N   UNL     1       1.607  13.151  19.246  0.00  0.00    +0.000 N 
ATOM      2  C   UNL     1       0.332  13.470  18.919  0.00  0.00    +0.000 A 
ATOM      3  C   UNL     1      -0.361  12.273  18.810  0.00  0.00    +0.000 A 
ATOM      4  C   UNL     1       0.616  11.272  19.154  0.00  0.00    +0.000 A 
ATOM      5  N   UNL     1       0.406   9.930  19.110  0.00  0.00    +0.000 N 
ATOM      6  N   UNL     1       1.788  11.853  19.451  0.00  0.00    +0.000 NA
ATOM      7  H   UNL     1      -0.553   9.589  19.076  0.00  0.00    +0.000 HD
ENDROOT
BRANCH   1  13
ATOM      8  C   UNL     1       2.378  15.384  20.022  0.00  0.00    +0.000 C 
ATOM      9  C   UNL     1       3.548  16.382  19.986  0.00  0.00    +0.000 C 
ATOM     10  C   UNL     1       4.080  16.610  18.575  0.00  0.00    +0.000 C 
ATOM     11  C   UNL     1       4.479  15.293  17.913  0.00  0.00    +0.000 C 
ATOM     12  C   UNL     1       3.339  14.279  17.913  0.00  0.00    +0.000 C 
ATOM     13  C   UNL     1       2.754  14.057  19.320  0.00  0.00    +0.000 C 
BRANCH   8  15
ATOM     14  N   UNL     1       1.641  14.959  22.524  0.00  0.00    +0.000 NA
ATOM     15  C   UNL     1       1.991  15.143  21.424  0.00  0.00    +0.000 C 
ENDBRANCH   8  15
BRANCH  10  16
ATOM     16  O   UNL     1       3.113  17.303  17.794  0.00  0.00    +0.000 OA
ATOM     17  H   UNL     1       3.331  18.246  17.724  0.00  0.00    +0.000 HD
ENDBRANCH  10  16
ENDBRANCH   1  13
BRANCH   5  18
ATOM     18  C   UNL     1       1.367   8.894  18.971  0.00  0.00    +0.000 A 
ATOM     19  C   UNL     1       2.078   8.686  17.782  0.00  0.00    +0.000 A 
ATOM     20  C   UNL     1       2.982   7.638  17.632  0.00  0.00    +0.000 A 
ATOM     21  C   UNL     1       3.189   6.760  18.691  0.00  0.00    +0.000 A 
ATOM     22  C   UNL     1       2.454   6.889  19.873  0.00  0.00    +0.000 A 
ATOM     23  C   UNL     1       1.554   7.963  20.009  0.00  0.00    +0.000 A 
BRANCH  21  24
ATOM     24  S   UNL     1       4.388   5.458  18.459  0.00  0.00    +0.000 S 
ATOM     25  O   UNL     1       5.104   5.792  17.234  0.00  0.00    +0.000 OA
ATOM     26  O   UNL     1       5.128   5.369  19.709  0.00  0.00    +0.000 OA
BRANCH  24  27
ATOM     27  C   UNL     1       3.359   3.967  18.228  0.00  0.00    +0.000 C 
ATOM     28  F   UNL     1       2.331   3.876  19.122  0.00  0.00    +0.000 F 
ATOM     29  F   UNL     1       2.786   3.917  16.986  0.00  0.00    +0.000 F 
ATOM     30  F   UNL     1       4.071   2.815  18.359  0.00  0.00    +0.000 F 
ENDBRANCH  24  27
ENDBRANCH  21  24
ENDBRANCH   5  18
BRANCH   3  31
ATOM     31  C   UNL     1      -1.738  12.137  18.379  0.00  0.00    +0.000 C 
ATOM     32  N   UNL     1      -1.933  11.978  17.026  0.00  0.00    +0.000 N 
ATOM     33  O   UNL     1      -2.696  12.139  19.142  0.00  0.00    +0.000 OA
ATOM     34  H   UNL     1      -1.198  11.752  16.377  0.00  0.00    +0.000 HD
ATOM     35  H   UNL     1      -2.882  11.799  16.730  0.00  0.00    +0.000 HD
ENDBRANCH   3  31
TORSDOF 7
ENDMDL
