MODEL 1
REMARK VINA RESULT:      -7.5      0.000      0.000
REMARK  Name = 
REMARK  9 active torsions:
REMARK  status: ('A' for Active; 'I' for Inactive)
REMARK    1  A    between atoms: C_2  and  C_3
REMARK    2  A    between atoms: C_2  and  C_11
REMARK    3  A    between atoms: C_3  and  C_4
REMARK    4  A    between atoms: C_7  and  O_8
REMARK    5  A    between atoms: C_11  and  C_13
REMARK    6  A    between atoms: C_13  and  C_14
REMARK    7  A    between atoms: C_17  and  O_18
REMARK    8  A    between atoms: O_18  and  C_19
REMARK    9  A    between atoms: C_21  and  O_22
REMARK                            x       y       z     vdW  Elec       q    Type
REMARK                         _______ _______ _______ _____ _____    ______ ____
ROOT
ATOM      1  C   UNL     1       2.144   4.174  18.233  0.00  0.00    +0.000 C 
ATOM      2  C   UNL     1       1.094   4.270  17.396  0.00  0.00    +0.000 C 
ENDROOT
BRANCH   1   4
ATOM      3  C   UNL     1       1.398   3.959  20.540  0.00  0.00    +0.000 C 
ATOM      4  C   UNL     1       2.050   4.674  19.608  0.00  0.00    +0.000 C 
BRANCH   4   5
ATOM      5  C   UNL     1       2.789   5.948  19.977  0.00  0.00    +0.000 C 
BRANCH   5   6
ATOM      6  C   UNL     1       2.199   7.266  19.493  0.00  0.00    +0.000 A 
ATOM      7  C   UNL     1       2.320   7.723  18.176  0.00  0.00    +0.000 A 
ATOM      8  C   UNL     1       1.836   8.979  17.800  0.00  0.00    +0.000 A 
ATOM      9  C   UNL     1       1.185   9.772  18.733  0.00  0.00    +0.000 A 
ATOM     10  C   UNL     1       0.987   9.316  20.029  0.00  0.00    +0.000 A 
ATOM     11  C   UNL     1       1.496   8.070  20.410  0.00  0.00    +0.000 A 
BRANCH   9  12
ATOM     12  O   UNL     1       0.732  11.015  18.410  0.00  0.00    +0.000 OA
ATOM     13  H   UNL     1       0.237  10.945  17.576  0.00  0.00    +0.000 HD
ENDBRANCH   9  12
ENDBRANCH   5   6
ENDBRANCH   4   5
ENDBRANCH   1   4
BRANCH   1  14
ATOM     14  C   UNL     1       3.474   3.583  17.758  0.00  0.00    +0.000 C 
BRANCH  14  15
ATOM     15  C   UNL     1       4.584   4.605  17.606  0.00  0.00    +0.000 A 
ATOM     16  C   UNL     1       4.492   5.616  16.636  0.00  0.00    +0.000 A 
ATOM     17  C   UNL     1       5.558   6.483  16.390  0.00  0.00    +0.000 A 
ATOM     18  C   UNL     1       6.728   6.378  17.136  0.00  0.00    +0.000 A 
ATOM     19  C   UNL     1       6.793   5.453  18.180  0.00  0.00    +0.000 A 
ATOM     20  C   UNL     1       5.727   4.580  18.412  0.00  0.00    +0.000 A 
BRANCH  18  21
ATOM     21  O   UNL     1       7.865   7.113  16.931  0.00  0.00    +0.000 OA
ATOM     22  C   UNL     1       7.953   8.336  17.657  0.00  0.00    +0.000 C 
ENDBRANCH  18  21
BRANCH  20  23
ATOM     23  O   UNL     1       5.806   3.665  19.426  0.00  0.00    +0.000 OA
ATOM     24  H   UNL     1       4.910   3.346  19.627  0.00  0.00    +0.000 HD
ENDBRANCH  20  23
ENDBRANCH  14  15
ENDBRANCH   1  14
TORSDOF 8
ENDMDL
MODEL 2
REMARK VINA RESULT:      -7.4      1.871      2.639
REMARK  Name = 
REMARK  9 active torsions:
REMARK  status: ('A' for Active; 'I' for Inactive)
REMARK    1  A    between atoms: C_2  and  C_3
REMARK    2  A    between atoms: C_2  and  C_11
REMARK    3  A    between atoms: C_3  and  C_4
REMARK    4  A    between atoms: C_7  and  O_8
REMARK    5  A    between atoms: C_11  and  C_13
REMARK    6  A    between atoms: C_13  and  C_14
REMARK    7  A    between atoms: C_17  and  O_18
REMARK    8  A    between atoms: O_18  and  C_19
REMARK    9  A    between atoms: C_21  and  O_22
REMARK                            x       y       z     vdW  Elec       q    Type
REMARK                         _______ _______ _______ _____ _____    ______ ____
ROOT
ATOM      1  C   UNL     1       3.823   3.525  19.367  0.00  0.00    +0.000 C 
ATOM      2  C   UNL     1       3.873   2.180  19.394  0.00  0.00    +0.000 C 
ENDROOT
BRANCH   1   4
ATOM      3  C   UNL     1       1.459   3.720  18.817  0.00  0.00    +0.000 C 
ATOM      4  C   UNL     1       2.536   4.224  19.443  0.00  0.00    +0.000 C 
BRANCH   4   5
ATOM      5  C   UNL     1       2.422   5.456  20.323  0.00  0.00    +0.000 C 
BRANCH   5   6
ATOM      6  C   UNL     1       2.268   6.803  19.629  0.00  0.00    +0.000 A 
ATOM      7  C   UNL     1       1.614   7.895  20.209  0.00  0.00    +0.000 A 
ATOM      8  C   UNL     1       1.422   9.083  19.500  0.00  0.00    +0.000 A 
ATOM      9  C   UNL     1       1.925   9.203  18.213  0.00  0.00    +0.000 A 
ATOM     10  C   UNL     1       2.641   8.162  17.636  0.00  0.00    +0.000 A 
ATOM     11  C   UNL     1       2.808   6.965  18.339  0.00  0.00    +0.000 A 
BRANCH   9  12
ATOM     12  O   UNL     1       1.727  10.334  17.479  0.00  0.00    +0.000 OA
ATOM     13  H   UNL     1       2.447  10.398  16.830  0.00  0.00    +0.000 HD
ENDBRANCH   9  12
ENDBRANCH   5   6
ENDBRANCH   4   5
ENDBRANCH   1   4
BRANCH   1  14
ATOM     14  C   UNL     1       5.099   4.354  19.211  0.00  0.00    +0.000 C 
BRANCH  14  15
ATOM     15  C   UNL     1       5.584   4.477  17.779  0.00  0.00    +0.000 A 
ATOM     16  C   UNL     1       4.668   4.485  16.715  0.00  0.00    +0.000 A 
ATOM     17  C   UNL     1       5.099   4.463  15.388  0.00  0.00    +0.000 A 
ATOM     18  C   UNL     1       6.460   4.468  15.096  0.00  0.00    +0.000 A 
ATOM     19  C   UNL     1       7.382   4.574  16.139  0.00  0.00    +0.000 A 
ATOM     20  C   UNL     1       6.944   4.584  17.466  0.00  0.00    +0.000 A 
BRANCH  18  21
ATOM     21  O   UNL     1       7.000   4.363  13.842  0.00  0.00    +0.000 OA
ATOM     22  C   UNL     1       6.205   3.673  12.880  0.00  0.00    +0.000 C 
ENDBRANCH  18  21
BRANCH  20  23
ATOM     23  O   UNL     1       7.856   4.670  18.482  0.00  0.00    +0.000 OA
ATOM     24  H   UNL     1       8.415   5.450  18.331  0.00  0.00    +0.000 HD
ENDBRANCH  20  23
ENDBRANCH  14  15
ENDBRANCH   1  14
TORSDOF 8
ENDMDL
MODEL 3
REMARK VINA RESULT:      -7.4      1.194      1.759
REMARK  Name = 
REMARK  9 active torsions:
REMARK  status: ('A' for Active; 'I' for Inactive)
REMARK    1  A    between atoms: C_2  and  C_3
REMARK    2  A    between atoms: C_2  and  C_11
REMARK    3  A    between atoms: C_3  and  C_4
REMARK    4  A    between atoms: C_7  and  O_8
REMARK    5  A    between atoms: C_11  and  C_13
REMARK    6  A    between atoms: C_13  and  C_14
REMARK    7  A    between atoms: C_17  and  O_18
REMARK    8  A    between atoms: O_18  and  C_19
REMARK    9  A    between atoms: C_21  and  O_22
REMARK                            x       y       z     vdW  Elec       q    Type
REMARK                         _______ _______ _______ _____ _____    ______ ____
ROOT
ATOM      1  C   UNL     1       2.887   3.602  18.524  0.00  0.00    +0.000 C 
ATOM      2  C   UNL     1       2.364   3.424  17.296  0.00  0.00    +0.000 C 
ENDROOT
BRANCH   1   4
ATOM      3  C   UNL     1       0.959   3.643  20.010  0.00  0.00    +0.000 C 
ATOM      4  C   UNL     1       2.095   4.225  19.589  0.00  0.00    +0.000 C 
BRANCH   4   5
ATOM      5  C   UNL     1       2.634   5.469  20.273  0.00  0.00    +0.000 C 
BRANCH   5   6
ATOM      6  C   UNL     1       2.403   6.806  19.581  0.00  0.00    +0.000 A 
ATOM      7  C   UNL     1       1.716   7.869  20.177  0.00  0.00    +0.000 A 
ATOM      8  C   UNL     1       1.454   9.046  19.471  0.00  0.00    +0.000 A 
ATOM      9  C   UNL     1       1.918   9.185  18.171  0.00  0.00    +0.000 A 
ATOM     10  C   UNL     1       2.664   8.176  17.578  0.00  0.00    +0.000 A 
ATOM     11  C   UNL     1       2.902   6.989  18.277  0.00  0.00    +0.000 A 
BRANCH   9  12
ATOM     12  O   UNL     1       1.651  10.304  17.442  0.00  0.00    +0.000 OA
ATOM     13  H   UNL     1       0.879  10.116  16.881  0.00  0.00    +0.000 HD
ENDBRANCH   9  12
ENDBRANCH   5   6
ENDBRANCH   4   5
ENDBRANCH   1   4
BRANCH   1  14
ATOM     14  C   UNL     1       4.333   3.201  18.826  0.00  0.00    +0.000 C 
BRANCH  14  15
ATOM     15  C   UNL     1       5.364   4.208  18.354  0.00  0.00    +0.000 A 
ATOM     16  C   UNL     1       5.843   5.198  19.226  0.00  0.00    +0.000 A 
ATOM     17  C   UNL     1       6.689   6.213  18.775  0.00  0.00    +0.000 A 
ATOM     18  C   UNL     1       7.102   6.238  17.447  0.00  0.00    +0.000 A 
ATOM     19  C   UNL     1       6.726   5.198  16.595  0.00  0.00    +0.000 A 
ATOM     20  C   UNL     1       5.869   4.192  17.049  0.00  0.00    +0.000 A 
BRANCH  18  21
ATOM     21  O   UNL     1       7.858   7.224  16.872  0.00  0.00    +0.000 OA
ATOM     22  C   UNL     1       8.001   8.420  17.635  0.00  0.00    +0.000 C 
ENDBRANCH  18  21
BRANCH  20  23
ATOM     23  O   UNL     1       5.491   3.187  16.202  0.00  0.00    +0.000 OA
ATOM     24  H   UNL     1       5.352   3.564  15.316  0.00  0.00    +0.000 HD
ENDBRANCH  20  23
ENDBRANCH  14  15
ENDBRANCH   1  14
TORSDOF 8
ENDMDL
MODEL 4
REMARK VINA RESULT:      -7.2      1.204      5.643
REMARK  Name = 
REMARK  9 active torsions:
REMARK  status: ('A' for Active; 'I' for Inactive)
REMARK    1  A    between atoms: C_2  and  C_3
REMARK    2  A    between atoms: C_2  and  C_11
REMARK    3  A    between atoms: C_3  and  C_4
REMARK    4  A    between atoms: C_7  and  O_8
REMARK    5  A    between atoms: C_11  and  C_13
REMARK    6  A    between atoms: C_13  and  C_14
REMARK    7  A    between atoms: C_17  and  O_18
REMARK    8  A    between atoms: O_18  and  C_19
REMARK    9  A    between atoms: C_21  and  O_22
REMARK                            x       y       z     vdW  Elec       q    Type
REMARK                         _______ _______ _______ _____ _____    ______ ____
ROOT
ATOM      1  C   UNL     1       2.136   4.961  19.619  0.00  0.00    +0.000 C 
ATOM      2  C   UNL     1       1.291   4.482  20.550  0.00  0.00    +0.000 C 
ENDROOT
BRANCH   1   4
ATOM      3  C   UNL     1       1.370   4.163  17.451  0.00  0.00    +0.000 C 
ATOM      4  C   UNL     1       2.353   4.234  18.364  0.00  0.00    +0.000 C 
BRANCH   4   5
ATOM      5  C   UNL     1       3.730   3.665  18.074  0.00  0.00    +0.000 C 
BRANCH   5   6
ATOM      6  C   UNL     1       4.845   4.654  17.758  0.00  0.00    +0.000 A 
ATOM      7  C   UNL     1       6.056   4.695  18.459  0.00  0.00    +0.000 A 
ATOM      8  C   UNL     1       7.014   5.675  18.190  0.00  0.00    +0.000 A 
ATOM      9  C   UNL     1       6.785   6.600  17.182  0.00  0.00    +0.000 A 
ATOM     10  C   UNL     1       5.625   6.541  16.421  0.00  0.00    +0.000 A 
ATOM     11  C   UNL     1       4.657   5.575  16.710  0.00  0.00    +0.000 A 
BRANCH   9  12
ATOM     12  O   UNL     1       7.681   7.591  16.916  0.00  0.00    +0.000 OA
ATOM     13  H   UNL     1       8.547   7.176  16.760  0.00  0.00    +0.000 HD
ENDBRANCH   9  12
ENDBRANCH   5   6
ENDBRANCH   4   5
ENDBRANCH   1   4
BRANCH   1  14
ATOM     14  C   UNL     1       2.925   6.249  19.865  0.00  0.00    +0.000 C 
BRANCH  14  15
ATOM     15  C   UNL     1       2.177   7.512  19.484  0.00  0.00    +0.000 A 
ATOM     16  C   UNL     1       2.140   7.941  18.148  0.00  0.00    +0.000 A 
ATOM     17  C   UNL     1       1.573   9.167  17.796  0.00  0.00    +0.000 A 
ATOM     18  C   UNL     1       0.997   9.975  18.773  0.00  0.00    +0.000 A 
ATOM     19  C   UNL     1       0.926   9.512  20.088  0.00  0.00    +0.000 A 
ATOM     20  C   UNL     1       1.506   8.289  20.435  0.00  0.00    +0.000 A 
BRANCH  18  21
ATOM     21  O   UNL     1       0.488  11.228  18.562  0.00  0.00    +0.000 OA
ATOM     22  C   UNL     1      -0.930  11.310  18.445  0.00  0.00    +0.000 C 
ENDBRANCH  18  21
BRANCH  20  23
ATOM     23  O   UNL     1       1.447   7.852  21.730  0.00  0.00    +0.000 OA
ATOM     24  H   UNL     1       2.073   8.372  22.261  0.00  0.00    +0.000 HD
ENDBRANCH  20  23
ENDBRANCH  14  15
ENDBRANCH   1  14
TORSDOF 8
ENDMDL
MODEL 5
REMARK VINA RESULT:      -7.2      1.782      4.379
REMARK  Name = 
REMARK  9 active torsions:
REMARK  status: ('A' for Active; 'I' for Inactive)
REMARK    1  A    between atoms: C_2  and  C_3
REMARK    2  A    between atoms: C_2  and  C_11
REMARK    3  A    between atoms: C_3  and  C_4
REMARK    4  A    between atoms: C_7  and  O_8
REMARK    5  A    between atoms: C_11  and  C_13
REMARK    6  A    between atoms: C_13  and  C_14
REMARK    7  A    between atoms: C_17  and  O_18
REMARK    8  A    between atoms: O_18  and  C_19
REMARK    9  A    between atoms: C_21  and  O_22
REMARK                            x       y       z     vdW  Elec       q    Type
REMARK                         _______ _______ _______ _____ _____    ______ ____
ROOT
ATOM      1  C   UNL     1       5.224   5.082  16.039  0.00  0.00    +0.000 C 
ATOM      2  C   UNL     1       5.466   5.275  14.729  0.00  0.00    +0.000 C 
ENDROOT
BRANCH   1   4
ATOM      3  C   UNL     1       6.008   6.466  17.882  0.00  0.00    +0.000 C 
ATOM      4  C   UNL     1       5.075   6.225  16.946  0.00  0.00    +0.000 C 
BRANCH   4   5
ATOM      5  C   UNL     1       3.916   7.183  16.735  0.00  0.00    +0.000 C 
BRANCH   5   6
ATOM      6  C   UNL     1       3.077   7.546  17.952  0.00  0.00    +0.000 A 
ATOM      7  C   UNL     1       2.973   6.729  19.084  0.00  0.00    +0.000 A 
ATOM      8  C   UNL     1       2.123   7.064  20.141  0.00  0.00    +0.000 A 
ATOM      9  C   UNL     1       1.400   8.247  20.093  0.00  0.00    +0.000 A 
ATOM     10  C   UNL     1       1.537   9.113  19.016  0.00  0.00    +0.000 A 
ATOM     11  C   UNL     1       2.368   8.763  17.948  0.00  0.00    +0.000 A 
BRANCH   9  12
ATOM     12  O   UNL     1       0.536   8.588  21.089  0.00  0.00    +0.000 OA
ATOM     13  H   UNL     1       0.404   7.804  21.650  0.00  0.00    +0.000 HD
ENDBRANCH   9  12
ENDBRANCH   5   6
ENDBRANCH   4   5
ENDBRANCH   1   4
BRANCH   1  14
ATOM     14  C   UNL     1       5.142   3.670  16.622  0.00  0.00    +0.000 C 
BRANCH  14  15
ATOM     15  C   UNL     1       3.993   3.468  17.592  0.00  0.00    +0.000 A 
ATOM     16  C   UNL     1       2.665   3.517  17.141  0.00  0.00    +0.000 A 
ATOM     17  C   UNL     1       1.595   3.467  18.036  0.00  0.00    +0.000 A 
ATOM     18  C   UNL     1       1.832   3.332  19.401  0.00  0.00    +0.000 A 
ATOM     19  C   UNL     1       3.143   3.168  19.853  0.00  0.00    +0.000 A 
ATOM     20  C   UNL     1       4.210   3.231  18.954  0.00  0.00    +0.000 A 
BRANCH  18  21
ATOM     21  O   UNL     1       0.872   3.356  20.376  0.00  0.00    +0.000 OA
ATOM     22  C   UNL     1       1.245   2.786  21.629  0.00  0.00    +0.000 C 
ENDBRANCH  18  21
BRANCH  20  23
ATOM     23  O   UNL     1       5.492   3.088  19.409  0.00  0.00    +0.000 OA
ATOM     24  H   UNL     1       5.800   2.192  19.192  0.00  0.00    +0.000 HD
ENDBRANCH  20  23
ENDBRANCH  14  15
ENDBRANCH   1  14
TORSDOF 8
ENDMDL
MODEL 6
REMARK VINA RESULT:      -7.2      1.260      1.504
REMARK  Name = 
REMARK  9 active torsions:
REMARK  status: ('A' for Active; 'I' for Inactive)
REMARK    1  A    between atoms: C_2  and  C_3
REMARK    2  A    between atoms: C_2  and  C_11
REMARK    3  A    between atoms: C_3  and  C_4
REMARK    4  A    between atoms: C_7  and  O_8
REMARK    5  A    between atoms: C_11  and  C_13
REMARK    6  A    between atoms: C_13  and  C_14
REMARK    7  A    between atoms: C_17  and  O_18
REMARK    8  A    between atoms: O_18  and  C_19
REMARK    9  A    between atoms: C_21  and  O_22
REMARK                            x       y       z     vdW  Elec       q    Type
REMARK                         _______ _______ _______ _____ _____    ______ ____
ROOT
ATOM      1  C   UNL     1       2.436   4.037  18.703  0.00  0.00    +0.000 C 
ATOM      2  C   UNL     1       1.476   3.992  17.761  0.00  0.00    +0.000 C 
ENDROOT
BRANCH   1   4
ATOM      3  C   UNL     1       1.524   4.385  20.933  0.00  0.00    +0.000 C 
ATOM      4  C   UNL     1       2.259   4.851  19.910  0.00  0.00    +0.000 C 
BRANCH   4   5
ATOM      5  C   UNL     1       3.005   6.169  20.022  0.00  0.00    +0.000 C 
BRANCH   5   6
ATOM      6  C   UNL     1       2.317   7.413  19.475  0.00  0.00    +0.000 A 
ATOM      7  C   UNL     1       2.430   7.831  18.145  0.00  0.00    +0.000 A 
ATOM      8  C   UNL     1       1.850   9.025  17.710  0.00  0.00    +0.000 A 
ATOM      9  C   UNL     1       1.111   9.792  18.599  0.00  0.00    +0.000 A 
ATOM     10  C   UNL     1       0.921   9.368  19.907  0.00  0.00    +0.000 A 
ATOM     11  C   UNL     1       1.524   8.185  20.345  0.00  0.00    +0.000 A 
BRANCH   9  12
ATOM     12  O   UNL     1       0.562  10.980  18.219  0.00  0.00    +0.000 OA
ATOM     13  H   UNL     1       1.272  11.645  18.202  0.00  0.00    +0.000 HD
ENDBRANCH   9  12
ENDBRANCH   5   6
ENDBRANCH   4   5
ENDBRANCH   1   4
BRANCH   1  14
ATOM     14  C   UNL     1       3.752   3.278  18.518  0.00  0.00    +0.000 C 
BRANCH  14  15
ATOM     15  C   UNL     1       4.732   3.961  17.583  0.00  0.00    +0.000 A 
ATOM     16  C   UNL     1       4.453   4.063  16.211  0.00  0.00    +0.000 A 
ATOM     17  C   UNL     1       5.398   4.567  15.316  0.00  0.00    +0.000 A 
ATOM     18  C   UNL     1       6.631   5.013  15.781  0.00  0.00    +0.000 A 
ATOM     19  C   UNL     1       6.881   5.022  17.155  0.00  0.00    +0.000 A 
ATOM     20  C   UNL     1       5.935   4.506  18.044  0.00  0.00    +0.000 A 
BRANCH  18  21
ATOM     21  O   UNL     1       7.664   5.446  14.993  0.00  0.00    +0.000 OA
ATOM     22  C   UNL     1       7.592   5.077  13.618  0.00  0.00    +0.000 C 
ENDBRANCH  18  21
BRANCH  20  23
ATOM     23  O   UNL     1       6.196   4.503  19.388  0.00  0.00    +0.000 OA
ATOM     24  H   UNL     1       6.821   5.221  19.583  0.00  0.00    +0.000 HD
ENDBRANCH  20  23
ENDBRANCH  14  15
ENDBRANCH   1  14
TORSDOF 8
ENDMDL
MODEL 7
REMARK VINA RESULT:      -7.2      1.676      2.188
REMARK  Name = 
REMARK  9 active torsions:
REMARK  status: ('A' for Active; 'I' for Inactive)
REMARK    1  A    between atoms: C_2  and  C_3
REMARK    2  A    between atoms: C_2  and  C_11
REMARK    3  A    between atoms: C_3  and  C_4
REMARK    4  A    between atoms: C_7  and  O_8
REMARK    5  A    between atoms: C_11  and  C_13
REMARK    6  A    between atoms: C_13  and  C_14
REMARK    7  A    between atoms: C_17  and  O_18
REMARK    8  A    between atoms: O_18  and  C_19
REMARK    9  A    between atoms: C_21  and  O_22
REMARK                            x       y       z     vdW  Elec       q    Type
REMARK                         _______ _______ _______ _____ _____    ______ ____
ROOT
ATOM      1  C   UNL     1       3.542   3.260  19.300  0.00  0.00    +0.000 C 
ATOM      2  C   UNL     1       3.396   1.989  18.881  0.00  0.00    +0.000 C 
ENDROOT
BRANCH   1   4
ATOM      3  C   UNL     1       1.135   3.570  19.486  0.00  0.00    +0.000 C 
ATOM      4  C   UNL     1       2.371   4.062  19.671  0.00  0.00    +0.000 C 
BRANCH   4   5
ATOM      5  C   UNL     1       2.586   5.397  20.361  0.00  0.00    +0.000 C 
BRANCH   5   6
ATOM      6  C   UNL     1       2.363   6.657  19.535  0.00  0.00    +0.000 A 
ATOM      7  C   UNL     1       2.759   6.778  18.198  0.00  0.00    +0.000 A 
ATOM      8  C   UNL     1       2.611   7.983  17.507  0.00  0.00    +0.000 A 
ATOM      9  C   UNL     1       2.021   9.068  18.138  0.00  0.00    +0.000 A 
ATOM     10  C   UNL     1       1.553   8.957  19.440  0.00  0.00    +0.000 A 
ATOM     11  C   UNL     1       1.726   7.758  20.138  0.00  0.00    +0.000 A 
BRANCH   9  12
ATOM     12  O   UNL     1       1.893  10.268  17.506  0.00  0.00    +0.000 OA
ATOM     13  H   UNL     1       2.544  10.879  17.891  0.00  0.00    +0.000 HD
ENDBRANCH   9  12
ENDBRANCH   5   6
ENDBRANCH   4   5
ENDBRANCH   1   4
BRANCH   1  14
ATOM     14  C   UNL     1       4.924   3.913  19.356  0.00  0.00    +0.000 C 
BRANCH  14  15
ATOM     15  C   UNL     1       5.467   4.327  18.000  0.00  0.00    +0.000 A 
ATOM     16  C   UNL     1       4.658   4.247  16.856  0.00  0.00    +0.000 A 
ATOM     17  C   UNL     1       5.177   4.495  15.584  0.00  0.00    +0.000 A 
ATOM     18  C   UNL     1       6.510   4.865  15.435  0.00  0.00    +0.000 A 
ATOM     19  C   UNL     1       7.297   5.059  16.571  0.00  0.00    +0.000 A 
ATOM     20  C   UNL     1       6.775   4.797  17.841  0.00  0.00    +0.000 A 
BRANCH  18  21
ATOM     21  O   UNL     1       7.149   5.051  14.238  0.00  0.00    +0.000 OA
ATOM     22  C   UNL     1       6.746   4.187  13.178  0.00  0.00    +0.000 C 
ENDBRANCH  18  21
BRANCH  20  23
ATOM     23  O   UNL     1       7.559   4.973  18.948  0.00  0.00    +0.000 OA
ATOM     24  H   UNL     1       7.282   4.336  19.628  0.00  0.00    +0.000 HD
ENDBRANCH  20  23
ENDBRANCH  14  15
ENDBRANCH   1  14
TORSDOF 8
ENDMDL
MODEL 8
REMARK VINA RESULT:      -7.1      1.845      4.446
REMARK  Name = 
REMARK  9 active torsions:
REMARK  status: ('A' for Active; 'I' for Inactive)
REMARK    1  A    between atoms: C_2  and  C_3
REMARK    2  A    between atoms: C_2  and  C_11
REMARK    3  A    between atoms: C_3  and  C_4
REMARK    4  A    between atoms: C_7  and  O_8
REMARK    5  A    between atoms: C_11  and  C_13
REMARK    6  A    between atoms: C_13  and  C_14
REMARK    7  A    between atoms: C_17  and  O_18
REMARK    8  A    between atoms: O_18  and  C_19
REMARK    9  A    between atoms: C_21  and  O_22
REMARK                            x       y       z     vdW  Elec       q    Type
REMARK                         _______ _______ _______ _____ _____    ______ ____
ROOT
ATOM      1  C   UNL     1       5.290   5.040  16.020  0.00  0.00    +0.000 C 
ATOM      2  C   UNL     1       5.294   5.058  14.674  0.00  0.00    +0.000 C 
ENDROOT
BRANCH   1   4
ATOM      3  C   UNL     1       6.269   6.639  17.573  0.00  0.00    +0.000 C 
ATOM      4  C   UNL     1       5.240   6.292  16.782  0.00  0.00    +0.000 C 
BRANCH   4   5
ATOM      5  C   UNL     1       4.063   7.229  16.576  0.00  0.00    +0.000 C 
BRANCH   5   6
ATOM      6  C   UNL     1       3.167   7.505  17.777  0.00  0.00    +0.000 A 
ATOM      7  C   UNL     1       2.389   8.661  17.904  0.00  0.00    +0.000 A 
ATOM      8  C   UNL     1       1.649   8.910  19.062  0.00  0.00    +0.000 A 
ATOM      9  C   UNL     1       1.648   7.978  20.090  0.00  0.00    +0.000 A 
ATOM     10  C   UNL     1       2.354   6.789  19.963  0.00  0.00    +0.000 A 
ATOM     11  C   UNL     1       3.114   6.555  18.814  0.00  0.00    +0.000 A 
BRANCH   9  12
ATOM     12  O   UNL     1       0.967   8.205  21.248  0.00  0.00    +0.000 OA
ATOM     13  H   UNL     1       1.571   8.649  21.867  0.00  0.00    +0.000 HD
ENDBRANCH   9  12
ENDBRANCH   5   6
ENDBRANCH   4   5
ENDBRANCH   1   4
BRANCH   1  14
ATOM     14  C   UNL     1       5.384   3.719  16.787  0.00  0.00    +0.000 C 
BRANCH  14  15
ATOM     15  C   UNL     1       4.161   3.406  17.628  0.00  0.00    +0.000 A 
ATOM     16  C   UNL     1       2.877   3.460  17.064  0.00  0.00    +0.000 A 
ATOM     17  C   UNL     1       1.733   3.307  17.850  0.00  0.00    +0.000 A 
ATOM     18  C   UNL     1       1.853   3.061  19.214  0.00  0.00    +0.000 A 
ATOM     19  C   UNL     1       3.123   2.892  19.769  0.00  0.00    +0.000 A 
ATOM     20  C   UNL     1       4.263   3.058  18.979  0.00  0.00    +0.000 A 
BRANCH  18  21
ATOM     21  O   UNL     1       0.810   2.976  20.097  0.00  0.00    +0.000 OA
ATOM     22  C   UNL     1       1.168   2.887  21.474  0.00  0.00    +0.000 C 
ENDBRANCH  18  21
BRANCH  20  23
ATOM     23  O   UNL     1       5.504   2.908  19.536  0.00  0.00    +0.000 OA
ATOM     24  H   UNL     1       6.011   3.725  19.387  0.00  0.00    +0.000 HD
ENDBRANCH  20  23
ENDBRANCH  14  15
ENDBRANCH   1  14
TORSDOF 8
ENDMDL
MODEL 9
REMARK VINA RESULT:      -7.1      1.576      5.683
REMARK  Name = 
REMARK  9 active torsions:
REMARK  status: ('A' for Active; 'I' for Inactive)
REMARK    1  A    between atoms: C_2  and  C_3
REMARK    2  A    between atoms: C_2  and  C_11
REMARK    3  A    between atoms: C_3  and  C_4
REMARK    4  A    between atoms: C_7  and  O_8
REMARK    5  A    between atoms: C_11  and  C_13
REMARK    6  A    between atoms: C_13  and  C_14
REMARK    7  A    between atoms: C_17  and  O_18
REMARK    8  A    between atoms: O_18  and  C_19
REMARK    9  A    between atoms: C_21  and  O_22
REMARK                            x       y       z     vdW  Elec       q    Type
REMARK                         _______ _______ _______ _____ _____    ______ ____
ROOT
ATOM      1  C   UNL     1       2.820   4.775  18.042  0.00  0.00    +0.000 C 
ATOM      2  C   UNL     1       1.503   4.650  17.795  0.00  0.00    +0.000 C 
ENDROOT
BRANCH   1   4
ATOM      3  C   UNL     1       3.656   2.527  17.625  0.00  0.00    +0.000 C 
ATOM      4  C   UNL     1       3.783   3.851  17.436  0.00  0.00    +0.000 C 
BRANCH   4   5
ATOM      5  C   UNL     1       4.851   4.407  16.510  0.00  0.00    +0.000 C 
BRANCH   5   6
ATOM      6  C   UNL     1       5.949   5.256  17.136  0.00  0.00    +0.000 A 
ATOM      7  C   UNL     1       6.845   4.766  18.094  0.00  0.00    +0.000 A 
ATOM      8  C   UNL     1       7.781   5.605  18.703  0.00  0.00    +0.000 A 
ATOM      9  C   UNL     1       7.857   6.938  18.325  0.00  0.00    +0.000 A 
ATOM     10  C   UNL     1       7.030   7.436  17.328  0.00  0.00    +0.000 A 
ATOM     11  C   UNL     1       6.077   6.600  16.738  0.00  0.00    +0.000 A 
BRANCH   9  12
ATOM     12  O   UNL     1       8.733   7.793  18.923  0.00  0.00    +0.000 OA
ATOM     13  H   UNL     1       9.138   8.339  18.228  0.00  0.00    +0.000 HD
ENDBRANCH   9  12
ENDBRANCH   5   6
ENDBRANCH   4   5
ENDBRANCH   1   4
BRANCH   1  14
ATOM     14  C   UNL     1       3.340   5.853  18.995  0.00  0.00    +0.000 C 
BRANCH  14  15
ATOM     15  C   UNL     1       2.508   7.123  19.002  0.00  0.00    +0.000 A 
ATOM     16  C   UNL     1       2.376   7.893  17.836  0.00  0.00    +0.000 A 
ATOM     17  C   UNL     1       1.728   9.129  17.855  0.00  0.00    +0.000 A 
ATOM     18  C   UNL     1       1.166   9.605  19.037  0.00  0.00    +0.000 A 
ATOM     19  C   UNL     1       1.191   8.799  20.177  0.00  0.00    +0.000 A 
ATOM     20  C   UNL     1       1.851   7.568  20.154  0.00  0.00    +0.000 A 
BRANCH  18  21
ATOM     21  O   UNL     1       0.583  10.833  19.196  0.00  0.00    +0.000 OA
ATOM     22  C   UNL     1      -0.621  11.048  18.464  0.00  0.00    +0.000 C 
ENDBRANCH  18  21
BRANCH  20  23
ATOM     23  O   UNL     1       1.885   6.794  21.282  0.00  0.00    +0.000 OA
ATOM     24  H   UNL     1       1.506   7.303  22.018  0.00  0.00    +0.000 HD
ENDBRANCH  20  23
ENDBRANCH  14  15
ENDBRANCH   1  14
TORSDOF 8
ENDMDL
