MODEL 1
REMARK VINA RESULT:      -6.6      0.000      0.000
REMARK  Name = 
REMARK  13 active torsions:
REMARK  status: ('A' for Active; 'I' for Inactive)
REMARK    1  A    between atoms: C_1  and  C_2
REMARK    2  A    between atoms: C_5  and  S_6
REMARK    3  A    between atoms: S_6  and  S_7
REMARK    4  A    between atoms: S_7  and  C_8
REMARK    5  A    between atoms: C_8  and  C_9
REMARK    6  A    between atoms: C_9  and  O_10
REMARK    7  A    between atoms: C_9  and  C_11
REMARK    8  A    between atoms: C_11  and  O_12
REMARK    9  A    between atoms: C_11  and  C_13
REMARK   10  A    between atoms: C_13  and  S_14
REMARK   11  A    between atoms: S_14  and  S_15
REMARK   12  A    between atoms: S_15  and  C_16
REMARK   13  A    between atoms: C_19  and  C_20
REMARK                            x       y       z     vdW  Elec       q    Type
REMARK                         _______ _______ _______ _____ _____    ______ ____
ROOT
ATOM      1  C   UNL     1       7.051   6.595  17.376  0.00  0.00    +0.000 C 
ENDROOT
BRANCH   1   2
ATOM      2  O   UNL     1       7.677   6.424  16.091  0.00  0.00    +0.000 OA
ATOM      3  H   UNL     1       8.632   6.578  16.218  0.00  0.00    +0.000 HD
ENDBRANCH   1   2
BRANCH   1   4
ATOM      4  C   UNL     1       7.995   7.378  18.303  0.00  0.00    +0.000 C 
BRANCH   4   5
ATOM      5  S   UNL     1       8.152   9.113  17.755  0.00  0.00    +0.000 S 
BRANCH   5   6
ATOM      6  S   UNL     1       9.147   9.969  19.337  0.00  0.00    +0.000 S 
BRANCH   6  11
ATOM      7  C   UNL     1      11.198  15.110  16.775  0.00  0.00    +0.000 C 
ATOM      8  C   UNL     1      10.705  13.849  17.422  0.00  0.00    +0.000 A 
ATOM      9  C   UNL     1      11.499  12.698  17.453  0.00  0.00    +0.000 A 
ATOM     10  C   UNL     1      11.022  11.526  18.050  0.00  0.00    +0.000 A 
ATOM     11  C   UNL     1       9.749  11.490  18.625  0.00  0.00    +0.000 A 
ATOM     12  C   UNL     1       8.955  12.641  18.595  0.00  0.00    +0.000 A 
ATOM     13  C   UNL     1       9.432  13.814  17.999  0.00  0.00    +0.000 A 
ENDBRANCH   6  11
ENDBRANCH   5   6
ENDBRANCH   4   5
ENDBRANCH   1   4
BRANCH   1  14
ATOM     14  C   UNL     1       6.700   5.188  17.919  0.00  0.00    +0.000 C 
BRANCH  14  15
ATOM     15  O   UNL     1       7.921   4.449  18.135  0.00  0.00    +0.000 OA
ATOM     16  H   UNL     1       7.812   3.541  17.807  0.00  0.00    +0.000 HD
ENDBRANCH  14  15
BRANCH  14  17
ATOM     17  C   UNL     1       5.836   5.172  19.191  0.00  0.00    +0.000 C 
BRANCH  17  18
ATOM     18  S   UNL     1       4.517   3.908  19.236  0.00  0.00    +0.000 S 
BRANCH  18  19
ATOM     19  S   UNL     1       3.136   4.666  17.914  0.00  0.00    +0.000 S 
BRANCH  19  20
ATOM     20  C   UNL     1       2.551   6.138  18.726  0.00  0.00    +0.000 A 
ATOM     21  C   UNL     1       2.437   7.358  18.059  0.00  0.00    +0.000 A 
ATOM     22  C   UNL     1       1.922   8.481  18.718  0.00  0.00    +0.000 A 
ATOM     23  C   UNL     1       1.507   8.394  20.050  0.00  0.00    +0.000 A 
ATOM     24  C   UNL     1       0.951   9.583  20.775  0.00  0.00    +0.000 C 
ATOM     25  C   UNL     1       1.614   7.165  20.717  0.00  0.00    +0.000 A 
ATOM     26  C   UNL     1       2.128   6.049  20.058  0.00  0.00    +0.000 A 
ENDBRANCH  19  20
ENDBRANCH  18  19
ENDBRANCH  17  18
ENDBRANCH  14  17
ENDBRANCH   1  14
TORSDOF 11
ENDMDL
MODEL 2
REMARK VINA RESULT:      -6.4      0.912      8.871
REMARK  Name = 
REMARK  13 active torsions:
REMARK  status: ('A' for Active; 'I' for Inactive)
REMARK    1  A    between atoms: C_1  and  C_2
REMARK    2  A    between atoms: C_5  and  S_6
REMARK    3  A    between atoms: S_6  and  S_7
REMARK    4  A    between atoms: S_7  and  C_8
REMARK    5  A    between atoms: C_8  and  C_9
REMARK    6  A    between atoms: C_9  and  O_10
REMARK    7  A    between atoms: C_9  and  C_11
REMARK    8  A    between atoms: C_11  and  O_12
REMARK    9  A    between atoms: C_11  and  C_13
REMARK   10  A    between atoms: C_13  and  S_14
REMARK   11  A    between atoms: S_14  and  S_15
REMARK   12  A    between atoms: S_15  and  C_16
REMARK   13  A    between atoms: C_19  and  C_20
REMARK                            x       y       z     vdW  Elec       q    Type
REMARK                         _______ _______ _______ _____ _____    ______ ____
ROOT
ATOM      1  C   UNL     1       6.545   5.637  18.420  0.00  0.00    +0.000 C 
ENDROOT
BRANCH   1   2
ATOM      2  O   UNL     1       7.091   5.411  19.732  0.00  0.00    +0.000 OA
ATOM      3  H   UNL     1       6.348   5.146  20.306  0.00  0.00    +0.000 HD
ENDBRANCH   1   2
BRANCH   1   4
ATOM      4  C   UNL     1       6.346   4.288  17.711  0.00  0.00    +0.000 C 
BRANCH   4   5
ATOM      5  S   UNL     1       4.686   4.189  16.954  0.00  0.00    +0.000 S 
BRANCH   5   6
ATOM      6  S   UNL     1       3.544   3.520  18.526  0.00  0.00    +0.000 S 
BRANCH   6  11
ATOM      7  C   UNL     1       1.158   8.717  20.649  0.00  0.00    +0.000 C 
ATOM      8  C   UNL     1       1.763   7.445  20.133  0.00  0.00    +0.000 A 
ATOM      9  C   UNL     1       2.488   7.425  18.937  0.00  0.00    +0.000 A 
ATOM     10  C   UNL     1       3.038   6.229  18.463  0.00  0.00    +0.000 A 
ATOM     11  C   UNL     1       2.873   5.040  19.178  0.00  0.00    +0.000 A 
ATOM     12  C   UNL     1       2.148   5.059  20.374  0.00  0.00    +0.000 A 
ATOM     13  C   UNL     1       1.599   6.255  20.849  0.00  0.00    +0.000 A 
ENDBRANCH   6  11
ENDBRANCH   5   6
ENDBRANCH   4   5
ENDBRANCH   1   4
BRANCH   1  14
ATOM     14  C   UNL     1       7.512   6.581  17.664  0.00  0.00    +0.000 C 
BRANCH  14  15
ATOM     15  O   UNL     1       6.784   7.264  16.622  0.00  0.00    +0.000 OA
ATOM     16  H   UNL     1       5.830   7.199  16.797  0.00  0.00    +0.000 HD
ENDBRANCH  14  15
BRANCH  14  17
ATOM     17  C   UNL     1       8.259   7.598  18.544  0.00  0.00    +0.000 C 
BRANCH  17  18
ATOM     18  S   UNL     1       8.297   9.312  17.912  0.00  0.00    +0.000 S 
BRANCH  18  19
ATOM     19  S   UNL     1       9.331  10.303  19.388  0.00  0.00    +0.000 S 
BRANCH  19  20
ATOM     20  C   UNL     1       9.810  11.828  18.605  0.00  0.00    +0.000 A 
ATOM     21  C   UNL     1       9.106  13.016  18.802  0.00  0.00    +0.000 A 
ATOM     22  C   UNL     1       9.545  14.207  18.210  0.00  0.00    +0.000 A 
ATOM     23  C   UNL     1      10.700  14.224  17.421  0.00  0.00    +0.000 A 
ATOM     24  C   UNL     1      11.189  15.488  16.780  0.00  0.00    +0.000 C 
ATOM     25  C   UNL     1      11.411  13.030  17.231  0.00  0.00    +0.000 A 
ATOM     26  C   UNL     1      10.970  11.846  17.821  0.00  0.00    +0.000 A 
ENDBRANCH  19  20
ENDBRANCH  18  19
ENDBRANCH  17  18
ENDBRANCH  14  17
ENDBRANCH   1  14
TORSDOF 11
ENDMDL
MODEL 3
REMARK VINA RESULT:      -6.3      4.208      6.951
REMARK  Name = 
REMARK  13 active torsions:
REMARK  status: ('A' for Active; 'I' for Inactive)
REMARK    1  A    between atoms: C_1  and  C_2
REMARK    2  A    between atoms: C_5  and  S_6
REMARK    3  A    between atoms: S_6  and  S_7
REMARK    4  A    between atoms: S_7  and  C_8
REMARK    5  A    between atoms: C_8  and  C_9
REMARK    6  A    between atoms: C_9  and  O_10
REMARK    7  A    between atoms: C_9  and  C_11
REMARK    8  A    between atoms: C_11  and  O_12
REMARK    9  A    between atoms: C_11  and  C_13
REMARK   10  A    between atoms: C_13  and  S_14
REMARK   11  A    between atoms: S_14  and  S_15
REMARK   12  A    between atoms: S_15  and  C_16
REMARK   13  A    between atoms: C_19  and  C_20
REMARK                            x       y       z     vdW  Elec       q    Type
REMARK                         _______ _______ _______ _____ _____    ______ ____
ROOT
ATOM      1  C   UNL     1       2.467   5.576  20.214  0.00  0.00    +0.000 C 
ENDROOT
BRANCH   1   2
ATOM      2  O   UNL     1       3.896   5.724  20.145  0.00  0.00    +0.000 OA
ATOM      3  H   UNL     1       4.098   6.646  20.393  0.00  0.00    +0.000 HD
ENDBRANCH   1   2
BRANCH   1   4
ATOM      4  C   UNL     1       2.015   4.507  19.205  0.00  0.00    +0.000 C 
BRANCH   4   5
ATOM      5  S   UNL     1       3.254   3.171  19.075  0.00  0.00    +0.000 S 
BRANCH   5   6
ATOM      6  S   UNL     1       3.890   3.371  17.131  0.00  0.00    +0.000 S 
BRANCH   6  11
ATOM      7  C   UNL     1       7.877   7.956  17.657  0.00  0.00    +0.000 C 
ATOM      8  C   UNL     1       6.902   6.826  17.508  0.00  0.00    +0.000 A 
ATOM      9  C   UNL     1       5.684   7.008  16.844  0.00  0.00    +0.000 A 
ATOM     10  C   UNL     1       4.780   5.948  16.723  0.00  0.00    +0.000 A 
ATOM     11  C   UNL     1       5.082   4.693  17.258  0.00  0.00    +0.000 A 
ATOM     12  C   UNL     1       6.300   4.510  17.922  0.00  0.00    +0.000 A 
ATOM     13  C   UNL     1       7.205   5.570  18.043  0.00  0.00    +0.000 A 
ENDBRANCH   6  11
ENDBRANCH   5   6
ENDBRANCH   4   5
ENDBRANCH   1   4
BRANCH   1  14
ATOM     14  C   UNL     1       1.836   6.964  19.948  0.00  0.00    +0.000 C 
BRANCH  14  15
ATOM     15  O   UNL     1       1.686   7.662  21.203  0.00  0.00    +0.000 OA
ATOM     16  H   UNL     1       1.834   8.612  21.064  0.00  0.00    +0.000 HD
ENDBRANCH  14  15
BRANCH  14  17
ATOM     17  C   UNL     1       2.588   7.845  18.936  0.00  0.00    +0.000 C 
BRANCH  17  18
ATOM     18  S   UNL     1       1.539   8.808  17.791  0.00  0.00    +0.000 S 
BRANCH  18  19
ATOM     19  S   UNL     1       0.911  10.368  18.973  0.00  0.00    +0.000 S 
BRANCH  19  20
ATOM     20  C   UNL     1      -0.775  10.621  18.463  0.00  0.00    +0.000 A 
ATOM     21  C   UNL     1      -1.373   9.847  17.469  0.00  0.00    +0.000 A 
ATOM     22  C   UNL     1      -2.719  10.041  17.132  0.00  0.00    +0.000 A 
ATOM     23  C   UNL     1      -3.484  11.006  17.794  0.00  0.00    +0.000 A 
ATOM     24  C   UNL     1      -4.926  11.229  17.452  0.00  0.00    +0.000 C 
ATOM     25  C   UNL     1      -2.883  11.777  18.799  0.00  0.00    +0.000 A 
ATOM     26  C   UNL     1      -1.543  11.583  19.131  0.00  0.00    +0.000 A 
ENDBRANCH  19  20
ENDBRANCH  18  19
ENDBRANCH  17  18
ENDBRANCH  14  17
ENDBRANCH   1  14
TORSDOF 11
ENDMDL
MODEL 4
REMARK VINA RESULT:      -6.3      4.042      6.440
REMARK  Name = 
REMARK  13 active torsions:
REMARK  status: ('A' for Active; 'I' for Inactive)
REMARK    1  A    between atoms: C_1  and  C_2
REMARK    2  A    between atoms: C_5  and  S_6
REMARK    3  A    between atoms: S_6  and  S_7
REMARK    4  A    between atoms: S_7  and  C_8
REMARK    5  A    between atoms: C_8  and  C_9
REMARK    6  A    between atoms: C_9  and  O_10
REMARK    7  A    between atoms: C_9  and  C_11
REMARK    8  A    between atoms: C_11  and  O_12
REMARK    9  A    between atoms: C_11  and  C_13
REMARK   10  A    between atoms: C_13  and  S_14
REMARK   11  A    between atoms: S_14  and  S_15
REMARK   12  A    between atoms: S_15  and  C_16
REMARK   13  A    between atoms: C_19  and  C_20
REMARK                            x       y       z     vdW  Elec       q    Type
REMARK                         _______ _______ _______ _____ _____    ______ ____
ROOT
ATOM      1  C   UNL     1       2.426   4.951  18.632  0.00  0.00    +0.000 C 
ENDROOT
BRANCH   1   2
ATOM      2  O   UNL     1       1.360   4.617  17.725  0.00  0.00    +0.000 OA
ATOM      3  H   UNL     1       0.554   4.504  18.263  0.00  0.00    +0.000 HD
ENDBRANCH   1   2
BRANCH   1   4
ATOM      4  C   UNL     1       2.732   3.740  19.528  0.00  0.00    +0.000 C 
BRANCH   4   5
ATOM      5  S   UNL     1       4.466   3.202  19.323  0.00  0.00    +0.000 S 
BRANCH   5   6
ATOM      6  S   UNL     1       4.855   3.758  17.382  0.00  0.00    +0.000 S 
BRANCH   6  11
ATOM      7  C   UNL     1       8.403   8.672  18.066  0.00  0.00    +0.000 C 
ATOM      8  C   UNL     1       7.522   7.468  17.916  0.00  0.00    +0.000 A 
ATOM      9  C   UNL     1       7.796   6.283  18.608  0.00  0.00    +0.000 A 
ATOM     10  C   UNL     1       6.972   5.164  18.450  0.00  0.00    +0.000 A 
ATOM     11  C   UNL     1       5.862   5.215  17.602  0.00  0.00    +0.000 A 
ATOM     12  C   UNL     1       5.587   6.398  16.910  0.00  0.00    +0.000 A 
ATOM     13  C   UNL     1       6.410   7.518  17.069  0.00  0.00    +0.000 A 
ENDBRANCH   6  11
ENDBRANCH   5   6
ENDBRANCH   4   5
ENDBRANCH   1   4
BRANCH   1  14
ATOM     14  C   UNL     1       1.987   6.200  19.435  0.00  0.00    +0.000 C 
BRANCH  14  15
ATOM     15  O   UNL     1       2.200   5.955  20.841  0.00  0.00    +0.000 OA
ATOM     16  H   UNL     1       1.357   5.717  21.260  0.00  0.00    +0.000 HD
ENDBRANCH  14  15
BRANCH  14  17
ATOM     17  C   UNL     1       2.659   7.520  19.018  0.00  0.00    +0.000 C 
BRANCH  17  18
ATOM     18  S   UNL     1       1.667   8.605  17.934  0.00  0.00    +0.000 S 
BRANCH  18  19
ATOM     19  S   UNL     1       0.945  10.006  19.254  0.00  0.00    +0.000 S 
BRANCH  19  20
ATOM     20  C   UNL     1      -0.676  10.376  18.620  0.00  0.00    +0.000 A 
ATOM     21  C   UNL     1      -1.500  11.339  19.203  0.00  0.00    +0.000 A 
ATOM     22  C   UNL     1      -2.748  11.639  18.642  0.00  0.00    +0.000 A 
ATOM     23  C   UNL     1      -3.182  10.985  17.485  0.00  0.00    +0.000 A 
ATOM     24  C   UNL     1      -4.513  11.292  16.867  0.00  0.00    +0.000 C 
ATOM     25  C   UNL     1      -2.350  10.023  16.896  0.00  0.00    +0.000 A 
ATOM     26  C   UNL     1      -1.109   9.726  17.457  0.00  0.00    +0.000 A 
ENDBRANCH  19  20
ENDBRANCH  18  19
ENDBRANCH  17  18
ENDBRANCH  14  17
ENDBRANCH   1  14
TORSDOF 11
ENDMDL
MODEL 5
REMARK VINA RESULT:      -6.2      2.129      9.197
REMARK  Name = 
REMARK  13 active torsions:
REMARK  status: ('A' for Active; 'I' for Inactive)
REMARK    1  A    between atoms: C_1  and  C_2
REMARK    2  A    between atoms: C_5  and  S_6
REMARK    3  A    between atoms: S_6  and  S_7
REMARK    4  A    between atoms: S_7  and  C_8
REMARK    5  A    between atoms: C_8  and  C_9
REMARK    6  A    between atoms: C_9  and  O_10
REMARK    7  A    between atoms: C_9  and  C_11
REMARK    8  A    between atoms: C_11  and  O_12
REMARK    9  A    between atoms: C_11  and  C_13
REMARK   10  A    between atoms: C_13  and  S_14
REMARK   11  A    between atoms: S_14  and  S_15
REMARK   12  A    between atoms: S_15  and  C_16
REMARK   13  A    between atoms: C_19  and  C_20
REMARK                            x       y       z     vdW  Elec       q    Type
REMARK                         _______ _______ _______ _____ _____    ______ ____
ROOT
ATOM      1  C   UNL     1       7.044   4.952  17.394  0.00  0.00    +0.000 C 
ENDROOT
BRANCH   1   2
ATOM      2  O   UNL     1       8.242   4.173  17.565  0.00  0.00    +0.000 OA
ATOM      3  H   UNL     1       8.491   4.238  18.505  0.00  0.00    +0.000 HD
ENDBRANCH   1   2
BRANCH   1   4
ATOM      4  C   UNL     1       7.018   5.544  15.975  0.00  0.00    +0.000 C 
BRANCH   4   5
ATOM      5  S   UNL     1       5.364   5.358  15.223  0.00  0.00    +0.000 S 
BRANCH   5   6
ATOM      6  S   UNL     1       4.876   3.430  15.744  0.00  0.00    +0.000 S 
BRANCH   6  11
ATOM      7  C   UNL     1       0.914   4.237  20.310  0.00  0.00    +0.000 C 
ATOM      8  C   UNL     1       1.872   4.035  19.174  0.00  0.00    +0.000 A 
ATOM      9  C   UNL     1       2.196   2.750  18.725  0.00  0.00    +0.000 A 
ATOM     10  C   UNL     1       3.101   2.576  17.672  0.00  0.00    +0.000 A 
ATOM     11  C   UNL     1       3.689   3.682  17.053  0.00  0.00    +0.000 A 
ATOM     12  C   UNL     1       3.366   4.967  17.501  0.00  0.00    +0.000 A 
ATOM     13  C   UNL     1       2.461   5.141  18.553  0.00  0.00    +0.000 A 
ENDBRANCH   6  11
ENDBRANCH   5   6
ENDBRANCH   4   5
ENDBRANCH   1   4
BRANCH   1  14
ATOM     14  C   UNL     1       7.025   6.034  18.500  0.00  0.00    +0.000 C 
BRANCH  14  15
ATOM     15  O   UNL     1       6.769   5.402  19.773  0.00  0.00    +0.000 OA
ATOM     16  H   UNL     1       7.557   4.909  20.054  0.00  0.00    +0.000 HD
ENDBRANCH  14  15
BRANCH  14  17
ATOM     17  C   UNL     1       8.287   6.909  18.587  0.00  0.00    +0.000 C 
BRANCH  17  18
ATOM     18  S   UNL     1       8.121   8.605  17.928  0.00  0.00    +0.000 S 
BRANCH  18  19
ATOM     19  S   UNL     1       8.954   9.744  19.424  0.00  0.00    +0.000 S 
BRANCH  19  20
ATOM     20  C   UNL     1       9.635  11.137  18.552  0.00  0.00    +0.000 A 
ATOM     21  C   UNL     1       8.830  12.130  17.993  0.00  0.00    +0.000 A 
ATOM     22  C   UNL     1       9.405  13.239  17.360  0.00  0.00    +0.000 A 
ATOM     23  C   UNL     1      10.795  13.371  17.287  0.00  0.00    +0.000 A 
ATOM     24  C   UNL     1      11.433  14.551  16.617  0.00  0.00    +0.000 C 
ATOM     25  C   UNL     1      11.604  12.377  17.856  0.00  0.00    +0.000 A 
ATOM     26  C   UNL     1      11.028  11.274  18.484  0.00  0.00    +0.000 A 
ENDBRANCH  19  20
ENDBRANCH  18  19
ENDBRANCH  17  18
ENDBRANCH  14  17
ENDBRANCH   1  14
TORSDOF 11
ENDMDL
MODEL 6
REMARK VINA RESULT:      -6.1      5.258      7.718
REMARK  Name = 
REMARK  13 active torsions:
REMARK  status: ('A' for Active; 'I' for Inactive)
REMARK    1  A    between atoms: C_1  and  C_2
REMARK    2  A    between atoms: C_5  and  S_6
REMARK    3  A    between atoms: S_6  and  S_7
REMARK    4  A    between atoms: S_7  and  C_8
REMARK    5  A    between atoms: C_8  and  C_9
REMARK    6  A    between atoms: C_9  and  O_10
REMARK    7  A    between atoms: C_9  and  C_11
REMARK    8  A    between atoms: C_11  and  O_12
REMARK    9  A    between atoms: C_11  and  C_13
REMARK   10  A    between atoms: C_13  and  S_14
REMARK   11  A    between atoms: S_14  and  S_15
REMARK   12  A    between atoms: S_15  and  C_16
REMARK   13  A    between atoms: C_19  and  C_20
REMARK                            x       y       z     vdW  Elec       q    Type
REMARK                         _______ _______ _______ _____ _____    ______ ____
ROOT
ATOM      1  C   UNL     1       3.128   1.990  18.946  0.00  0.00    +0.000 C 
ENDROOT
BRANCH   1   2
ATOM      2  O   UNL     1       3.040   2.396  17.568  0.00  0.00    +0.000 OA
ATOM      3  H   UNL     1       2.113   2.654  17.407  0.00  0.00    +0.000 HD
ENDBRANCH   1   2
BRANCH   1   4
ATOM      4  C   UNL     1       1.817   2.343  19.667  0.00  0.00    +0.000 C 
BRANCH   4   5
ATOM      5  S   UNL     1       1.262   4.025  19.219  0.00  0.00    +0.000 S 
BRANCH   5   6
ATOM      6  S   UNL     1       2.051   5.152  20.746  0.00  0.00    +0.000 S 
BRANCH   6  11
ATOM      7  C   UNL     1       1.273  10.786  18.543  0.00  0.00    +0.000 C 
ATOM      8  C   UNL     1       1.484   9.405  19.089  0.00  0.00    +0.000 A 
ATOM      9  C   UNL     1       2.130   8.422  18.332  0.00  0.00    +0.000 A 
ATOM     10  C   UNL     1       2.310   7.135  18.849  0.00  0.00    +0.000 A 
ATOM     11  C   UNL     1       1.851   6.815  20.129  0.00  0.00    +0.000 A 
ATOM     12  C   UNL     1       1.205   7.797  20.887  0.00  0.00    +0.000 A 
ATOM     13  C   UNL     1       1.026   9.084  20.371  0.00  0.00    +0.000 A 
ENDBRANCH   6  11
ENDBRANCH   5   6
ENDBRANCH   4   5
ENDBRANCH   1   4
BRANCH   1  14
ATOM     14  C   UNL     1       4.365   2.686  19.563  0.00  0.00    +0.000 C 
BRANCH  14  15
ATOM     15  O   UNL     1       5.309   1.680  19.988  0.00  0.00    +0.000 OA
ATOM     16  H   UNL     1       5.346   1.660  20.958  0.00  0.00    +0.000 HD
ENDBRANCH  14  15
BRANCH  14  17
ATOM     17  C   UNL     1       5.059   3.717  18.658  0.00  0.00    +0.000 C 
BRANCH  17  18
ATOM     18  S   UNL     1       5.747   5.182  19.508  0.00  0.00    +0.000 S 
BRANCH  18  19
ATOM     19  S   UNL     1       7.142   5.861  18.159  0.00  0.00    +0.000 S 
BRANCH  19  20
ATOM     20  C   UNL     1       6.511   5.297  16.593  0.00  0.00    +0.000 A 
ATOM     21  C   UNL     1       5.482   5.961  15.925  0.00  0.00    +0.000 A 
ATOM     22  C   UNL     1       5.049   5.517  14.669  0.00  0.00    +0.000 A 
ATOM     23  C   UNL     1       5.648   4.408  14.063  0.00  0.00    +0.000 A 
ATOM     24  C   UNL     1       5.202   3.917  12.719  0.00  0.00    +0.000 C 
ATOM     25  C   UNL     1       6.687   3.747  14.732  0.00  0.00    +0.000 A 
ATOM     26  C   UNL     1       7.115   4.191  15.982  0.00  0.00    +0.000 A 
ENDBRANCH  19  20
ENDBRANCH  18  19
ENDBRANCH  17  18
ENDBRANCH  14  17
ENDBRANCH   1  14
TORSDOF 11
ENDMDL
MODEL 7
REMARK VINA RESULT:      -6.1      0.504      1.104
REMARK  Name = 
REMARK  13 active torsions:
REMARK  status: ('A' for Active; 'I' for Inactive)
REMARK    1  A    between atoms: C_1  and  C_2
REMARK    2  A    between atoms: C_5  and  S_6
REMARK    3  A    between atoms: S_6  and  S_7
REMARK    4  A    between atoms: S_7  and  C_8
REMARK    5  A    between atoms: C_8  and  C_9
REMARK    6  A    between atoms: C_9  and  O_10
REMARK    7  A    between atoms: C_9  and  C_11
REMARK    8  A    between atoms: C_11  and  O_12
REMARK    9  A    between atoms: C_11  and  C_13
REMARK   10  A    between atoms: C_13  and  S_14
REMARK   11  A    between atoms: S_14  and  S_15
REMARK   12  A    between atoms: S_15  and  C_16
REMARK   13  A    between atoms: C_19  and  C_20
REMARK                            x       y       z     vdW  Elec       q    Type
REMARK                         _______ _______ _______ _____ _____    ______ ____
ROOT
ATOM      1  C   UNL     1       6.873   6.559  17.574  0.00  0.00    +0.000 C 
ENDROOT
BRANCH   1   2
ATOM      2  O   UNL     1       7.188   6.528  16.170  0.00  0.00    +0.000 OA
ATOM      3  H   UNL     1       6.468   6.041  15.729  0.00  0.00    +0.000 HD
ENDBRANCH   1   2
BRANCH   1   4
ATOM      4  C   UNL     1       8.029   7.220  18.343  0.00  0.00    +0.000 C 
BRANCH   4   5
ATOM      5  S   UNL     1       8.249   8.956  17.819  0.00  0.00    +0.000 S 
BRANCH   5   6
ATOM      6  S   UNL     1       9.122   9.793  19.482  0.00  0.00    +0.000 S 
BRANCH   6  11
ATOM      7  C   UNL     1      10.904  15.187  17.262  0.00  0.00    +0.000 C 
ATOM      8  C   UNL     1      10.485  13.856  17.814  0.00  0.00    +0.000 A 
ATOM      9  C   UNL     1      10.778  12.669  17.134  0.00  0.00    +0.000 A 
ATOM     10  C   UNL     1      10.371  11.437  17.655  0.00  0.00    +0.000 A 
ATOM     11  C   UNL     1       9.671  11.374  18.863  0.00  0.00    +0.000 A 
ATOM     12  C   UNL     1       9.378  12.560  19.544  0.00  0.00    +0.000 A 
ATOM     13  C   UNL     1       9.786  13.793  19.023  0.00  0.00    +0.000 A 
ENDBRANCH   6  11
ENDBRANCH   5   6
ENDBRANCH   4   5
ENDBRANCH   1   4
BRANCH   1  14
ATOM     14  C   UNL     1       6.599   5.105  18.027  0.00  0.00    +0.000 C 
BRANCH  14  15
ATOM     15  O   UNL     1       7.858   4.423  18.208  0.00  0.00    +0.000 OA
ATOM     16  H   UNL     1       7.797   3.527  17.838  0.00  0.00    +0.000 HD
ENDBRANCH  14  15
BRANCH  14  17
ATOM     17  C   UNL     1       5.732   4.962  19.290  0.00  0.00    +0.000 C 
BRANCH  17  18
ATOM     18  S   UNL     1       4.559   3.560  19.290  0.00  0.00    +0.000 S 
BRANCH  18  19
ATOM     19  S   UNL     1       3.089   4.214  18.010  0.00  0.00    +0.000 S 
BRANCH  19  20
ATOM     20  C   UNL     1       2.472   5.681  18.805  0.00  0.00    +0.000 A 
ATOM     21  C   UNL     1       2.013   5.674  20.123  0.00  0.00    +0.000 A 
ATOM     22  C   UNL     1       1.584   6.861  20.731  0.00  0.00    +0.000 A 
ATOM     23  C   UNL     1       1.617   8.070  20.030  0.00  0.00    +0.000 A 
ATOM     24  C   UNL     1       1.165   9.352  20.662  0.00  0.00    +0.000 C 
ATOM     25  C   UNL     1       2.086   8.077  18.709  0.00  0.00    +0.000 A 
ATOM     26  C   UNL     1       2.512   6.894  18.105  0.00  0.00    +0.000 A 
ENDBRANCH  19  20
ENDBRANCH  18  19
ENDBRANCH  17  18
ENDBRANCH  14  17
ENDBRANCH   1  14
TORSDOF 11
ENDMDL
MODEL 8
REMARK VINA RESULT:      -6.1      1.876      9.123
REMARK  Name = 
REMARK  13 active torsions:
REMARK  status: ('A' for Active; 'I' for Inactive)
REMARK    1  A    between atoms: C_1  and  C_2
REMARK    2  A    between atoms: C_5  and  S_6
REMARK    3  A    between atoms: S_6  and  S_7
REMARK    4  A    between atoms: S_7  and  C_8
REMARK    5  A    between atoms: C_8  and  C_9
REMARK    6  A    between atoms: C_9  and  O_10
REMARK    7  A    between atoms: C_9  and  C_11
REMARK    8  A    between atoms: C_11  and  O_12
REMARK    9  A    between atoms: C_11  and  C_13
REMARK   10  A    between atoms: C_13  and  S_14
REMARK   11  A    between atoms: S_14  and  S_15
REMARK   12  A    between atoms: S_15  and  C_16
REMARK   13  A    between atoms: C_19  and  C_20
REMARK                            x       y       z     vdW  Elec       q    Type
REMARK                         _______ _______ _______ _____ _____    ______ ____
ROOT
ATOM      1  C   UNL     1       6.907   5.301  17.300  0.00  0.00    +0.000 C 
ENDROOT
BRANCH   1   2
ATOM      2  O   UNL     1       7.573   5.901  16.174  0.00  0.00    +0.000 OA
ATOM      3  H   UNL     1       7.545   6.866  16.310  0.00  0.00    +0.000 HD
ENDBRANCH   1   2
BRANCH   1   4
ATOM      4  C   UNL     1       5.439   5.023  16.937  0.00  0.00    +0.000 C 
BRANCH   4   5
ATOM      5  S   UNL     1       4.706   6.449  16.061  0.00  0.00    +0.000 S 
BRANCH   5   6
ATOM      6  S   UNL     1       3.671   7.386  17.570  0.00  0.00    +0.000 S 
BRANCH   6  11
ATOM      7  C   UNL     1       1.314   2.584  20.501  0.00  0.00    +0.000 C 
ATOM      8  C   UNL     1       1.875   3.776  19.783  0.00  0.00    +0.000 A 
ATOM      9  C   UNL     1       1.542   4.036  18.449  0.00  0.00    +0.000 A 
ATOM     10  C   UNL     1       2.082   5.144  17.788  0.00  0.00    +0.000 A 
ATOM     11  C   UNL     1       2.959   6.007  18.451  0.00  0.00    +0.000 A 
ATOM     12  C   UNL     1       3.293   5.747  19.784  0.00  0.00    +0.000 A 
ATOM     13  C   UNL     1       2.752   4.640  20.446  0.00  0.00    +0.000 A 
ENDBRANCH   6  11
ENDBRANCH   5   6
ENDBRANCH   4   5
ENDBRANCH   1   4
BRANCH   1  14
ATOM     14  C   UNL     1       7.061   6.261  18.504  0.00  0.00    +0.000 C 
BRANCH  14  15
ATOM     15  O   UNL     1       6.958   5.502  19.728  0.00  0.00    +0.000 OA
ATOM     16  H   UNL     1       7.848   5.317  20.071  0.00  0.00    +0.000 HD
ENDBRANCH  14  15
BRANCH  14  17
ATOM     17  C   UNL     1       8.346   7.106  18.511  0.00  0.00    +0.000 C 
BRANCH  17  18
ATOM     18  S   UNL     1       8.145   8.856  18.024  0.00  0.00    +0.000 S 
BRANCH  18  19
ATOM     19  S   UNL     1       9.084   9.852  19.559  0.00  0.00    +0.000 S 
BRANCH  19  20
ATOM     20  C   UNL     1       9.810  11.263  18.753  0.00  0.00    +0.000 A 
ATOM     21  C   UNL     1      11.191  11.441  18.669  0.00  0.00    +0.000 A 
ATOM     22  C   UNL     1      11.724  12.537  17.980  0.00  0.00    +0.000 A 
ATOM     23  C   UNL     1      10.881  13.464  17.360  0.00  0.00    +0.000 A 
ATOM     24  C   UNL     1      11.430  14.644  16.615  0.00  0.00    +0.000 C 
ATOM     25  C   UNL     1       9.493  13.280  17.439  0.00  0.00    +0.000 A 
ATOM     26  C   UNL     1       8.965  12.188  18.126  0.00  0.00    +0.000 A 
ENDBRANCH  19  20
ENDBRANCH  18  19
ENDBRANCH  17  18
ENDBRANCH  14  17
ENDBRANCH   1  14
TORSDOF 11
ENDMDL
MODEL 9
REMARK VINA RESULT:      -6.1      4.310      8.083
REMARK  Name = 
REMARK  13 active torsions:
REMARK  status: ('A' for Active; 'I' for Inactive)
REMARK    1  A    between atoms: C_1  and  C_2
REMARK    2  A    between atoms: C_5  and  S_6
REMARK    3  A    between atoms: S_6  and  S_7
REMARK    4  A    between atoms: S_7  and  C_8
REMARK    5  A    between atoms: C_8  and  C_9
REMARK    6  A    between atoms: C_9  and  O_10
REMARK    7  A    between atoms: C_9  and  C_11
REMARK    8  A    between atoms: C_11  and  O_12
REMARK    9  A    between atoms: C_11  and  C_13
REMARK   10  A    between atoms: C_13  and  S_14
REMARK   11  A    between atoms: S_14  and  S_15
REMARK   12  A    between atoms: S_15  and  C_16
REMARK   13  A    between atoms: C_19  and  C_20
REMARK                            x       y       z     vdW  Elec       q    Type
REMARK                         _______ _______ _______ _____ _____    ______ ____
ROOT
ATOM      1  C   UNL     1       2.613   5.472  19.759  0.00  0.00    +0.000 C 
ENDROOT
BRANCH   1   2
ATOM      2  O   UNL     1       2.109   5.773  21.073  0.00  0.00    +0.000 OA
ATOM      3  H   UNL     1       2.548   6.594  21.364  0.00  0.00    +0.000 HD
ENDBRANCH   1   2
BRANCH   1   4
ATOM      4  C   UNL     1       2.665   6.762  18.924  0.00  0.00    +0.000 C 
BRANCH   4   5
ATOM      5  S   UNL     1       1.698   8.091  19.722  0.00  0.00    +0.000 S 
BRANCH   5   6
ATOM      6  S   UNL     1       1.189   9.268  18.115  0.00  0.00    +0.000 S 
BRANCH   6  11
ATOM      7  C   UNL     1      -3.027  12.994  20.469  0.00  0.00    +0.000 C 
ATOM      8  C   UNL     1      -1.997  12.062  19.902  0.00  0.00    +0.000 A 
ATOM      9  C   UNL     1      -0.848  11.730  20.628  0.00  0.00    +0.000 A 
ATOM     10  C   UNL     1       0.109  10.869  20.082  0.00  0.00    +0.000 A 
ATOM     11  C   UNL     1      -0.070  10.326  18.807  0.00  0.00    +0.000 A 
ATOM     12  C   UNL     1      -1.219  10.657  18.080  0.00  0.00    +0.000 A 
ATOM     13  C   UNL     1      -2.177  11.518  18.626  0.00  0.00    +0.000 A 
ENDBRANCH   6  11
ENDBRANCH   5   6
ENDBRANCH   4   5
ENDBRANCH   1   4
BRANCH   1  14
ATOM     14  C   UNL     1       1.698   4.388  19.140  0.00  0.00    +0.000 C 
BRANCH  14  15
ATOM     15  O   UNL     1       1.543   4.651  17.729  0.00  0.00    +0.000 OA
ATOM     16  H   UNL     1       1.010   5.454  17.606  0.00  0.00    +0.000 HD
ENDBRANCH  14  15
BRANCH  14  17
ATOM     17  C   UNL     1       2.155   2.936  19.362  0.00  0.00    +0.000 C 
BRANCH  17  18
ATOM     18  S   UNL     1       3.962   2.665  19.351  0.00  0.00    +0.000 S 
BRANCH  18  19
ATOM     19  S   UNL     1       4.464   3.115  17.408  0.00  0.00    +0.000 S 
BRANCH  19  20
ATOM     20  C   UNL     1       5.451   4.587  17.566  0.00  0.00    +0.000 A 
ATOM     21  C   UNL     1       6.385   4.748  18.589  0.00  0.00    +0.000 A 
ATOM     22  C   UNL     1       7.181   5.900  18.649  0.00  0.00    +0.000 A 
ATOM     23  C   UNL     1       7.056   6.899  17.679  0.00  0.00    +0.000 A 
ATOM     24  C   UNL     1       7.898   8.139  17.723  0.00  0.00    +0.000 C 
ATOM     25  C   UNL     1       6.122   6.732  16.648  0.00  0.00    +0.000 A 
ATOM     26  C   UNL     1       5.331   5.586  16.591  0.00  0.00    +0.000 A 
ENDBRANCH  19  20
ENDBRANCH  18  19
ENDBRANCH  17  18
ENDBRANCH  14  17
ENDBRANCH   1  14
TORSDOF 11
ENDMDL
