MODEL 1
REMARK VINA RESULT:      -8.7      0.000      0.000
REMARK  Name = 
REMARK  7 active torsions:
REMARK  status: ('A' for Active; 'I' for Inactive)
REMARK    1  A    between atoms: C_1  and  C_2
REMARK    2  A    between atoms: C_2  and  C_3
REMARK    3  A    between atoms: C_2  and  C_4
REMARK    4  A    between atoms: C_2  and  N_5
REMARK    5  A    between atoms: N_5  and  C_6
REMARK    6  A    between atoms: C_7  and  C_8
REMARK    7  A    between atoms: C_18  and  C_19
REMARK                            x       y       z     vdW  Elec       q    Type
REMARK                         _______ _______ _______ _____ _____    ______ ____
ROOT
ATOM      1  C   UNL     1       3.134   6.418  19.318  0.00  0.00    +0.000 A 
ATOM      2  C   UNL     1       3.843   6.655  18.133  0.00  0.00    +0.000 A 
ATOM      3  N   UNL     1       3.316   7.726  17.435  0.00  0.00    +0.000 NA
ATOM      4  C   UNL     1       2.383   8.221  18.206  0.00  0.00    +0.000 A 
ATOM      5  C   UNL     1       1.504   9.334  18.007  0.00  0.00    +0.000 A 
ATOM      6  C   UNL     1       0.665   9.736  18.992  0.00  0.00    +0.000 A 
ATOM      7  C   UNL     1       0.698   9.059  20.284  0.00  0.00    +0.000 A 
ATOM      8  C   UNL     1       1.531   8.027  20.463  0.00  0.00    +0.000 A 
ATOM      9  N   UNL     1       2.312   7.547  19.422  0.00  0.00    +0.000 N 
ENDROOT
BRANCH   2  10
ATOM     10  C   UNL     1       4.978   5.914  17.577  0.00  0.00    +0.000 A 
ATOM     11  C   UNL     1       6.119   5.699  18.374  0.00  0.00    +0.000 A 
ATOM     12  C   UNL     1       7.201   4.953  17.905  0.00  0.00    +0.000 A 
ATOM     13  C   UNL     1       7.169   4.408  16.625  0.00  0.00    +0.000 A 
ATOM     14  C   UNL     1       6.035   4.599  15.832  0.00  0.00    +0.000 A 
ATOM     15 CL   UNL     1       5.982   3.912  14.253  0.00  0.00    +0.000 Cl
ATOM     16  C   UNL     1       4.942   5.330  16.307  0.00  0.00    +0.000 A 
ENDBRANCH   2  10
BRANCH   6  17
ATOM     17  C   UNL     1      -0.288  10.888  18.840  0.00  0.00    +0.000 C 
ATOM     18  F   UNL     1       0.343  12.061  18.557  0.00  0.00    +0.000 F 
ATOM     19  F   UNL     1      -1.175  10.676  17.835  0.00  0.00    +0.000 F 
ATOM     20  F   UNL     1      -1.009  11.102  19.969  0.00  0.00    +0.000 F 
ENDBRANCH   6  17
BRANCH   1  21
ATOM     21  N   UNL     1       3.217   5.372  20.235  0.00  0.00    +0.000 N 
ATOM     22  H   UNL     1       4.130   5.334  20.689  0.00  0.00    +0.000 HD
BRANCH  21  24
ATOM     23  C   UNL     1       3.851   2.987  19.689  0.00  0.00    +0.000 C 
ATOM     24  C   UNL     1       2.731   3.973  20.044  0.00  0.00    +0.000 C 
ATOM     25  C   UNL     1       1.524   3.917  19.087  0.00  0.00    +0.000 C 
ATOM     26  C   UNL     1       2.141   3.487  21.397  0.00  0.00    +0.000 C 
ENDBRANCH  21  24
ENDBRANCH   1  21
TORSDOF 4
ENDMDL
MODEL 2
REMARK VINA RESULT:      -8.6      0.046      1.143
REMARK  Name = 
REMARK  7 active torsions:
REMARK  status: ('A' for Active; 'I' for Inactive)
REMARK    1  A    between atoms: C_1  and  C_2
REMARK    2  A    between atoms: C_2  and  C_3
REMARK    3  A    between atoms: C_2  and  C_4
REMARK    4  A    between atoms: C_2  and  N_5
REMARK    5  A    between atoms: N_5  and  C_6
REMARK    6  A    between atoms: C_7  and  C_8
REMARK    7  A    between atoms: C_18  and  C_19
REMARK                            x       y       z     vdW  Elec       q    Type
REMARK                         _______ _______ _______ _____ _____    ______ ____
ROOT
ATOM      1  C   UNL     1       3.132   6.412  19.320  0.00  0.00    +0.000 A 
ATOM      2  C   UNL     1       3.846   6.653  18.139  0.00  0.00    +0.000 A 
ATOM      3  N   UNL     1       3.324   7.728  17.443  0.00  0.00    +0.000 NA
ATOM      4  C   UNL     1       2.388   8.222  18.212  0.00  0.00    +0.000 A 
ATOM      5  C   UNL     1       1.512   9.336  18.015  0.00  0.00    +0.000 A 
ATOM      6  C   UNL     1       0.670   9.736  18.999  0.00  0.00    +0.000 A 
ATOM      7  C   UNL     1       0.696   9.054  20.287  0.00  0.00    +0.000 A 
ATOM      8  C   UNL     1       1.526   8.019  20.465  0.00  0.00    +0.000 A 
ATOM      9  N   UNL     1       2.311   7.543  19.425  0.00  0.00    +0.000 N 
ENDROOT
BRANCH   2  10
ATOM     10  C   UNL     1       4.982   5.913  17.584  0.00  0.00    +0.000 A 
ATOM     11  C   UNL     1       6.122   5.699  18.383  0.00  0.00    +0.000 A 
ATOM     12  C   UNL     1       7.206   4.954  17.915  0.00  0.00    +0.000 A 
ATOM     13  C   UNL     1       7.174   4.408  16.635  0.00  0.00    +0.000 A 
ATOM     14  C   UNL     1       6.042   4.597  15.841  0.00  0.00    +0.000 A 
ATOM     15 CL   UNL     1       5.990   3.910  14.262  0.00  0.00    +0.000 Cl
ATOM     16  C   UNL     1       4.948   5.329  16.314  0.00  0.00    +0.000 A 
ENDBRANCH   2  10
BRANCH   6  17
ATOM     17  C   UNL     1      -0.281  10.890  18.847  0.00  0.00    +0.000 C 
ATOM     18  F   UNL     1      -0.985  11.146  19.983  0.00  0.00    +0.000 F 
ATOM     19  F   UNL     1       0.369  12.038  18.530  0.00  0.00    +0.000 F 
ATOM     20  F   UNL     1      -1.196  10.667  17.870  0.00  0.00    +0.000 F 
ENDBRANCH   6  17
BRANCH   1  21
ATOM     21  N   UNL     1       3.209   5.362  20.233  0.00  0.00    +0.000 N 
ATOM     22  H   UNL     1       4.148   5.260  20.618  0.00  0.00    +0.000 HD
BRANCH  21  24
ATOM     23  C   UNL     1       1.548   3.925  18.984  0.00  0.00    +0.000 C 
ATOM     24  C   UNL     1       2.614   4.001  20.084  0.00  0.00    +0.000 C 
ATOM     25  C   UNL     1       2.152   3.433  21.441  0.00  0.00    +0.000 C 
ATOM     26  C   UNL     1       3.749   3.031  19.655  0.00  0.00    +0.000 C 
ENDBRANCH  21  24
ENDBRANCH   1  21
TORSDOF 4
ENDMDL
MODEL 3
REMARK VINA RESULT:      -8.6      0.075      1.157
REMARK  Name = 
REMARK  7 active torsions:
REMARK  status: ('A' for Active; 'I' for Inactive)
REMARK    1  A    between atoms: C_1  and  C_2
REMARK    2  A    between atoms: C_2  and  C_3
REMARK    3  A    between atoms: C_2  and  C_4
REMARK    4  A    between atoms: C_2  and  N_5
REMARK    5  A    between atoms: N_5  and  C_6
REMARK    6  A    between atoms: C_7  and  C_8
REMARK    7  A    between atoms: C_18  and  C_19
REMARK                            x       y       z     vdW  Elec       q    Type
REMARK                         _______ _______ _______ _____ _____    ______ ____
ROOT
ATOM      1  C   UNL     1       3.144   6.415  19.313  0.00  0.00    +0.000 A 
ATOM      2  C   UNL     1       3.853   6.656  18.128  0.00  0.00    +0.000 A 
ATOM      3  N   UNL     1       3.322   7.725  17.430  0.00  0.00    +0.000 NA
ATOM      4  C   UNL     1       2.385   8.215  18.200  0.00  0.00    +0.000 A 
ATOM      5  C   UNL     1       1.501   9.324  18.001  0.00  0.00    +0.000 A 
ATOM      6  C   UNL     1       0.660   9.722  18.986  0.00  0.00    +0.000 A 
ATOM      7  C   UNL     1       0.694   9.045  20.277  0.00  0.00    +0.000 A 
ATOM      8  C   UNL     1       1.531   8.016  20.456  0.00  0.00    +0.000 A 
ATOM      9  N   UNL     1       2.316   7.541  19.416  0.00  0.00    +0.000 N 
ENDROOT
BRANCH   2  10
ATOM     10  C   UNL     1       4.992   5.921  17.573  0.00  0.00    +0.000 A 
ATOM     11  C   UNL     1       6.136   5.718  18.369  0.00  0.00    +0.000 A 
ATOM     12  C   UNL     1       7.222   4.977  17.901  0.00  0.00    +0.000 A 
ATOM     13  C   UNL     1       7.191   4.427  16.623  0.00  0.00    +0.000 A 
ATOM     14  C   UNL     1       6.055   4.606  15.832  0.00  0.00    +0.000 A 
ATOM     15 CL   UNL     1       6.003   3.912  14.255  0.00  0.00    +0.000 Cl
ATOM     16  C   UNL     1       4.958   5.332  16.305  0.00  0.00    +0.000 A 
ENDBRANCH   2  10
BRANCH   6  17
ATOM     17  C   UNL     1      -0.299  10.869  18.833  0.00  0.00    +0.000 C 
ATOM     18  F   UNL     1      -1.211  10.665  17.843  0.00  0.00    +0.000 F 
ATOM     19  F   UNL     1      -1.007  11.087  19.970  0.00  0.00    +0.000 F 
ATOM     20  F   UNL     1       0.341  12.027  18.533  0.00  0.00    +0.000 F 
ENDBRANCH   6  17
BRANCH   1  21
ATOM     21  N   UNL     1       3.231   5.369  20.229  0.00  0.00    +0.000 N 
ATOM     22  H   UNL     1       4.165   5.291  20.631  0.00  0.00    +0.000 HD
BRANCH  21  24
ATOM     23  C   UNL     1       1.940   3.494  21.326  0.00  0.00    +0.000 C 
ATOM     24  C   UNL     1       2.671   3.993  20.074  0.00  0.00    +0.000 C 
ATOM     25  C   UNL     1       3.728   3.009  19.534  0.00  0.00    +0.000 C 
ATOM     26  C   UNL     1       1.609   4.038  18.942  0.00  0.00    +0.000 C 
ENDBRANCH  21  24
ENDBRANCH   1  21
TORSDOF 4
ENDMDL
MODEL 4
REMARK VINA RESULT:      -8.1      1.220      1.734
REMARK  Name = 
REMARK  7 active torsions:
REMARK  status: ('A' for Active; 'I' for Inactive)
REMARK    1  A    between atoms: C_1  and  C_2
REMARK    2  A    between atoms: C_2  and  C_3
REMARK    3  A    between atoms: C_2  and  C_4
REMARK    4  A    between atoms: C_2  and  N_5
REMARK    5  A    between atoms: N_5  and  C_6
REMARK    6  A    between atoms: C_7  and  C_8
REMARK    7  A    between atoms: C_18  and  C_19
REMARK                            x       y       z     vdW  Elec       q    Type
REMARK                         _______ _______ _______ _____ _____    ______ ____
ROOT
ATOM      1  C   UNL     1       2.623   6.267  19.816  0.00  0.00    +0.000 A 
ATOM      2  C   UNL     1       3.291   6.479  18.602  0.00  0.00    +0.000 A 
ATOM      3  N   UNL     1       2.839   7.623  17.970  0.00  0.00    +0.000 NA
ATOM      4  C   UNL     1       1.999   8.177  18.807  0.00  0.00    +0.000 A 
ATOM      5  C   UNL     1       1.227   9.377  18.694  0.00  0.00    +0.000 A 
ATOM      6  C   UNL     1       0.484   9.821  19.737  0.00  0.00    +0.000 A 
ATOM      7  C   UNL     1       0.514   9.095  21.001  0.00  0.00    +0.000 A 
ATOM      8  C   UNL     1       1.248   7.979  21.100  0.00  0.00    +0.000 A 
ATOM      9  N   UNL     1       1.924   7.467  20.002  0.00  0.00    +0.000 N 
ENDROOT
BRANCH   2  10
ATOM     10  C   UNL     1       4.317   5.654  17.961  0.00  0.00    +0.000 A 
ATOM     11  C   UNL     1       3.996   4.941  16.790  0.00  0.00    +0.000 A 
ATOM     12  C   UNL     1       4.956   4.185  16.115  0.00  0.00    +0.000 A 
ATOM     13  C   UNL     1       6.259   4.121  16.600  0.00  0.00    +0.000 A 
ATOM     14  C   UNL     1       6.593   4.838  17.751  0.00  0.00    +0.000 A 
ATOM     15 CL   UNL     1       8.209   4.776  18.346  0.00  0.00    +0.000 Cl
ATOM     16  C   UNL     1       5.638   5.611  18.418  0.00  0.00    +0.000 A 
ENDBRANCH   2  10
BRANCH   6  17
ATOM     17  C   UNL     1      -0.356  11.065  19.675  0.00  0.00    +0.000 C 
ATOM     18  F   UNL     1      -1.465  10.915  18.900  0.00  0.00    +0.000 F 
ATOM     19  F   UNL     1      -0.794  11.438  20.905  0.00  0.00    +0.000 F 
ATOM     20  F   UNL     1       0.332  12.116  19.162  0.00  0.00    +0.000 F 
ENDBRANCH   6  17
BRANCH   1  21
ATOM     21  N   UNL     1       2.648   5.183  20.691  0.00  0.00    +0.000 N 
ATOM     22  H   UNL     1       3.481   5.186  21.278  0.00  0.00    +0.000 HD
BRANCH  21  24
ATOM     23  C   UNL     1       3.530   2.916  20.007  0.00  0.00    +0.000 C 
ATOM     24  C   UNL     1       2.306   3.765  20.371  0.00  0.00    +0.000 C 
ATOM     25  C   UNL     1       1.159   3.676  19.345  0.00  0.00    +0.000 C 
ATOM     26  C   UNL     1       1.698   3.123  21.648  0.00  0.00    +0.000 C 
ENDBRANCH  21  24
ENDBRANCH   1  21
TORSDOF 4
ENDMDL
MODEL 5
REMARK VINA RESULT:      -8.1      1.049      1.659
REMARK  Name = 
REMARK  7 active torsions:
REMARK  status: ('A' for Active; 'I' for Inactive)
REMARK    1  A    between atoms: C_1  and  C_2
REMARK    2  A    between atoms: C_2  and  C_3
REMARK    3  A    between atoms: C_2  and  C_4
REMARK    4  A    between atoms: C_2  and  N_5
REMARK    5  A    between atoms: N_5  and  C_6
REMARK    6  A    between atoms: C_7  and  C_8
REMARK    7  A    between atoms: C_18  and  C_19
REMARK                            x       y       z     vdW  Elec       q    Type
REMARK                         _______ _______ _______ _____ _____    ______ ____
ROOT
ATOM      1  C   UNL     1       2.892   6.324  19.523  0.00  0.00    +0.000 A 
ATOM      2  C   UNL     1       3.557   6.529  18.306  0.00  0.00    +0.000 A 
ATOM      3  N   UNL     1       3.066   7.639  17.643  0.00  0.00    +0.000 NA
ATOM      4  C   UNL     1       2.203   8.183  18.462  0.00  0.00    +0.000 A 
ATOM      5  C   UNL     1       1.387   9.351  18.315  0.00  0.00    +0.000 A 
ATOM      6  C   UNL     1       0.625   9.794  19.343  0.00  0.00    +0.000 A 
ATOM      7  C   UNL     1       0.676   9.103  20.626  0.00  0.00    +0.000 A 
ATOM      8  C   UNL     1       1.450   8.018  20.756  0.00  0.00    +0.000 A 
ATOM      9  N   UNL     1       2.149   7.502  19.675  0.00  0.00    +0.000 N 
ENDROOT
BRANCH   2  10
ATOM     10  C   UNL     1       4.615   5.725  17.690  0.00  0.00    +0.000 A 
ATOM     11  C   UNL     1       4.403   5.168  16.415  0.00  0.00    +0.000 A 
ATOM     12  C   UNL     1       5.403   4.440  15.767  0.00  0.00    +0.000 A 
ATOM     13  C   UNL     1       6.636   4.250  16.383  0.00  0.00    +0.000 A 
ATOM     14  C   UNL     1       6.864   4.815  17.639  0.00  0.00    +0.000 A 
ATOM     15 CL   UNL     1       8.395   4.598  18.399  0.00  0.00    +0.000 Cl
ATOM     16  C   UNL     1       5.871   5.559  18.282  0.00  0.00    +0.000 A 
ENDBRANCH   2  10
BRANCH   6  17
ATOM     17  C   UNL     1      -0.261  11.005  19.246  0.00  0.00    +0.000 C 
ATOM     18  F   UNL     1       0.438  12.154  19.035  0.00  0.00    +0.000 F 
ATOM     19  F   UNL     1      -1.146  10.899  18.222  0.00  0.00    +0.000 F 
ATOM     20  F   UNL     1      -0.982  11.197  20.379  0.00  0.00    +0.000 F 
ENDBRANCH   6  17
BRANCH   1  21
ATOM     21  N   UNL     1       2.953   5.265  20.426  0.00  0.00    +0.000 N 
ATOM     22  H   UNL     1       3.882   5.166  20.835  0.00  0.00    +0.000 HD
BRANCH  21  24
ATOM     23  C   UNL     1       1.333   3.831  19.121  0.00  0.00    +0.000 C 
ATOM     24  C   UNL     1       2.371   3.902  20.248  0.00  0.00    +0.000 C 
ATOM     25  C   UNL     1       1.881   3.315  21.586  0.00  0.00    +0.000 C 
ATOM     26  C   UNL     1       3.523   2.944  19.835  0.00  0.00    +0.000 C 
ENDBRANCH  21  24
ENDBRANCH   1  21
TORSDOF 4
ENDMDL
MODEL 6
REMARK VINA RESULT:      -7.7      4.471      6.681
REMARK  Name = 
REMARK  7 active torsions:
REMARK  status: ('A' for Active; 'I' for Inactive)
REMARK    1  A    between atoms: C_1  and  C_2
REMARK    2  A    between atoms: C_2  and  C_3
REMARK    3  A    between atoms: C_2  and  C_4
REMARK    4  A    between atoms: C_2  and  N_5
REMARK    5  A    between atoms: N_5  and  C_6
REMARK    6  A    between atoms: C_7  and  C_8
REMARK    7  A    between atoms: C_18  and  C_19
REMARK                            x       y       z     vdW  Elec       q    Type
REMARK                         _______ _______ _______ _____ _____    ______ ____
ROOT
ATOM      1  C   UNL     1       2.548   5.503  18.596  0.00  0.00    +0.000 A 
ATOM      2  C   UNL     1       2.697   6.896  18.623  0.00  0.00    +0.000 A 
ATOM      3  N   UNL     1       3.777   7.303  17.862  0.00  0.00    +0.000 NA
ATOM      4  C   UNL     1       4.224   6.220  17.280  0.00  0.00    +0.000 A 
ATOM      5  C   UNL     1       5.321   6.031  16.379  0.00  0.00    +0.000 A 
ATOM      6  C   UNL     1       5.550   4.821  15.815  0.00  0.00    +0.000 A 
ATOM      7  C   UNL     1       4.639   3.716  16.090  0.00  0.00    +0.000 A 
ATOM      8  C   UNL     1       3.611   3.905  16.926  0.00  0.00    +0.000 A 
ATOM      9  N   UNL     1       3.438   5.113  17.586  0.00  0.00    +0.000 N 
ENDROOT
BRANCH   2  10
ATOM     10  C   UNL     1       1.908   7.891  19.354  0.00  0.00    +0.000 A 
ATOM     11  C   UNL     1       1.671   7.707  20.730  0.00  0.00    +0.000 A 
ATOM     12  C   UNL     1       0.971   8.655  21.478  0.00  0.00    +0.000 A 
ATOM     13  C   UNL     1       0.489   9.808  20.864  0.00  0.00    +0.000 A 
ATOM     14  C   UNL     1       0.734  10.010  19.504  0.00  0.00    +0.000 A 
ATOM     15 CL   UNL     1       0.154  11.443  18.743  0.00  0.00    +0.000 Cl
ATOM     16  C   UNL     1       1.451   9.070  18.758  0.00  0.00    +0.000 A 
ENDBRANCH   2  10
BRANCH   6  17
ATOM     17  C   UNL     1       6.691   4.558  14.872  0.00  0.00    +0.000 C 
ATOM     18  F   UNL     1       6.842   5.540  13.940  0.00  0.00    +0.000 F 
ATOM     19  F   UNL     1       7.875   4.465  15.529  0.00  0.00    +0.000 F 
ATOM     20  F   UNL     1       6.523   3.400  14.185  0.00  0.00    +0.000 F 
ENDBRANCH   6  17
BRANCH   1  21
ATOM     21  N   UNL     1       1.707   4.663  19.323  0.00  0.00    +0.000 N 
ATOM     22  H   UNL     1       1.156   5.177  20.010  0.00  0.00    +0.000 HD
BRANCH  21  24
ATOM     23  C   UNL     1       3.545   3.188  20.235  0.00  0.00    +0.000 C 
ATOM     24  C   UNL     1       2.055   3.331  19.903  0.00  0.00    +0.000 C 
ATOM     25  C   UNL     1       1.492   2.177  19.052  0.00  0.00    +0.000 C 
ATOM     26  C   UNL     1       1.296   3.189  21.252  0.00  0.00    +0.000 C 
ENDBRANCH  21  24
ENDBRANCH   1  21
TORSDOF 4
ENDMDL
MODEL 7
REMARK VINA RESULT:      -7.6      4.492      6.762
REMARK  Name = 
REMARK  7 active torsions:
REMARK  status: ('A' for Active; 'I' for Inactive)
REMARK    1  A    between atoms: C_1  and  C_2
REMARK    2  A    between atoms: C_2  and  C_3
REMARK    3  A    between atoms: C_2  and  C_4
REMARK    4  A    between atoms: C_2  and  N_5
REMARK    5  A    between atoms: N_5  and  C_6
REMARK    6  A    between atoms: C_7  and  C_8
REMARK    7  A    between atoms: C_18  and  C_19
REMARK                            x       y       z     vdW  Elec       q    Type
REMARK                         _______ _______ _______ _____ _____    ______ ____
ROOT
ATOM      1  C   UNL     1       3.480   5.380  18.585  0.00  0.00    +0.000 A 
ATOM      2  C   UNL     1       3.174   6.725  18.338  0.00  0.00    +0.000 A 
ATOM      3  N   UNL     1       3.889   7.216  17.261  0.00  0.00    +0.000 NA
ATOM      4  C   UNL     1       4.535   6.188  16.772  0.00  0.00    +0.000 A 
ATOM      5  C   UNL     1       5.429   6.095  15.658  0.00  0.00    +0.000 A 
ATOM      6  C   UNL     1       5.918   4.894  15.264  0.00  0.00    +0.000 A 
ATOM      7  C   UNL     1       5.488   3.682  15.952  0.00  0.00    +0.000 A 
ATOM      8  C   UNL     1       4.644   3.780  16.987  0.00  0.00    +0.000 A 
ATOM      9  N   UNL     1       4.226   5.016  17.457  0.00  0.00    +0.000 N 
ENDROOT
BRANCH   2  10
ATOM     10  C   UNL     1       2.270   7.612  19.074  0.00  0.00    +0.000 A 
ATOM     11  C   UNL     1       1.943   7.310  20.409  0.00  0.00    +0.000 A 
ATOM     12  C   UNL     1       1.129   8.155  21.166  0.00  0.00    +0.000 A 
ATOM     13  C   UNL     1       0.621   9.321  20.600  0.00  0.00    +0.000 A 
ATOM     14  C   UNL     1       0.953   9.641  19.282  0.00  0.00    +0.000 A 
ATOM     15 CL   UNL     1       0.341  11.091  18.583  0.00  0.00    +0.000 Cl
ATOM     16  C   UNL     1       1.783   8.805  18.529  0.00  0.00    +0.000 A 
ENDBRANCH   2  10
BRANCH   6  17
ATOM     17  C   UNL     1       6.869   4.733  14.111  0.00  0.00    +0.000 C 
ATOM     18  F   UNL     1       6.722   5.703  13.167  0.00  0.00    +0.000 F 
ATOM     19  F   UNL     1       8.163   4.783  14.516  0.00  0.00    +0.000 F 
ATOM     20  F   UNL     1       6.696   3.548  13.474  0.00  0.00    +0.000 F 
ENDBRANCH   6  17
BRANCH   1  21
ATOM     21  N   UNL     1       3.119   4.543  19.640  0.00  0.00    +0.000 N 
ATOM     22  H   UNL     1       3.934   4.165  20.122  0.00  0.00    +0.000 HD
BRANCH  21  24
ATOM     23  C   UNL     1       1.088   3.606  20.815  0.00  0.00    +0.000 C 
ATOM     24  C   UNL     1       2.054   3.497  19.629  0.00  0.00    +0.000 C 
ATOM     25  C   UNL     1       2.645   2.087  19.433  0.00  0.00    +0.000 C 
ATOM     26  C   UNL     1       1.195   3.708  18.352  0.00  0.00    +0.000 C 
ENDBRANCH  21  24
ENDBRANCH   1  21
TORSDOF 4
ENDMDL
MODEL 8
REMARK VINA RESULT:      -7.6      4.454      6.709
REMARK  Name = 
REMARK  7 active torsions:
REMARK  status: ('A' for Active; 'I' for Inactive)
REMARK    1  A    between atoms: C_1  and  C_2
REMARK    2  A    between atoms: C_2  and  C_3
REMARK    3  A    between atoms: C_2  and  C_4
REMARK    4  A    between atoms: C_2  and  N_5
REMARK    5  A    between atoms: N_5  and  C_6
REMARK    6  A    between atoms: C_7  and  C_8
REMARK    7  A    between atoms: C_18  and  C_19
REMARK                            x       y       z     vdW  Elec       q    Type
REMARK                         _______ _______ _______ _____ _____    ______ ____
ROOT
ATOM      1  C   UNL     1       3.408   5.456  18.733  0.00  0.00    +0.000 A 
ATOM      2  C   UNL     1       3.088   6.791  18.454  0.00  0.00    +0.000 A 
ATOM      3  N   UNL     1       3.795   7.262  17.363  0.00  0.00    +0.000 NA
ATOM      4  C   UNL     1       4.449   6.229  16.897  0.00  0.00    +0.000 A 
ATOM      5  C   UNL     1       5.340   6.116  15.782  0.00  0.00    +0.000 A 
ATOM      6  C   UNL     1       5.838   4.911  15.416  0.00  0.00    +0.000 A 
ATOM      7  C   UNL     1       5.422   3.712  16.135  0.00  0.00    +0.000 A 
ATOM      8  C   UNL     1       4.581   3.828  17.170  0.00  0.00    +0.000 A 
ATOM      9  N   UNL     1       4.153   5.071  17.611  0.00  0.00    +0.000 N 
ENDROOT
BRANCH   2  10
ATOM     10  C   UNL     1       2.179   7.688  19.172  0.00  0.00    +0.000 A 
ATOM     11  C   UNL     1       1.855   7.413  20.514  0.00  0.00    +0.000 A 
ATOM     12  C   UNL     1       1.036   8.268  21.253  0.00  0.00    +0.000 A 
ATOM     13  C   UNL     1       0.519   9.418  20.663  0.00  0.00    +0.000 A 
ATOM     14  C   UNL     1       0.848   9.711  19.338  0.00  0.00    +0.000 A 
ATOM     15 CL   UNL     1       0.225  11.142  18.608  0.00  0.00    +0.000 Cl
ATOM     16  C   UNL     1       1.683   8.865  18.602  0.00  0.00    +0.000 A 
ENDBRANCH   2  10
BRANCH   6  17
ATOM     17  C   UNL     1       6.786   4.731  14.263  0.00  0.00    +0.000 C 
ATOM     18  F   UNL     1       8.092   4.841  14.632  0.00  0.00    +0.000 F 
ATOM     19  F   UNL     1       6.651   3.509  13.688  0.00  0.00    +0.000 F 
ATOM     20  F   UNL     1       6.582   5.654  13.291  0.00  0.00    +0.000 F 
ENDBRANCH   6  17
BRANCH   1  21
ATOM     21  N   UNL     1       3.059   4.642  19.809  0.00  0.00    +0.000 N 
ATOM     22  H   UNL     1       3.877   4.323  20.328  0.00  0.00    +0.000 HD
BRANCH  21  24
ATOM     23  C   UNL     1       1.115   3.580  18.593  0.00  0.00    +0.000 C 
ATOM     24  C   UNL     1       2.048   3.543  19.810  0.00  0.00    +0.000 C 
ATOM     25  C   UNL     1       1.309   3.452  21.159  0.00  0.00    +0.000 C 
ATOM     26  C   UNL     1       2.813   2.193  19.726  0.00  0.00    +0.000 C 
ENDBRANCH  21  24
ENDBRANCH   1  21
TORSDOF 4
ENDMDL
MODEL 9
REMARK VINA RESULT:      -7.6      4.472      6.688
REMARK  Name = 
REMARK  7 active torsions:
REMARK  status: ('A' for Active; 'I' for Inactive)
REMARK    1  A    between atoms: C_1  and  C_2
REMARK    2  A    between atoms: C_2  and  C_3
REMARK    3  A    between atoms: C_2  and  C_4
REMARK    4  A    between atoms: C_2  and  N_5
REMARK    5  A    between atoms: N_5  and  C_6
REMARK    6  A    between atoms: C_7  and  C_8
REMARK    7  A    between atoms: C_18  and  C_19
REMARK                            x       y       z     vdW  Elec       q    Type
REMARK                         _______ _______ _______ _____ _____    ______ ____
ROOT
ATOM      1  C   UNL     1       3.406   5.434  18.644  0.00  0.00    +0.000 A 
ATOM      2  C   UNL     1       3.111   6.779  18.381  0.00  0.00    +0.000 A 
ATOM      3  N   UNL     1       3.835   7.254  17.303  0.00  0.00    +0.000 NA
ATOM      4  C   UNL     1       4.477   6.217  16.828  0.00  0.00    +0.000 A 
ATOM      5  C   UNL     1       5.377   6.106  15.720  0.00  0.00    +0.000 A 
ATOM      6  C   UNL     1       5.859   4.898  15.341  0.00  0.00    +0.000 A 
ATOM      7  C   UNL     1       5.416   3.696  16.039  0.00  0.00    +0.000 A 
ATOM      8  C   UNL     1       4.567   3.810  17.068  0.00  0.00    +0.000 A 
ATOM      9  N   UNL     1       4.156   5.054  17.523  0.00  0.00    +0.000 N 
ENDROOT
BRANCH   2  10
ATOM     10  C   UNL     1       2.210   7.680  19.103  0.00  0.00    +0.000 A 
ATOM     11  C   UNL     1       1.892   7.407  20.447  0.00  0.00    +0.000 A 
ATOM     12  C   UNL     1       1.081   8.266  21.190  0.00  0.00    +0.000 A 
ATOM     13  C   UNL     1       0.565   9.417  20.603  0.00  0.00    +0.000 A 
ATOM     14  C   UNL     1       0.888   9.709  19.276  0.00  0.00    +0.000 A 
ATOM     15 CL   UNL     1       0.267  11.142  18.548  0.00  0.00    +0.000 Cl
ATOM     16  C   UNL     1       1.715   8.859  18.536  0.00  0.00    +0.000 A 
ENDBRANCH   2  10
BRANCH   6  17
ATOM     17  C   UNL     1       6.815   4.719  14.195  0.00  0.00    +0.000 C 
ATOM     18  F   UNL     1       6.644   3.534  13.546  0.00  0.00    +0.000 F 
ATOM     19  F   UNL     1       6.669   5.694  13.262  0.00  0.00    +0.000 F 
ATOM     20  F   UNL     1       8.108   4.750  14.605  0.00  0.00    +0.000 F 
ENDBRANCH   6  17
BRANCH   1  21
ATOM     21  N   UNL     1       3.034   4.611  19.704  0.00  0.00    +0.000 N 
ATOM     22  H   UNL     1       3.833   4.342  20.277  0.00  0.00    +0.000 HD
BRANCH  21  24
ATOM     23  C   UNL     1       2.786   2.096  19.756  0.00  0.00    +0.000 C 
ATOM     24  C   UNL     1       2.086   3.458  19.653  0.00  0.00    +0.000 C 
ATOM     25  C   UNL     1       1.117   3.572  18.460  0.00  0.00    +0.000 C 
ATOM     26  C   UNL     1       1.150   3.557  20.889  0.00  0.00    +0.000 C 
ENDBRANCH  21  24
ENDBRANCH   1  21
TORSDOF 4
ENDMDL
