MODEL 1
REMARK VINA RESULT:      -7.1      0.000      0.000
REMARK  Name = 
REMARK  5 active torsions:
REMARK  status: ('A' for Active; 'I' for Inactive)
REMARK    1  A    between atoms: C_2  and  C_3
REMARK    2  A    between atoms: C_3  and  O_4
REMARK    3  A    between atoms: O_4  and  C_5
REMARK    4  A    between atoms: N_12  and  N_13
REMARK    5  A    between atoms: C_14  and  C_15
REMARK                            x       y       z     vdW  Elec       q    Type
REMARK                         _______ _______ _______ _____ _____    ______ ____
ROOT
ATOM      1  O   UNL     1       5.635   5.986  17.827  0.00  0.00    +0.000 OA
ATOM      2  C   UNL     1       6.368   4.999  17.812  0.00  0.00    +0.000 C 
ATOM      3  N   UNL     1       6.215   3.879  18.622  0.00  0.00    +0.000 N 
ATOM      4  H   UNL     1       6.896   3.128  18.596  0.00  0.00    +0.000 HD
ENDROOT
BRANCH   3   5
ATOM      5  N   UNL     1       5.151   3.798  19.478  0.00  0.00    +0.000 NA
ATOM      6  C   UNL     1       4.070   3.283  18.984  0.00  0.00    +0.000 C 
BRANCH   6   7
ATOM      7  C   UNL     1       2.892   3.157  19.800  0.00  0.00    +0.000 A 
ATOM      8  C   UNL     1       1.577   3.448  19.485  0.00  0.00    +0.000 A 
ATOM      9  C   UNL     1       0.783   3.157  20.621  0.00  0.00    +0.000 A 
ATOM     10  C   UNL     1       1.628   2.696  21.603  0.00  0.00    +0.000 A 
ATOM     11  N   UNL     1       2.902   2.697  21.098  0.00  0.00    +0.000 N 
ATOM     12  H   UNL     1       3.741   2.406  21.587  0.00  0.00    +0.000 HD
ENDBRANCH   6   7
ENDBRANCH   3   5
BRANCH   2  13
ATOM     13  C   UNL     1       7.538   4.878  16.837  0.00  0.00    +0.000 C 
BRANCH  13  14
ATOM     14  O   UNL     1       7.289   5.627  15.654  0.00  0.00    +0.000 OA
BRANCH  14  15
ATOM     15  C   UNL     1       6.841   4.924  14.568  0.00  0.00    +0.000 A 
ATOM     16  C   UNL     1       7.525   4.761  13.360  0.00  0.00    +0.000 A 
ATOM     17  C   UNL     1       6.942   4.038  12.311  0.00  0.00    +0.000 A 
ATOM     18  C   UNL     1       5.679   3.474  12.469  0.00  0.00    +0.000 A 
ATOM     19 CL   UNL     1       4.966   2.599  11.173  0.00  0.00    +0.000 Cl
ATOM     20  C   UNL     1       4.992   3.624  13.670  0.00  0.00    +0.000 A 
ATOM     21  C   UNL     1       5.574   4.349  14.717  0.00  0.00    +0.000 A 
ENDBRANCH  14  15
ENDBRANCH  13  14
ENDBRANCH   2  13
TORSDOF 5
ENDMDL
MODEL 2
REMARK VINA RESULT:      -7.0      3.087      6.435
REMARK  Name = 
REMARK  5 active torsions:
REMARK  status: ('A' for Active; 'I' for Inactive)
REMARK    1  A    between atoms: C_2  and  C_3
REMARK    2  A    between atoms: C_3  and  O_4
REMARK    3  A    between atoms: O_4  and  C_5
REMARK    4  A    between atoms: N_12  and  N_13
REMARK    5  A    between atoms: C_14  and  C_15
REMARK                            x       y       z     vdW  Elec       q    Type
REMARK                         _______ _______ _______ _____ _____    ______ ____
ROOT
ATOM      1  O   UNL     1       8.345   3.991  17.756  0.00  0.00    +0.000 OA
ATOM      2  C   UNL     1       7.748   5.065  17.718  0.00  0.00    +0.000 C 
ATOM      3  N   UNL     1       7.228   5.649  16.568  0.00  0.00    +0.000 N 
ATOM      4  H   UNL     1       6.801   6.568  16.604  0.00  0.00    +0.000 HD
ENDROOT
BRANCH   3   5
ATOM      5  N   UNL     1       7.312   4.988  15.372  0.00  0.00    +0.000 NA
ATOM      6  C   UNL     1       6.189   4.791  14.758  0.00  0.00    +0.000 C 
BRANCH   6   7
ATOM      7  C   UNL     1       6.167   4.103  13.496  0.00  0.00    +0.000 A 
ATOM      8  C   UNL     1       7.193   3.914  12.587  0.00  0.00    +0.000 A 
ATOM      9  C   UNL     1       6.677   3.173  11.497  0.00  0.00    +0.000 A 
ATOM     10  C   UNL     1       5.350   2.926  11.762  0.00  0.00    +0.000 A 
ATOM     11  N   UNL     1       5.050   3.489  12.974  0.00  0.00    +0.000 N 
ATOM     12  H   UNL     1       4.149   3.470  13.438  0.00  0.00    +0.000 HD
ENDBRANCH   6   7
ENDBRANCH   3   5
BRANCH   2  13
ATOM     13  C   UNL     1       7.470   5.878  18.981  0.00  0.00    +0.000 C 
BRANCH  13  14
ATOM     14  O   UNL     1       6.490   5.238  19.787  0.00  0.00    +0.000 OA
BRANCH  14  15
ATOM     15  C   UNL     1       5.252   5.066  19.226  0.00  0.00    +0.000 A 
ATOM     16  C   UNL     1       4.448   6.077  18.693  0.00  0.00    +0.000 A 
ATOM     17  C   UNL     1       3.184   5.773  18.170  0.00  0.00    +0.000 A 
ATOM     18  C   UNL     1       2.726   4.458  18.176  0.00  0.00    +0.000 A 
ATOM     19 CL   UNL     1       1.170   4.094  17.543  0.00  0.00    +0.000 Cl
ATOM     20  C   UNL     1       3.522   3.442  18.697  0.00  0.00    +0.000 A 
ATOM     21  C   UNL     1       4.782   3.748  19.221  0.00  0.00    +0.000 A 
ENDBRANCH  14  15
ENDBRANCH  13  14
ENDBRANCH   2  13
TORSDOF 5
ENDMDL
MODEL 3
REMARK VINA RESULT:      -7.0      5.047      7.496
REMARK  Name = 
REMARK  5 active torsions:
REMARK  status: ('A' for Active; 'I' for Inactive)
REMARK    1  A    between atoms: C_2  and  C_3
REMARK    2  A    between atoms: C_3  and  O_4
REMARK    3  A    between atoms: O_4  and  C_5
REMARK    4  A    between atoms: N_12  and  N_13
REMARK    5  A    between atoms: C_14  and  C_15
REMARK                            x       y       z     vdW  Elec       q    Type
REMARK                         _______ _______ _______ _____ _____    ______ ____
ROOT
ATOM      1  O   UNL     1       7.670   5.986  18.769  0.00  0.00    +0.000 OA
ATOM      2  C   UNL     1       7.326   6.569  17.743  0.00  0.00    +0.000 C 
ATOM      3  N   UNL     1       7.596   7.901  17.454  0.00  0.00    +0.000 N 
ATOM      4  H   UNL     1       7.227   8.332  16.613  0.00  0.00    +0.000 HD
ENDROOT
BRANCH   3   5
ATOM      5  N   UNL     1       8.350   8.647  18.320  0.00  0.00    +0.000 NA
ATOM      6  C   UNL     1       8.620   9.853  17.935  0.00  0.00    +0.000 C 
BRANCH   6   7
ATOM      7  C   UNL     1       9.409  10.717  18.771  0.00  0.00    +0.000 A 
ATOM      8  C   UNL     1      10.303  11.709  18.405  0.00  0.00    +0.000 A 
ATOM      9  C   UNL     1      10.829  12.279  19.589  0.00  0.00    +0.000 A 
ATOM     10  C   UNL     1      10.248  11.626  20.650  0.00  0.00    +0.000 A 
ATOM     11  N   UNL     1       9.389  10.684  20.148  0.00  0.00    +0.000 N 
ATOM     12  H   UNL     1       8.814  10.048  20.688  0.00  0.00    +0.000 HD
ENDBRANCH   6   7
ENDBRANCH   3   5
BRANCH   2  13
ATOM     13  C   UNL     1       6.574   5.853  16.623  0.00  0.00    +0.000 C 
BRANCH  13  14
ATOM     14  O   UNL     1       5.209   6.248  16.597  0.00  0.00    +0.000 OA
BRANCH  14  15
ATOM     15  C   UNL     1       4.300   5.338  17.068  0.00  0.00    +0.000 A 
ATOM     16  C   UNL     1       4.377   3.951  16.916  0.00  0.00    +0.000 A 
ATOM     17  C   UNL     1       3.363   3.127  17.423  0.00  0.00    +0.000 A 
ATOM     18  C   UNL     1       2.274   3.688  18.084  0.00  0.00    +0.000 A 
ATOM     19 CL   UNL     1       1.028   2.672  18.692  0.00  0.00    +0.000 Cl
ATOM     20  C   UNL     1       2.190   5.068  18.247  0.00  0.00    +0.000 A 
ATOM     21  C   UNL     1       3.203   5.890  17.739  0.00  0.00    +0.000 A 
ENDBRANCH  14  15
ENDBRANCH  13  14
ENDBRANCH   2  13
TORSDOF 5
ENDMDL
MODEL 4
REMARK VINA RESULT:      -7.0      4.753      7.356
REMARK  Name = 
REMARK  5 active torsions:
REMARK  status: ('A' for Active; 'I' for Inactive)
REMARK    1  A    between atoms: C_2  and  C_3
REMARK    2  A    between atoms: C_3  and  O_4
REMARK    3  A    between atoms: O_4  and  C_5
REMARK    4  A    between atoms: N_12  and  N_13
REMARK    5  A    between atoms: C_14  and  C_15
REMARK                            x       y       z     vdW  Elec       q    Type
REMARK                         _______ _______ _______ _____ _____    ______ ____
ROOT
ATOM      1  O   UNL     1       7.216   5.372  18.789  0.00  0.00    +0.000 OA
ATOM      2  C   UNL     1       6.973   5.795  17.660  0.00  0.00    +0.000 C 
ATOM      3  N   UNL     1       7.343   7.046  17.180  0.00  0.00    +0.000 N 
ATOM      4  H   UNL     1       7.054   7.351  16.257  0.00  0.00    +0.000 HD
ENDROOT
BRANCH   3   5
ATOM      5  N   UNL     1       8.085   7.885  17.967  0.00  0.00    +0.000 NA
ATOM      6  C   UNL     1       8.031   9.141  17.658  0.00  0.00    +0.000 C 
BRANCH   6   7
ATOM      7  C   UNL     1       8.778  10.105  18.421  0.00  0.00    +0.000 A 
ATOM      8  C   UNL     1       9.161  11.388  18.070  0.00  0.00    +0.000 A 
ATOM      9  C   UNL     1       9.880  11.940  19.158  0.00  0.00    +0.000 A 
ATOM     10  C   UNL     1       9.921  10.985  20.147  0.00  0.00    +0.000 A 
ATOM     11  N   UNL     1       9.250   9.879  19.694  0.00  0.00    +0.000 N 
ATOM     12  H   UNL     1       9.108   9.014  20.203  0.00  0.00    +0.000 HD
ENDBRANCH   6   7
ENDBRANCH   3   5
BRANCH   2  13
ATOM     13  C   UNL     1       6.251   4.943  16.618  0.00  0.00    +0.000 C 
BRANCH  13  14
ATOM     14  O   UNL     1       4.964   5.475  16.335  0.00  0.00    +0.000 OA
BRANCH  14  15
ATOM     15  C   UNL     1       3.975   5.200  17.242  0.00  0.00    +0.000 A 
ATOM     16  C   UNL     1       3.359   6.126  18.087  0.00  0.00    +0.000 A 
ATOM     17  C   UNL     1       2.374   5.710  18.993  0.00  0.00    +0.000 A 
ATOM     18  C   UNL     1       2.002   4.370  19.052  0.00  0.00    +0.000 A 
ATOM     19 CL   UNL     1       0.802   3.865  20.173  0.00  0.00    +0.000 Cl
ATOM     20  C   UNL     1       2.604   3.440  18.208  0.00  0.00    +0.000 A 
ATOM     21  C   UNL     1       3.588   3.856  17.306  0.00  0.00    +0.000 A 
ENDBRANCH  14  15
ENDBRANCH  13  14
ENDBRANCH   2  13
TORSDOF 5
ENDMDL
MODEL 5
REMARK VINA RESULT:      -6.9      4.573      7.399
REMARK  Name = 
REMARK  5 active torsions:
REMARK  status: ('A' for Active; 'I' for Inactive)
REMARK    1  A    between atoms: C_2  and  C_3
REMARK    2  A    between atoms: C_3  and  O_4
REMARK    3  A    between atoms: O_4  and  C_5
REMARK    4  A    between atoms: N_12  and  N_13
REMARK    5  A    between atoms: C_14  and  C_15
REMARK                            x       y       z     vdW  Elec       q    Type
REMARK                         _______ _______ _______ _____ _____    ______ ____
ROOT
ATOM      1  O   UNL     1       5.133   6.998  17.314  0.00  0.00    +0.000 OA
ATOM      2  C   UNL     1       6.074   6.258  17.032  0.00  0.00    +0.000 C 
ATOM      3  N   UNL     1       7.392   6.669  16.874  0.00  0.00    +0.000 N 
ATOM      4  H   UNL     1       8.106   6.011  16.579  0.00  0.00    +0.000 HD
ENDROOT
BRANCH   3   5
ATOM      5  N   UNL     1       7.730   7.976  17.096  0.00  0.00    +0.000 NA
ATOM      6  C   UNL     1       8.350   8.217  18.207  0.00  0.00    +0.000 C 
BRANCH   6   7
ATOM      7  C   UNL     1       8.744   9.559  18.538  0.00  0.00    +0.000 A 
ATOM      8  C   UNL     1       8.597  10.720  17.799  0.00  0.00    +0.000 A 
ATOM      9  C   UNL     1       9.144  11.787  18.552  0.00  0.00    +0.000 A 
ATOM     10  C   UNL     1       9.613  11.257  19.731  0.00  0.00    +0.000 A 
ATOM     11  N   UNL     1       9.365   9.909  19.717  0.00  0.00    +0.000 N 
ATOM     12  H   UNL     1       9.595   9.250  20.451  0.00  0.00    +0.000 HD
ENDBRANCH   6   7
ENDBRANCH   3   5
BRANCH   2  13
ATOM     13  C   UNL     1       5.890   4.752  16.859  0.00  0.00    +0.000 C 
BRANCH  13  14
ATOM     14  O   UNL     1       4.522   4.431  16.643  0.00  0.00    +0.000 OA
BRANCH  14  15
ATOM     15  C   UNL     1       3.807   4.029  17.740  0.00  0.00    +0.000 A 
ATOM     16  C   UNL     1       4.283   3.221  18.775  0.00  0.00    +0.000 A 
ATOM     17  C   UNL     1       3.439   2.857  19.833  0.00  0.00    +0.000 A 
ATOM     18  C   UNL     1       2.120   3.304  19.857  0.00  0.00    +0.000 A 
ATOM     19 CL   UNL     1       1.087   2.844  21.152  0.00  0.00    +0.000 Cl
ATOM     20  C   UNL     1       1.638   4.117  18.835  0.00  0.00    +0.000 A 
ATOM     21  C   UNL     1       2.482   4.477  17.779  0.00  0.00    +0.000 A 
ENDBRANCH  14  15
ENDBRANCH  13  14
ENDBRANCH   2  13
TORSDOF 5
ENDMDL
MODEL 6
REMARK VINA RESULT:      -6.9      0.330      1.152
REMARK  Name = 
REMARK  5 active torsions:
REMARK  status: ('A' for Active; 'I' for Inactive)
REMARK    1  A    between atoms: C_2  and  C_3
REMARK    2  A    between atoms: C_3  and  O_4
REMARK    3  A    between atoms: O_4  and  C_5
REMARK    4  A    between atoms: N_12  and  N_13
REMARK    5  A    between atoms: C_14  and  C_15
REMARK                            x       y       z     vdW  Elec       q    Type
REMARK                         _______ _______ _______ _____ _____    ______ ____
ROOT
ATOM      1  O   UNL     1       6.135   6.333  18.333  0.00  0.00    +0.000 OA
ATOM      2  C   UNL     1       6.632   5.277  17.948  0.00  0.00    +0.000 C 
ATOM      3  N   UNL     1       6.297   4.016  18.429  0.00  0.00    +0.000 N 
ATOM      4  H   UNL     1       6.794   3.192  18.107  0.00  0.00    +0.000 HD
ENDROOT
BRANCH   3   5
ATOM      5  N   UNL     1       5.304   3.885  19.362  0.00  0.00    +0.000 NA
ATOM      6  C   UNL     1       4.168   3.450  18.917  0.00  0.00    +0.000 C 
BRANCH   6   7
ATOM      7  C   UNL     1       3.058   3.281  19.816  0.00  0.00    +0.000 A 
ATOM      8  C   UNL     1       1.734   3.642  19.644  0.00  0.00    +0.000 A 
ATOM      9  C   UNL     1       1.025   3.265  20.811  0.00  0.00    +0.000 A 
ATOM     10  C   UNL     1       1.930   2.684  21.668  0.00  0.00    +0.000 A 
ATOM     11  N   UNL     1       3.157   2.695  21.058  0.00  0.00    +0.000 N 
ATOM     12  H   UNL     1       4.022   2.332  21.443  0.00  0.00    +0.000 HD
ENDBRANCH   6   7
ENDBRANCH   3   5
BRANCH   2  13
ATOM     13  C   UNL     1       7.675   5.235  16.833  0.00  0.00    +0.000 C 
BRANCH  13  14
ATOM     14  O   UNL     1       7.191   5.885  15.665  0.00  0.00    +0.000 OA
BRANCH  14  15
ATOM     15  C   UNL     1       6.675   5.079  14.686  0.00  0.00    +0.000 A 
ATOM     16  C   UNL     1       5.421   4.462  14.710  0.00  0.00    +0.000 A 
ATOM     17  C   UNL     1       5.019   3.635  13.653  0.00  0.00    +0.000 A 
ATOM     18  C   UNL     1       5.868   3.428  12.569  0.00  0.00    +0.000 A 
ATOM     19 CL   UNL     1       5.373   2.403  11.281  0.00  0.00    +0.000 Cl
ATOM     20  C   UNL     1       7.116   4.044  12.530  0.00  0.00    +0.000 A 
ATOM     21  C   UNL     1       7.517   4.867  13.588  0.00  0.00    +0.000 A 
ENDBRANCH  14  15
ENDBRANCH  13  14
ENDBRANCH   2  13
TORSDOF 5
ENDMDL
MODEL 7
REMARK VINA RESULT:      -6.8      3.245      6.509
REMARK  Name = 
REMARK  5 active torsions:
REMARK  status: ('A' for Active; 'I' for Inactive)
REMARK    1  A    between atoms: C_2  and  C_3
REMARK    2  A    between atoms: C_3  and  O_4
REMARK    3  A    between atoms: O_4  and  C_5
REMARK    4  A    between atoms: N_12  and  N_13
REMARK    5  A    between atoms: C_14  and  C_15
REMARK                            x       y       z     vdW  Elec       q    Type
REMARK                         _______ _______ _______ _____ _____    ______ ____
ROOT
ATOM      1  O   UNL     1       8.001   4.192  17.024  0.00  0.00    +0.000 OA
ATOM      2  C   UNL     1       7.471   5.292  16.880  0.00  0.00    +0.000 C 
ATOM      3  N   UNL     1       6.980   5.790  15.678  0.00  0.00    +0.000 N 
ATOM      4  H   UNL     1       6.612   6.733  15.623  0.00  0.00    +0.000 HD
ENDROOT
BRANCH   3   5
ATOM      5  N   UNL     1       7.014   5.010  14.554  0.00  0.00    +0.000 NA
ATOM      6  C   UNL     1       5.887   4.476  14.206  0.00  0.00    +0.000 C 
BRANCH   6   7
ATOM      7  C   UNL     1       5.816   3.635  13.041  0.00  0.00    +0.000 A 
ATOM      8  C   UNL     1       4.728   3.351  12.235  0.00  0.00    +0.000 A 
ATOM      9  C   UNL     1       5.162   2.472  11.213  0.00  0.00    +0.000 A 
ATOM     10  C   UNL     1       6.501   2.238  11.417  0.00  0.00    +0.000 A 
ATOM     11  N   UNL     1       6.891   2.947  12.523  0.00  0.00    +0.000 N 
ATOM     12  H   UNL     1       7.823   2.976  12.919  0.00  0.00    +0.000 HD
ENDBRANCH   6   7
ENDBRANCH   3   5
BRANCH   2  13
ATOM     13  C   UNL     1       7.253   6.243  18.056  0.00  0.00    +0.000 C 
BRANCH  13  14
ATOM     14  O   UNL     1       5.893   6.647  18.133  0.00  0.00    +0.000 OA
BRANCH  14  15
ATOM     15  C   UNL     1       4.974   5.661  18.374  0.00  0.00    +0.000 A 
ATOM     16  C   UNL     1       5.128   4.601  19.272  0.00  0.00    +0.000 A 
ATOM     17  C   UNL     1       4.119   3.638  19.408  0.00  0.00    +0.000 A 
ATOM     18  C   UNL     1       2.955   3.735  18.650  0.00  0.00    +0.000 A 
ATOM     19 CL   UNL     1       1.728   2.543  18.813  0.00  0.00    +0.000 Cl
ATOM     20  C   UNL     1       2.788   4.791  17.758  0.00  0.00    +0.000 A 
ATOM     21  C   UNL     1       3.797   5.751  17.622  0.00  0.00    +0.000 A 
ENDBRANCH  14  15
ENDBRANCH  13  14
ENDBRANCH   2  13
TORSDOF 5
ENDMDL
MODEL 8
REMARK VINA RESULT:      -6.8      5.777      7.051
REMARK  Name = 
REMARK  5 active torsions:
REMARK  status: ('A' for Active; 'I' for Inactive)
REMARK    1  A    between atoms: C_2  and  C_3
REMARK    2  A    between atoms: C_3  and  O_4
REMARK    3  A    between atoms: O_4  and  C_5
REMARK    4  A    between atoms: N_12  and  N_13
REMARK    5  A    between atoms: C_14  and  C_15
REMARK                            x       y       z     vdW  Elec       q    Type
REMARK                         _______ _______ _______ _____ _____    ______ ____
ROOT
ATOM      1  O   UNL     1       7.032   7.041  16.884  0.00  0.00    +0.000 OA
ATOM      2  C   UNL     1       7.521   6.980  18.011  0.00  0.00    +0.000 C 
ATOM      3  N   UNL     1       7.323   5.940  18.912  0.00  0.00    +0.000 N 
ATOM      4  H   UNL     1       7.709   5.989  19.848  0.00  0.00    +0.000 HD
ENDROOT
BRANCH   3   5
ATOM      5  N   UNL     1       6.582   4.851  18.541  0.00  0.00    +0.000 NA
ATOM      6  C   UNL     1       5.354   4.840  18.950  0.00  0.00    +0.000 C 
BRANCH   6   7
ATOM      7  C   UNL     1       4.492   3.737  18.619  0.00  0.00    +0.000 A 
ATOM      8  C   UNL     1       3.414   3.702  17.752  0.00  0.00    +0.000 A 
ATOM      9  C   UNL     1       2.888   2.387  17.765  0.00  0.00    +0.000 A 
ATOM     10  C   UNL     1       3.654   1.650  18.637  0.00  0.00    +0.000 A 
ATOM     11  N   UNL     1       4.624   2.472  19.148  0.00  0.00    +0.000 N 
ATOM     12  H   UNL     1       5.341   2.212  19.815  0.00  0.00    +0.000 HD
ENDBRANCH   6   7
ENDBRANCH   3   5
BRANCH   2  13
ATOM     13  C   UNL     1       8.463   8.060  18.540  0.00  0.00    +0.000 C 
BRANCH  13  14
ATOM     14  O   UNL     1       8.263   9.287  17.849  0.00  0.00    +0.000 OA
BRANCH  14  15
ATOM     15  C   UNL     1       8.817  10.405  18.414  0.00  0.00    +0.000 A 
ATOM     16  C   UNL     1       8.844  11.681  17.845  0.00  0.00    +0.000 A 
ATOM     17  C   UNL     1       9.468  12.741  18.517  0.00  0.00    +0.000 A 
ATOM     18  C   UNL     1      10.061  12.526  19.758  0.00  0.00    +0.000 A 
ATOM     19 CL   UNL     1      10.835  13.829  20.571  0.00  0.00    +0.000 Cl
ATOM     20  C   UNL     1      10.032  11.261  20.338  0.00  0.00    +0.000 A 
ATOM     21  C   UNL     1       9.411  10.204  19.665  0.00  0.00    +0.000 A 
ENDBRANCH  14  15
ENDBRANCH  13  14
ENDBRANCH   2  13
TORSDOF 5
ENDMDL
MODEL 9
REMARK VINA RESULT:      -6.8      5.024      7.772
REMARK  Name = 
REMARK  5 active torsions:
REMARK  status: ('A' for Active; 'I' for Inactive)
REMARK    1  A    between atoms: C_2  and  C_3
REMARK    2  A    between atoms: C_3  and  O_4
REMARK    3  A    between atoms: O_4  and  C_5
REMARK    4  A    between atoms: N_12  and  N_13
REMARK    5  A    between atoms: C_14  and  C_15
REMARK                            x       y       z     vdW  Elec       q    Type
REMARK                         _______ _______ _______ _____ _____    ______ ____
ROOT
ATOM      1  O   UNL     1       7.752   5.910  18.551  0.00  0.00    +0.000 OA
ATOM      2  C   UNL     1       7.137   6.492  17.659  0.00  0.00    +0.000 C 
ATOM      3  N   UNL     1       7.392   7.790  17.230  0.00  0.00    +0.000 N 
ATOM      4  H   UNL     1       6.802   8.227  16.530  0.00  0.00    +0.000 HD
ENDROOT
BRANCH   3   5
ATOM      5  N   UNL     1       8.432   8.494  17.773  0.00  0.00    +0.000 NA
ATOM      6  C   UNL     1       8.162   9.706  18.139  0.00  0.00    +0.000 C 
BRANCH   6   7
ATOM      7  C   UNL     1       9.187  10.532  18.717  0.00  0.00    +0.000 A 
ATOM      8  C   UNL     1       9.455  10.787  20.050  0.00  0.00    +0.000 A 
ATOM      9  C   UNL     1      10.566  11.663  20.111  0.00  0.00    +0.000 A 
ATOM     10  C   UNL     1      10.951  11.925  18.817  0.00  0.00    +0.000 A 
ATOM     11  N   UNL     1      10.114  11.235  17.980  0.00  0.00    +0.000 N 
ATOM     12  H   UNL     1      10.152  11.228  16.967  0.00  0.00    +0.000 HD
ENDBRANCH   6   7
ENDBRANCH   3   5
BRANCH   2  13
ATOM     13  C   UNL     1       6.019   5.810  16.874  0.00  0.00    +0.000 C 
BRANCH  13  14
ATOM     14  O   UNL     1       5.837   4.471  17.314  0.00  0.00    +0.000 OA
BRANCH  14  15
ATOM     15  C   UNL     1       4.633   4.176  17.896  0.00  0.00    +0.000 A 
ATOM     16  C   UNL     1       3.374   4.469  17.365  0.00  0.00    +0.000 A 
ATOM     17  C   UNL     1       2.213   4.137  18.075  0.00  0.00    +0.000 A 
ATOM     18  C   UNL     1       2.309   3.510  19.315  0.00  0.00    +0.000 A 
ATOM     19 CL   UNL     1       0.880   3.117  20.186  0.00  0.00    +0.000 Cl
ATOM     20  C   UNL     1       3.558   3.207  19.850  0.00  0.00    +0.000 A 
ATOM     21  C   UNL     1       4.716   3.541  19.140  0.00  0.00    +0.000 A 
ENDBRANCH  14  15
ENDBRANCH  13  14
ENDBRANCH   2  13
TORSDOF 5
ENDMDL
