MODEL 1
REMARK VINA RESULT:      -8.6      0.000      0.000
REMARK  Name = 
REMARK  7 active torsions:
REMARK  status: ('A' for Active; 'I' for Inactive)
REMARK    1  A    between atoms: C_1  and  O_2
REMARK    2  A    between atoms: O_2  and  C_3
REMARK    3  A    between atoms: C_6  and  C_7
REMARK    4  A    between atoms: N_9  and  C_10
REMARK    5  A    between atoms: C_26  and  O_27
REMARK    6  A    between atoms: O_27  and  C_28
REMARK    7  A    between atoms: C_28  and  C_29
REMARK                            x       y       z     vdW  Elec       q    Type
REMARK                         _______ _______ _______ _____ _____    ______ ____
ROOT
ATOM      1  C   UNL     1       2.505   6.576  19.193  0.00  0.00    +0.000 C 
ATOM      2  N   UNL     1       3.375   6.747  18.226  0.00  0.00    +0.000 NA
ATOM      3  N   UNL     1       3.982   5.648  17.637  0.00  0.00    +0.000 N 
ATOM      4  C   UNL     1       4.053   4.399  18.263  0.00  0.00    +0.000 C 
ATOM      5  O   UNL     1       4.605   3.415  17.775  0.00  0.00    +0.000 OA
ATOM      6  C   UNL     1       3.455   4.379  19.652  0.00  0.00    +0.000 C 
ATOM      7  C   UNL     1       3.341   2.929  20.171  0.00  0.00    +0.000 C 
ATOM      8  C   UNL     1       2.420   2.885  21.373  0.00  0.00    +0.000 C 
ATOM      9  C   UNL     1       1.209   3.430  21.134  0.00  0.00    +0.000 C 
ATOM     10  C   UNL     1       1.274   4.921  20.864  0.00  0.00    +0.000 C 
ATOM     11  C   UNL     1       2.116   5.154  19.601  0.00  0.00    +0.000 C 
ENDROOT
BRANCH   3  12
ATOM     12  C   UNL     1       4.773   5.866  16.403  0.00  0.00    +0.000 C 
ATOM     13  C   UNL     1       6.212   6.332  16.683  0.00  0.00    +0.000 C 
ATOM     14  C   UNL     1       7.290   5.251  16.649  0.00  0.00    +0.000 C 
ATOM     15  C   UNL     1       7.813   4.972  15.238  0.00  0.00    +0.000 C 
ATOM     16  C   UNL     1       6.868   4.197  14.325  0.00  0.00    +0.000 C 
ATOM     17  C   UNL     1       5.467   4.786  14.174  0.00  0.00    +0.000 C 
ATOM     18  C   UNL     1       4.627   4.671  15.446  0.00  0.00    +0.000 C 
ENDBRANCH   3  12
BRANCH   1  22
ATOM     19  C   UNL     1       0.290   9.790  21.040  0.00  0.00    +0.000 A 
ATOM     20  C   UNL     1       0.956   8.820  21.783  0.00  0.00    +0.000 A 
ATOM     21  C   UNL     1       1.747   7.862  21.146  0.00  0.00    +0.000 A 
ATOM     22  C   UNL     1       1.861   7.823  19.750  0.00  0.00    +0.000 A 
ATOM     23  C   UNL     1       1.288   8.873  19.021  0.00  0.00    +0.000 A 
ATOM     24  C   UNL     1       0.578   9.908  19.668  0.00  0.00    +0.000 A 
BRANCH  19  26
ATOM     25  C   UNL     1      -0.932  10.575  22.961  0.00  0.00    +0.000 C 
ATOM     26  O   UNL     1      -0.671  10.613  21.565  0.00  0.00    +0.000 OA
ENDBRANCH  19  26
BRANCH  24  27
ATOM     27  O   UNL     1       0.221  10.968  18.856  0.00  0.00    +0.000 OA
BRANCH  27  28
ATOM     28  C   UNL     1      -1.191  11.094  18.598  0.00  0.00    +0.000 C 
BRANCH  28  29
ATOM     29  C   UNL     1      -1.772   9.960  17.805  0.00  0.00    +0.000 C 
ATOM     30  C   UNL     1      -3.259   9.912  17.555  0.00  0.00    +0.000 C 
ATOM     31  C   UNL     1      -2.304  10.051  16.401  0.00  0.00    +0.000 C 
ENDBRANCH  28  29
ENDBRANCH  27  28
ENDBRANCH  24  27
ENDBRANCH   1  22
TORSDOF 6
ENDMDL
MODEL 2
REMARK VINA RESULT:      -8.3      1.723      2.837
REMARK  Name = 
REMARK  7 active torsions:
REMARK  status: ('A' for Active; 'I' for Inactive)
REMARK    1  A    between atoms: C_1  and  O_2
REMARK    2  A    between atoms: O_2  and  C_3
REMARK    3  A    between atoms: C_6  and  C_7
REMARK    4  A    between atoms: N_9  and  C_10
REMARK    5  A    between atoms: C_26  and  O_27
REMARK    6  A    between atoms: O_27  and  C_28
REMARK    7  A    between atoms: C_28  and  C_29
REMARK                            x       y       z     vdW  Elec       q    Type
REMARK                         _______ _______ _______ _____ _____    ______ ____
ROOT
ATOM      1  C   UNL     1       2.903   5.836  19.086  0.00  0.00    +0.000 C 
ATOM      2  N   UNL     1       4.064   5.784  18.480  0.00  0.00    +0.000 NA
ATOM      3  N   UNL     1       4.738   4.576  18.377  0.00  0.00    +0.000 N 
ATOM      4  C   UNL     1       4.479   3.493  19.222  0.00  0.00    +0.000 C 
ATOM      5  O   UNL     1       5.077   2.420  19.169  0.00  0.00    +0.000 OA
ATOM      6  C   UNL     1       3.438   3.781  20.281  0.00  0.00    +0.000 C 
ATOM      7  C   UNL     1       3.025   2.479  21.003  0.00  0.00    +0.000 C 
ATOM      8  C   UNL     1       1.745   2.707  21.779  0.00  0.00    +0.000 C 
ATOM      9  C   UNL     1       0.744   3.201  21.021  0.00  0.00    +0.000 C 
ATOM     10  C   UNL     1       1.029   4.597  20.502  0.00  0.00    +0.000 C 
ATOM     11  C   UNL     1       2.273   4.541  19.603  0.00  0.00    +0.000 C 
ENDROOT
BRANCH   3  12
ATOM     12  C   UNL     1       5.923   4.513  17.489  0.00  0.00    +0.000 C 
ATOM     13  C   UNL     1       5.784   3.466  16.371  0.00  0.00    +0.000 C 
ATOM     14  C   UNL     1       5.344   3.990  15.006  0.00  0.00    +0.000 C 
ATOM     15  C   UNL     1       6.508   4.517  14.163  0.00  0.00    +0.000 C 
ATOM     16  C   UNL     1       7.085   5.859  14.602  0.00  0.00    +0.000 C 
ATOM     17  C   UNL     1       7.517   5.944  16.065  0.00  0.00    +0.000 C 
ATOM     18  C   UNL     1       6.340   5.924  17.041  0.00  0.00    +0.000 C 
ENDBRANCH   3  12
BRANCH   1  22
ATOM     19  C   UNL     1       1.392   9.877  18.880  0.00  0.00    +0.000 A 
ATOM     20  C   UNL     1       1.603   9.100  17.745  0.00  0.00    +0.000 A 
ATOM     21  C   UNL     1       1.990   7.764  17.864  0.00  0.00    +0.000 A 
ATOM     22  C   UNL     1       2.217   7.182  19.118  0.00  0.00    +0.000 A 
ATOM     23  C   UNL     1       1.886   7.932  20.254  0.00  0.00    +0.000 A 
ATOM     24  C   UNL     1       1.389   9.248  20.139  0.00  0.00    +0.000 A 
BRANCH  19  26
ATOM     25  C   UNL     1       2.276  12.045  18.318  0.00  0.00    +0.000 C 
ATOM     26  O   UNL     1       1.233  11.237  18.844  0.00  0.00    +0.000 OA
ENDBRANCH  19  26
BRANCH  24  27
ATOM     27  O   UNL     1       0.936   9.808  21.319  0.00  0.00    +0.000 OA
BRANCH  27  28
ATOM     28  C   UNL     1      -0.460  10.162  21.334  0.00  0.00    +0.000 C 
BRANCH  28  29
ATOM     29  C   UNL     1      -0.761  11.434  22.073  0.00  0.00    +0.000 C 
ATOM     30  C   UNL     1      -1.979  12.240  21.700  0.00  0.00    +0.000 C 
ATOM     31  C   UNL     1      -1.871  11.628  23.071  0.00  0.00    +0.000 C 
ENDBRANCH  28  29
ENDBRANCH  27  28
ENDBRANCH  24  27
ENDBRANCH   1  22
TORSDOF 6
ENDMDL
MODEL 3
REMARK VINA RESULT:      -8.2      2.000      3.229
REMARK  Name = 
REMARK  7 active torsions:
REMARK  status: ('A' for Active; 'I' for Inactive)
REMARK    1  A    between atoms: C_1  and  O_2
REMARK    2  A    between atoms: O_2  and  C_3
REMARK    3  A    between atoms: C_6  and  C_7
REMARK    4  A    between atoms: N_9  and  C_10
REMARK    5  A    between atoms: C_26  and  O_27
REMARK    6  A    between atoms: O_27  and  C_28
REMARK    7  A    between atoms: C_28  and  C_29
REMARK                            x       y       z     vdW  Elec       q    Type
REMARK                         _______ _______ _______ _____ _____    ______ ____
ROOT
ATOM      1  C   UNL     1       2.623   6.114  19.585  0.00  0.00    +0.000 C 
ATOM      2  N   UNL     1       3.881   6.286  19.254  0.00  0.00    +0.000 NA
ATOM      3  N   UNL     1       4.718   5.188  19.119  0.00  0.00    +0.000 N 
ATOM      4  C   UNL     1       4.439   3.950  19.706  0.00  0.00    +0.000 C 
ATOM      5  O   UNL     1       5.175   2.968  19.623  0.00  0.00    +0.000 OA
ATOM      6  C   UNL     1       3.175   3.939  20.536  0.00  0.00    +0.000 C 
ATOM      7  C   UNL     1       2.803   2.494  20.936  0.00  0.00    +0.000 C 
ATOM      8  C   UNL     1       1.372   2.452  21.432  0.00  0.00    +0.000 C 
ATOM      9  C   UNL     1       0.490   2.975  20.555  0.00  0.00    +0.000 C 
ATOM     10  C   UNL     1       0.685   4.463  20.335  0.00  0.00    +0.000 C 
ATOM     11  C   UNL     1       2.081   4.691  19.741  0.00  0.00    +0.000 C 
ENDROOT
BRANCH   3  12
ATOM     12  C   UNL     1       6.056   5.403  18.521  0.00  0.00    +0.000 C 
ATOM     13  C   UNL     1       6.007   6.184  17.197  0.00  0.00    +0.000 C 
ATOM     14  C   UNL     1       6.298   7.681  17.285  0.00  0.00    +0.000 C 
ATOM     15  C   UNL     1       7.793   8.003  17.247  0.00  0.00    +0.000 C 
ATOM     16  C   UNL     1       8.571   7.677  18.518  0.00  0.00    +0.000 C 
ATOM     17  C   UNL     1       8.435   6.243  19.024  0.00  0.00    +0.000 C 
ATOM     18  C   UNL     1       7.044   5.929  19.576  0.00  0.00    +0.000 C 
ENDBRANCH   3  12
BRANCH   1  22
ATOM     19  C   UNL     1       0.673   9.964  19.762  0.00  0.00    +0.000 A 
ATOM     20  C   UNL     1       1.357   9.524  18.632  0.00  0.00    +0.000 A 
ATOM     21  C   UNL     1       1.880   8.231  18.581  0.00  0.00    +0.000 A 
ATOM     22  C   UNL     1       1.771   7.358  19.671  0.00  0.00    +0.000 A 
ATOM     23  C   UNL     1       0.978   7.764  20.753  0.00  0.00    +0.000 A 
ATOM     24  C   UNL     1       0.354   9.030  20.765  0.00  0.00    +0.000 A 
BRANCH  19  26
ATOM     25  C   UNL     1       1.316  12.284  19.807  0.00  0.00    +0.000 C 
ATOM     26  O   UNL     1       0.332  11.273  19.974  0.00  0.00    +0.000 OA
ENDBRANCH  19  26
BRANCH  24  27
ATOM     27  O   UNL     1      -0.538   9.232  21.801  0.00  0.00    +0.000 OA
BRANCH  27  28
ATOM     28  C   UNL     1      -0.161  10.253  22.744  0.00  0.00    +0.000 C 
BRANCH  28  29
ATOM     29  C   UNL     1      -1.281  11.175  23.130  0.00  0.00    +0.000 C 
ATOM     30  C   UNL     1      -1.099  12.666  22.995  0.00  0.00    +0.000 C 
ATOM     31  C   UNL     1      -2.144  11.956  22.177  0.00  0.00    +0.000 C 
ENDBRANCH  28  29
ENDBRANCH  27  28
ENDBRANCH  24  27
ENDBRANCH   1  22
TORSDOF 6
ENDMDL
MODEL 4
REMARK VINA RESULT:      -8.2      6.858     10.420
REMARK  Name = 
REMARK  7 active torsions:
REMARK  status: ('A' for Active; 'I' for Inactive)
REMARK    1  A    between atoms: C_1  and  O_2
REMARK    2  A    between atoms: O_2  and  C_3
REMARK    3  A    between atoms: C_6  and  C_7
REMARK    4  A    between atoms: N_9  and  C_10
REMARK    5  A    between atoms: C_26  and  O_27
REMARK    6  A    between atoms: O_27  and  C_28
REMARK    7  A    between atoms: C_28  and  C_29
REMARK                            x       y       z     vdW  Elec       q    Type
REMARK                         _______ _______ _______ _____ _____    ______ ____
ROOT
ATOM      1  C   UNL     1      -1.533  12.476  19.979  0.00  0.00    +0.000 C 
ATOM      2  N   UNL     1      -2.202  12.544  21.106  0.00  0.00    +0.000 NA
ATOM      3  N   UNL     1      -1.771  13.391  22.117  0.00  0.00    +0.000 N 
ATOM      4  C   UNL     1      -0.458  13.866  22.194  0.00  0.00    +0.000 C 
ATOM      5  O   UNL     1      -0.044  14.598  23.092  0.00  0.00    +0.000 OA
ATOM      6  C   UNL     1       0.449  13.333  21.108  0.00  0.00    +0.000 C 
ATOM      7  C   UNL     1       1.795  14.090  21.107  0.00  0.00    +0.000 C 
ATOM      8  C   UNL     1       2.535  13.819  19.813  0.00  0.00    +0.000 C 
ATOM      9  C   UNL     1       1.802  14.094  18.714  0.00  0.00    +0.000 C 
ATOM     10  C   UNL     1       0.597  13.186  18.564  0.00  0.00    +0.000 C 
ATOM     11  C   UNL     1      -0.328  13.395  19.771  0.00  0.00    +0.000 C 
ENDROOT
BRANCH   3  12
ATOM     12  C   UNL     1      -2.674  13.615  23.270  0.00  0.00    +0.000 C 
ATOM     13  C   UNL     1      -3.578  14.847  23.098  0.00  0.00    +0.000 C 
ATOM     14  C   UNL     1      -5.000  14.579  22.607  0.00  0.00    +0.000 C 
ATOM     15  C   UNL     1      -5.964  14.214  23.738  0.00  0.00    +0.000 C 
ATOM     16  C   UNL     1      -5.796  12.816  24.323  0.00  0.00    +0.000 C 
ATOM     17  C   UNL     1      -4.390  12.467  24.805  0.00  0.00    +0.000 C 
ATOM     18  C   UNL     1      -3.385  12.309  23.663  0.00  0.00    +0.000 C 
ENDBRANCH   3  12
BRANCH   1  22
ATOM     19  C   UNL     1      -2.668   9.988  16.636  0.00  0.00    +0.000 A 
ATOM     20  C   UNL     1      -1.519   9.753  17.385  0.00  0.00    +0.000 A 
ATOM     21  C   UNL     1      -1.248  10.517  18.522  0.00  0.00    +0.000 A 
ATOM     22  C   UNL     1      -2.094  11.561  18.916  0.00  0.00    +0.000 A 
ATOM     23  C   UNL     1      -3.307  11.711  18.230  0.00  0.00    +0.000 A 
ATOM     24  C   UNL     1      -3.640  10.869  17.146  0.00  0.00    +0.000 A 
BRANCH  19  26
ATOM     25  C   UNL     1      -3.097  10.298  14.288  0.00  0.00    +0.000 C 
ATOM     26  O   UNL     1      -2.887   9.440  15.400  0.00  0.00    +0.000 OA
ENDBRANCH  19  26
BRANCH  24  27
ATOM     27  O   UNL     1      -4.932  11.005  16.676  0.00  0.00    +0.000 OA
BRANCH  27  28
ATOM     28  C   UNL     1      -5.635  12.172  17.145  0.00  0.00    +0.000 C 
BRANCH  28  29
ATOM     29  C   UNL     1      -6.912  11.866  17.873  0.00  0.00    +0.000 C 
ATOM     30  C   UNL     1      -6.871  11.554  19.348  0.00  0.00    +0.000 C 
ATOM     31  C   UNL     1      -7.603  12.773  18.855  0.00  0.00    +0.000 C 
ENDBRANCH  28  29
ENDBRANCH  27  28
ENDBRANCH  24  27
ENDBRANCH   1  22
TORSDOF 6
ENDMDL
MODEL 5
REMARK VINA RESULT:      -8.2      0.728      1.049
REMARK  Name = 
REMARK  7 active torsions:
REMARK  status: ('A' for Active; 'I' for Inactive)
REMARK    1  A    between atoms: C_1  and  O_2
REMARK    2  A    between atoms: O_2  and  C_3
REMARK    3  A    between atoms: C_6  and  C_7
REMARK    4  A    between atoms: N_9  and  C_10
REMARK    5  A    between atoms: C_26  and  O_27
REMARK    6  A    between atoms: O_27  and  C_28
REMARK    7  A    between atoms: C_28  and  C_29
REMARK                            x       y       z     vdW  Elec       q    Type
REMARK                         _______ _______ _______ _____ _____    ______ ____
ROOT
ATOM      1  C   UNL     1       2.546   6.491  19.244  0.00  0.00    +0.000 C 
ATOM      2  N   UNL     1       3.401   6.667  18.265  0.00  0.00    +0.000 NA
ATOM      3  N   UNL     1       3.986   5.569  17.651  0.00  0.00    +0.000 N 
ATOM      4  C   UNL     1       4.054   4.312  18.260  0.00  0.00    +0.000 C 
ATOM      5  O   UNL     1       4.588   3.328  17.749  0.00  0.00    +0.000 OA
ATOM      6  C   UNL     1       3.480   4.279  19.658  0.00  0.00    +0.000 C 
ATOM      7  C   UNL     1       3.361   2.823  20.160  0.00  0.00    +0.000 C 
ATOM      8  C   UNL     1       2.460   2.773  21.377  0.00  0.00    +0.000 C 
ATOM      9  C   UNL     1       1.251   3.334  21.167  0.00  0.00    +0.000 C 
ATOM     10  C   UNL     1       1.327   4.827  20.915  0.00  0.00    +0.000 C 
ATOM     11  C   UNL     1       2.149   5.068  19.641  0.00  0.00    +0.000 C 
ENDROOT
BRANCH   3  12
ATOM     12  C   UNL     1       4.757   5.796  16.406  0.00  0.00    +0.000 C 
ATOM     13  C   UNL     1       6.189   6.295  16.666  0.00  0.00    +0.000 C 
ATOM     14  C   UNL     1       7.290   5.238  16.627  0.00  0.00    +0.000 C 
ATOM     15  C   UNL     1       7.803   4.960  15.213  0.00  0.00    +0.000 C 
ATOM     16  C   UNL     1       6.865   4.158  14.316  0.00  0.00    +0.000 C 
ATOM     17  C   UNL     1       5.450   4.715  14.177  0.00  0.00    +0.000 C 
ATOM     18  C   UNL     1       4.627   4.590  15.460  0.00  0.00    +0.000 C 
ENDBRANCH   3  12
BRANCH   1  22
ATOM     19  C   UNL     1       0.378   9.706  21.147  0.00  0.00    +0.000 A 
ATOM     20  C   UNL     1       0.991   8.688  21.871  0.00  0.00    +0.000 A 
ATOM     21  C   UNL     1       1.771   7.729  21.222  0.00  0.00    +0.000 A 
ATOM     22  C   UNL     1       1.925   7.738  19.830  0.00  0.00    +0.000 A 
ATOM     23  C   UNL     1       1.407   8.832  19.123  0.00  0.00    +0.000 A 
ATOM     24  C   UNL     1       0.711   9.865  19.788  0.00  0.00    +0.000 A 
BRANCH  19  26
ATOM     25  C   UNL     1      -0.880  10.455  23.058  0.00  0.00    +0.000 C 
ATOM     26  O   UNL     1      -0.571  10.540  21.674  0.00  0.00    +0.000 OA
ENDBRANCH  19  26
BRANCH  24  27
ATOM     27  O   UNL     1       0.411  10.964  19.007  0.00  0.00    +0.000 OA
BRANCH  27  28
ATOM     28  C   UNL     1      -0.842  10.891  18.300  0.00  0.00    +0.000 C 
BRANCH  28  29
ATOM     29  C   UNL     1      -1.702  12.113  18.450  0.00  0.00    +0.000 C 
ATOM     30  C   UNL     1      -2.835  12.107  19.445  0.00  0.00    +0.000 C 
ATOM     31  C   UNL     1      -1.685  13.061  19.618  0.00  0.00    +0.000 C 
ENDBRANCH  28  29
ENDBRANCH  27  28
ENDBRANCH  24  27
ENDBRANCH   1  22
TORSDOF 6
ENDMDL
MODEL 6
REMARK VINA RESULT:      -8.2      1.453      2.516
REMARK  Name = 
REMARK  7 active torsions:
REMARK  status: ('A' for Active; 'I' for Inactive)
REMARK    1  A    between atoms: C_1  and  O_2
REMARK    2  A    between atoms: O_2  and  C_3
REMARK    3  A    between atoms: C_6  and  C_7
REMARK    4  A    between atoms: N_9  and  C_10
REMARK    5  A    between atoms: C_26  and  O_27
REMARK    6  A    between atoms: O_27  and  C_28
REMARK    7  A    between atoms: C_28  and  C_29
REMARK                            x       y       z     vdW  Elec       q    Type
REMARK                         _______ _______ _______ _____ _____    ______ ____
ROOT
ATOM      1  C   UNL     1       2.478   6.763  19.044  0.00  0.00    +0.000 C 
ATOM      2  N   UNL     1       3.368   6.897  18.091  0.00  0.00    +0.000 NA
ATOM      3  N   UNL     1       4.003   5.776  17.574  0.00  0.00    +0.000 N 
ATOM      4  C   UNL     1       4.074   4.563  18.266  0.00  0.00    +0.000 C 
ATOM      5  O   UNL     1       4.651   3.563  17.843  0.00  0.00    +0.000 OA
ATOM      6  C   UNL     1       3.443   4.606  19.640  0.00  0.00    +0.000 C 
ATOM      7  C   UNL     1       3.334   3.183  20.231  0.00  0.00    +0.000 C 
ATOM      8  C   UNL     1       2.384   3.189  21.410  0.00  0.00    +0.000 C 
ATOM      9  C   UNL     1       1.173   3.704  21.115  0.00  0.00    +0.000 C 
ATOM     10  C   UNL     1       1.226   5.180  20.769  0.00  0.00    +0.000 C 
ATOM     11  C   UNL     1       2.096   5.359  19.517  0.00  0.00    +0.000 C 
ENDROOT
BRANCH   3  12
ATOM     12  C   UNL     1       4.821   5.942  16.350  0.00  0.00    +0.000 C 
ATOM     13  C   UNL     1       6.269   6.372  16.645  0.00  0.00    +0.000 C 
ATOM     14  C   UNL     1       7.314   5.259  16.656  0.00  0.00    +0.000 C 
ATOM     15  C   UNL     1       7.853   4.931  15.262  0.00  0.00    +0.000 C 
ATOM     16  C   UNL     1       6.902   4.163  14.350  0.00  0.00    +0.000 C 
ATOM     17  C   UNL     1       5.522   4.789  14.160  0.00  0.00    +0.000 C 
ATOM     18  C   UNL     1       4.657   4.729  15.420  0.00  0.00    +0.000 C 
ENDBRANCH   3  12
BRANCH   1  22
ATOM     19  C   UNL     1       0.977  10.661  20.146  0.00  0.00    +0.000 A 
ATOM     20  C   UNL     1       1.091  10.252  18.820  0.00  0.00    +0.000 A 
ATOM     21  C   UNL     1       1.480   8.947  18.514  0.00  0.00    +0.000 A 
ATOM     22  C   UNL     1       1.804   8.029  19.521  0.00  0.00    +0.000 A 
ATOM     23  C   UNL     1       1.571   8.409  20.849  0.00  0.00    +0.000 A 
ATOM     24  C   UNL     1       1.072   9.693  21.163  0.00  0.00    +0.000 A 
BRANCH  19  26
ATOM     25  C   UNL     1       1.893  12.881  20.316  0.00  0.00    +0.000 C 
ATOM     26  O   UNL     1       0.823  11.969  20.520  0.00  0.00    +0.000 OA
ENDBRANCH  19  26
BRANCH  24  27
ATOM     27  O   UNL     1       0.720   9.876  22.486  0.00  0.00    +0.000 OA
BRANCH  27  28
ATOM     28  C   UNL     1      -0.695   9.977  22.735  0.00  0.00    +0.000 C 
BRANCH  28  29
ATOM     29  C   UNL     1      -1.159  11.365  23.074  0.00  0.00    +0.000 C 
ATOM     30  C   UNL     1      -2.008  12.127  22.088  0.00  0.00    +0.000 C 
ATOM     31  C   UNL     1      -2.566  11.757  23.436  0.00  0.00    +0.000 C 
ENDBRANCH  28  29
ENDBRANCH  27  28
ENDBRANCH  24  27
ENDBRANCH   1  22
TORSDOF 6
ENDMDL
MODEL 7
REMARK VINA RESULT:      -8.1      1.436      2.087
REMARK  Name = 
REMARK  7 active torsions:
REMARK  status: ('A' for Active; 'I' for Inactive)
REMARK    1  A    between atoms: C_1  and  O_2
REMARK    2  A    between atoms: O_2  and  C_3
REMARK    3  A    between atoms: C_6  and  C_7
REMARK    4  A    between atoms: N_9  and  C_10
REMARK    5  A    between atoms: C_26  and  O_27
REMARK    6  A    between atoms: O_27  and  C_28
REMARK    7  A    between atoms: C_28  and  C_29
REMARK                            x       y       z     vdW  Elec       q    Type
REMARK                         _______ _______ _______ _____ _____    ______ ____
ROOT
ATOM      1  C   UNL     1       2.513   6.528  19.173  0.00  0.00    +0.000 C 
ATOM      2  N   UNL     1       3.372   6.694  18.195  0.00  0.00    +0.000 NA
ATOM      3  N   UNL     1       3.978   5.591  17.612  0.00  0.00    +0.000 N 
ATOM      4  C   UNL     1       4.061   4.349  18.250  0.00  0.00    +0.000 C 
ATOM      5  O   UNL     1       4.614   3.363  17.766  0.00  0.00    +0.000 OA
ATOM      6  C   UNL     1       3.477   4.341  19.645  0.00  0.00    +0.000 C 
ATOM      7  C   UNL     1       3.376   2.895  20.180  0.00  0.00    +0.000 C 
ATOM      8  C   UNL     1       2.467   2.859  21.391  0.00  0.00    +0.000 C 
ATOM      9  C   UNL     1       1.251   3.396  21.159  0.00  0.00    +0.000 C 
ATOM     10  C   UNL     1       1.306   4.885  20.873  0.00  0.00    +0.000 C 
ATOM     11  C   UNL     1       2.134   5.108  19.600  0.00  0.00    +0.000 C 
ENDROOT
BRANCH   3  12
ATOM     12  C   UNL     1       4.755   5.801  16.368  0.00  0.00    +0.000 C 
ATOM     13  C   UNL     1       6.186   6.303  16.627  0.00  0.00    +0.000 C 
ATOM     14  C   UNL     1       7.287   5.244  16.608  0.00  0.00    +0.000 C 
ATOM     15  C   UNL     1       7.806   4.947  15.199  0.00  0.00    +0.000 C 
ATOM     16  C   UNL     1       6.872   4.134  14.310  0.00  0.00    +0.000 C 
ATOM     17  C   UNL     1       5.458   4.689  14.157  0.00  0.00    +0.000 C 
ATOM     18  C   UNL     1       4.629   4.583  15.437  0.00  0.00    +0.000 C 
ENDBRANCH   3  12
BRANCH   1  22
ATOM     19  C   UNL     1       0.229   9.765  20.893  0.00  0.00    +0.000 A 
ATOM     20  C   UNL     1       0.666   8.679  21.644  0.00  0.00    +0.000 A 
ATOM     21  C   UNL     1       1.492   7.709  21.072  0.00  0.00    +0.000 A 
ATOM     22  C   UNL     1       1.868   7.778  19.724  0.00  0.00    +0.000 A 
ATOM     23  C   UNL     1       1.526   8.934  19.010  0.00  0.00    +0.000 A 
ATOM     24  C   UNL     1       0.783   9.971  19.615  0.00  0.00    +0.000 A 
BRANCH  19  26
ATOM     25  C   UNL     1      -0.737  11.096  22.651  0.00  0.00    +0.000 C 
ATOM     26  O   UNL     1      -0.751  10.626  21.311  0.00  0.00    +0.000 OA
ENDBRANCH  19  26
BRANCH  24  27
ATOM     27  O   UNL     1       0.668  11.124  18.862  0.00  0.00    +0.000 OA
BRANCH  27  28
ATOM     28  C   UNL     1       1.916  11.714  18.450  0.00  0.00    +0.000 C 
BRANCH  28  29
ATOM     29  C   UNL     1       2.214  13.034  19.100  0.00  0.00    +0.000 C 
ATOM     30  C   UNL     1       3.044  14.056  18.364  0.00  0.00    +0.000 C 
ATOM     31  C   UNL     1       1.612  14.358  18.716  0.00  0.00    +0.000 C 
ENDBRANCH  28  29
ENDBRANCH  27  28
ENDBRANCH  24  27
ENDBRANCH   1  22
TORSDOF 6
ENDMDL
MODEL 8
REMARK VINA RESULT:      -8.1      4.463      8.752
REMARK  Name = 
REMARK  7 active torsions:
REMARK  status: ('A' for Active; 'I' for Inactive)
REMARK    1  A    between atoms: C_1  and  O_2
REMARK    2  A    between atoms: O_2  and  C_3
REMARK    3  A    between atoms: C_6  and  C_7
REMARK    4  A    between atoms: N_9  and  C_10
REMARK    5  A    between atoms: C_26  and  O_27
REMARK    6  A    between atoms: O_27  and  C_28
REMARK    7  A    between atoms: C_28  and  C_29
REMARK                            x       y       z     vdW  Elec       q    Type
REMARK                         _______ _______ _______ _____ _____    ______ ____
ROOT
ATOM      1  C   UNL     1      -1.185  10.538  19.131  0.00  0.00    +0.000 C 
ATOM      2  N   UNL     1      -1.577  11.137  20.230  0.00  0.00    +0.000 NA
ATOM      3  N   UNL     1      -0.725  11.206  21.323  0.00  0.00    +0.000 N 
ATOM      4  C   UNL     1       0.356  10.336  21.493  0.00  0.00    +0.000 C 
ATOM      5  O   UNL     1       1.112  10.359  22.463  0.00  0.00    +0.000 OA
ATOM      6  C   UNL     1       0.475   9.291  20.406  0.00  0.00    +0.000 C 
ATOM      7  C   UNL     1       1.820   8.540  20.522  0.00  0.00    +0.000 C 
ATOM      8  C   UNL     1       2.093   7.777  19.243  0.00  0.00    +0.000 C 
ATOM      9  C   UNL     1       2.043   8.552  18.140  0.00  0.00    +0.000 C 
ATOM     10  C   UNL     1       0.657   9.104  17.867  0.00  0.00    +0.000 C 
ATOM     11  C   UNL     1       0.243   9.994  19.047  0.00  0.00    +0.000 C 
ENDROOT
BRANCH   3  12
ATOM     12  C   UNL     1      -1.111  12.085  22.452  0.00  0.00    +0.000 C 
ATOM     13  C   UNL     1      -0.502  13.494  22.355  0.00  0.00    +0.000 C 
ATOM     14  C   UNL     1      -1.407  14.582  21.781  0.00  0.00    +0.000 C 
ATOM     15  C   UNL     1      -2.323  15.213  22.831  0.00  0.00    +0.000 C 
ATOM     16  C   UNL     1      -3.492  14.348  23.292  0.00  0.00    +0.000 C 
ATOM     17  C   UNL     1      -3.120  12.956  23.801  0.00  0.00    +0.000 C 
ATOM     18  C   UNL     1      -2.628  12.024  22.693  0.00  0.00    +0.000 C 
ENDBRANCH   3  12
BRANCH   1  22
ATOM     19  C   UNL     1      -3.515  10.676  15.497  0.00  0.00    +0.000 A 
ATOM     20  C   UNL     1      -2.497   9.748  15.696  0.00  0.00    +0.000 A 
ATOM     21  C   UNL     1      -1.842   9.671  16.926  0.00  0.00    +0.000 A 
ATOM     22  C   UNL     1      -2.158  10.544  17.975  0.00  0.00    +0.000 A 
ATOM     23  C   UNL     1      -3.262  11.390  17.809  0.00  0.00    +0.000 A 
ATOM     24  C   UNL     1      -4.000  11.397  16.605  0.00  0.00    +0.000 A 
BRANCH  19  26
ATOM     25  C   UNL     1      -4.009   9.974  13.248  0.00  0.00    +0.000 C 
ATOM     26  O   UNL     1      -4.044  10.963  14.267  0.00  0.00    +0.000 OA
ENDBRANCH  19  26
BRANCH  24  27
ATOM     27  O   UNL     1      -5.164  12.141  16.637  0.00  0.00    +0.000 OA
BRANCH  27  28
ATOM     28  C   UNL     1      -5.679  12.417  17.953  0.00  0.00    +0.000 C 
BRANCH  28  29
ATOM     29  C   UNL     1      -6.893  11.611  18.316  0.00  0.00    +0.000 C 
ATOM     30  C   UNL     1      -6.725  10.293  19.029  0.00  0.00    +0.000 C 
ATOM     31  C   UNL     1      -7.444  11.430  19.705  0.00  0.00    +0.000 C 
ENDBRANCH  28  29
ENDBRANCH  27  28
ENDBRANCH  24  27
ENDBRANCH   1  22
TORSDOF 6
ENDMDL
MODEL 9
REMARK VINA RESULT:      -8.0      1.450      2.102
REMARK  Name = 
REMARK  7 active torsions:
REMARK  status: ('A' for Active; 'I' for Inactive)
REMARK    1  A    between atoms: C_1  and  O_2
REMARK    2  A    between atoms: O_2  and  C_3
REMARK    3  A    between atoms: C_6  and  C_7
REMARK    4  A    between atoms: N_9  and  C_10
REMARK    5  A    between atoms: C_26  and  O_27
REMARK    6  A    between atoms: O_27  and  C_28
REMARK    7  A    between atoms: C_28  and  C_29
REMARK                            x       y       z     vdW  Elec       q    Type
REMARK                         _______ _______ _______ _____ _____    ______ ____
ROOT
ATOM      1  C   UNL     1       2.667   6.333  19.716  0.00  0.00    +0.000 C 
ATOM      2  N   UNL     1       3.922   6.467  19.360  0.00  0.00    +0.000 NA
ATOM      3  N   UNL     1       4.673   5.346  19.038  0.00  0.00    +0.000 N 
ATOM      4  C   UNL     1       4.325   4.058  19.456  0.00  0.00    +0.000 C 
ATOM      5  O   UNL     1       4.986   3.052  19.206  0.00  0.00    +0.000 OA
ATOM      6  C   UNL     1       3.091   4.013  20.329  0.00  0.00    +0.000 C 
ATOM      7  C   UNL     1       2.628   2.554  20.538  0.00  0.00    +0.000 C 
ATOM      8  C   UNL     1       1.215   2.537  21.082  0.00  0.00    +0.000 C 
ATOM      9  C   UNL     1       0.345   3.237  20.324  0.00  0.00    +0.000 C 
ATOM     10  C   UNL     1       0.639   4.725  20.307  0.00  0.00    +0.000 C 
ATOM     11  C   UNL     1       2.029   4.943  19.693  0.00  0.00    +0.000 C 
ENDROOT
BRANCH   3  12
ATOM     12  C   UNL     1       6.004   5.554  18.420  0.00  0.00    +0.000 C 
ATOM     13  C   UNL     1       5.954   6.440  17.163  0.00  0.00    +0.000 C 
ATOM     14  C   UNL     1       6.310   7.912  17.360  0.00  0.00    +0.000 C 
ATOM     15  C   UNL     1       7.816   8.176  17.304  0.00  0.00    +0.000 C 
ATOM     16  C   UNL     1       8.611   7.720  18.523  0.00  0.00    +0.000 C 
ATOM     17  C   UNL     1       8.428   6.256  18.918  0.00  0.00    +0.000 C 
ATOM     18  C   UNL     1       7.039   5.956  19.484  0.00  0.00    +0.000 C 
ENDBRANCH   3  12
BRANCH   1  22
ATOM     19  C   UNL     1       0.096   9.637  20.780  0.00  0.00    +0.000 A 
ATOM     20  C   UNL     1       0.639   8.778  21.731  0.00  0.00    +0.000 A 
ATOM     21  C   UNL     1       1.550   7.790  21.352  0.00  0.00    +0.000 A 
ATOM     22  C   UNL     1       1.909   7.607  20.011  0.00  0.00    +0.000 A 
ATOM     23  C   UNL     1       1.454   8.550  19.080  0.00  0.00    +0.000 A 
ATOM     24  C   UNL     1       0.620   9.619  19.474  0.00  0.00    +0.000 A 
BRANCH  19  26
ATOM     25  C   UNL     1      -0.831  11.465  22.043  0.00  0.00    +0.000 C 
ATOM     26  O   UNL     1      -0.958  10.473  21.034  0.00  0.00    +0.000 OA
ENDBRANCH  19  26
BRANCH  24  27
ATOM     27  O   UNL     1       0.392  10.572  18.499  0.00  0.00    +0.000 OA
BRANCH  27  28
ATOM     28  C   UNL     1      -0.994  10.870  18.247  0.00  0.00    +0.000 C 
BRANCH  28  29
ATOM     29  C   UNL     1      -1.677   9.887  17.341  0.00  0.00    +0.000 C 
ATOM     30  C   UNL     1      -3.179   9.751  17.386  0.00  0.00    +0.000 C 
ATOM     31  C   UNL     1      -2.502  10.233  16.131  0.00  0.00    +0.000 C 
ENDBRANCH  28  29
ENDBRANCH  27  28
ENDBRANCH  24  27
ENDBRANCH   1  22
TORSDOF 6
ENDMDL
