MODEL 1
REMARK VINA RESULT:      -6.6      0.000      0.000
REMARK  Name = 
REMARK  9 active torsions:
REMARK  status: ('A' for Active; 'I' for Inactive)
REMARK    1  A    between atoms: C_1  and  C_2
REMARK    2  A    between atoms: C_2  and  C_3
REMARK    3  A    between atoms: C_2  and  N_4
REMARK    4  A    between atoms: N_4  and  C_5
REMARK    5  A    between atoms: N_4  and  C_14
REMARK    6  A    between atoms: C_5  and  C_6
REMARK    7  A    between atoms: C_7  and  C_8
REMARK    8  A    between atoms: C_14  and  C_15
REMARK    9  A    between atoms: C_14  and  C_16
REMARK                            x       y       z     vdW  Elec       q    Type
REMARK                         _______ _______ _______ _____ _____    ______ ____
ROOT
ATOM      1  C   UNL     1       5.157   6.301  15.971  0.00  0.00    +0.000 C 
ENDROOT
BRANCH   1   2
ATOM      2  C   UNL     1       4.261   5.626  16.932  0.00  0.00    +0.000 C 
ATOM      3  C   UNL     1       3.536   5.093  17.730  0.00  0.00    +0.000 C 
BRANCH   3   4
ATOM      4  C   UNL     1       2.679   4.479  18.699  0.00  0.00    +0.000 A 
ATOM      5  C   UNL     1       1.864   3.401  18.337  0.00  0.00    +0.000 A 
ATOM      6  C   UNL     1       1.009   2.822  19.277  0.00  0.00    +0.000 A 
ATOM      7  C   UNL     1       0.967   3.313  20.582  0.00  0.00    +0.000 A 
ATOM      8  C   UNL     1       1.783   4.385  20.948  0.00  0.00    +0.000 A 
ATOM      9  C   UNL     1       2.638   4.966  20.010  0.00  0.00    +0.000 A 
ENDBRANCH   3   4
ENDBRANCH   1   2
BRANCH   1  10
ATOM     10  N   UNL     1       6.606   5.986  16.148  0.00  0.00    +0.000 NA
BRANCH  10  12
ATOM     11  C   UNL     1       5.893   3.725  15.258  0.00  0.00    +0.000 C 
ATOM     12  C   UNL     1       6.994   4.817  15.292  0.00  0.00    +0.000 C 
ATOM     13  C   UNL     1       7.284   5.120  13.811  0.00  0.00    +0.000 C 
ENDBRANCH  10  12
BRANCH  10  14
ATOM     14  C   UNL     1       6.961   5.927  17.604  0.00  0.00    +0.000 C 
ATOM     15  C   UNL     1       7.763   4.693  18.059  0.00  0.00    +0.000 C 
ATOM     16  C   UNL     1       7.832   7.132  18.047  0.00  0.00    +0.000 C 
ENDBRANCH  10  14
ENDBRANCH   1  10
TORSDOF 5
ENDMDL
MODEL 2
REMARK VINA RESULT:      -6.5      1.054      1.846
REMARK  Name = 
REMARK  9 active torsions:
REMARK  status: ('A' for Active; 'I' for Inactive)
REMARK    1  A    between atoms: C_1  and  C_2
REMARK    2  A    between atoms: C_2  and  C_3
REMARK    3  A    between atoms: C_2  and  N_4
REMARK    4  A    between atoms: N_4  and  C_5
REMARK    5  A    between atoms: N_4  and  C_14
REMARK    6  A    between atoms: C_5  and  C_6
REMARK    7  A    between atoms: C_7  and  C_8
REMARK    8  A    between atoms: C_14  and  C_15
REMARK    9  A    between atoms: C_14  and  C_16
REMARK                            x       y       z     vdW  Elec       q    Type
REMARK                         _______ _______ _______ _____ _____    ______ ____
ROOT
ATOM      1  C   UNL     1       5.163   7.277  16.919  0.00  0.00    +0.000 C 
ENDROOT
BRANCH   1   2
ATOM      2  C   UNL     1       4.170   6.381  17.545  0.00  0.00    +0.000 C 
ATOM      3  C   UNL     1       3.378   5.639  18.065  0.00  0.00    +0.000 C 
BRANCH   3   4
ATOM      4  C   UNL     1       2.458   4.741  18.695  0.00  0.00    +0.000 A 
ATOM      5  C   UNL     1       2.129   4.903  20.046  0.00  0.00    +0.000 A 
ATOM      6  C   UNL     1       1.252   4.009  20.665  0.00  0.00    +0.000 A 
ATOM      7  C   UNL     1       0.699   2.954  19.940  0.00  0.00    +0.000 A 
ATOM      8  C   UNL     1       1.021   2.793  18.592  0.00  0.00    +0.000 A 
ATOM      9  C   UNL     1       1.897   3.685  17.970  0.00  0.00    +0.000 A 
ENDBRANCH   3   4
ENDBRANCH   1   2
BRANCH   1  10
ATOM     10  N   UNL     1       6.392   6.589  16.424  0.00  0.00    +0.000 NA
BRANCH  10  12
ATOM     11  C   UNL     1       5.526   4.982  14.669  0.00  0.00    +0.000 C 
ATOM     12  C   UNL     1       6.094   5.154  16.102  0.00  0.00    +0.000 C 
ATOM     13  C   UNL     1       7.282   4.178  16.168  0.00  0.00    +0.000 C 
ENDBRANCH  10  12
BRANCH  10  14
ATOM     14  C   UNL     1       7.556   6.869  17.327  0.00  0.00    +0.000 C 
ATOM     15  C   UNL     1       7.810   8.349  17.670  0.00  0.00    +0.000 C 
ATOM     16  C   UNL     1       7.411   6.177  18.708  0.00  0.00    +0.000 C 
ENDBRANCH  10  14
ENDBRANCH   1  10
TORSDOF 5
ENDMDL
MODEL 3
REMARK VINA RESULT:      -6.4      3.472      7.699
REMARK  Name = 
REMARK  9 active torsions:
REMARK  status: ('A' for Active; 'I' for Inactive)
REMARK    1  A    between atoms: C_1  and  C_2
REMARK    2  A    between atoms: C_2  and  C_3
REMARK    3  A    between atoms: C_2  and  N_4
REMARK    4  A    between atoms: N_4  and  C_5
REMARK    5  A    between atoms: N_4  and  C_14
REMARK    6  A    between atoms: C_5  and  C_6
REMARK    7  A    between atoms: C_7  and  C_8
REMARK    8  A    between atoms: C_14  and  C_15
REMARK    9  A    between atoms: C_14  and  C_16
REMARK                            x       y       z     vdW  Elec       q    Type
REMARK                         _______ _______ _______ _____ _____    ______ ____
ROOT
ATOM      1  C   UNL     1       7.421   7.303  17.127  0.00  0.00    +0.000 C 
ENDROOT
BRANCH   1   2
ATOM      2  C   UNL     1       8.082   8.479  17.728  0.00  0.00    +0.000 C 
ATOM      3  C   UNL     1       8.600   9.443  18.228  0.00  0.00    +0.000 C 
BRANCH   3   4
ATOM      4  C   UNL     1       9.190  10.597  18.834  0.00  0.00    +0.000 A 
ATOM      5  C   UNL     1       9.449  10.616  20.209  0.00  0.00    +0.000 A 
ATOM      6  C   UNL     1      10.001  11.754  20.803  0.00  0.00    +0.000 A 
ATOM      7  C   UNL     1      10.298  12.874  20.028  0.00  0.00    +0.000 A 
ATOM      8  C   UNL     1      10.046  12.857  18.655  0.00  0.00    +0.000 A 
ATOM      9  C   UNL     1       9.495  11.721  18.059  0.00  0.00    +0.000 A 
ENDBRANCH   3   4
ENDBRANCH   1   2
BRANCH   1  10
ATOM     10  N   UNL     1       6.348   6.697  17.971  0.00  0.00    +0.000 NA
BRANCH  10  12
ATOM     11  C   UNL     1       7.630   4.556  17.539  0.00  0.00    +0.000 C 
ATOM     12  C   UNL     1       6.816   5.398  18.556  0.00  0.00    +0.000 C 
ATOM     13  C   UNL     1       7.725   5.493  19.794  0.00  0.00    +0.000 C 
ENDBRANCH  10  12
BRANCH  10  14
ATOM     14  C   UNL     1       5.037   6.697  17.242  0.00  0.00    +0.000 C 
ATOM     15  C   UNL     1       5.094   6.356  15.741  0.00  0.00    +0.000 C 
ATOM     16  C   UNL     1       4.037   5.667  17.829  0.00  0.00    +0.000 C 
ENDBRANCH  10  14
ENDBRANCH   1  10
TORSDOF 5
ENDMDL
MODEL 4
REMARK VINA RESULT:      -6.4      3.545      7.784
REMARK  Name = 
REMARK  9 active torsions:
REMARK  status: ('A' for Active; 'I' for Inactive)
REMARK    1  A    between atoms: C_1  and  C_2
REMARK    2  A    between atoms: C_2  and  C_3
REMARK    3  A    between atoms: C_2  and  N_4
REMARK    4  A    between atoms: N_4  and  C_5
REMARK    5  A    between atoms: N_4  and  C_14
REMARK    6  A    between atoms: C_5  and  C_6
REMARK    7  A    between atoms: C_7  and  C_8
REMARK    8  A    between atoms: C_14  and  C_15
REMARK    9  A    between atoms: C_14  and  C_16
REMARK                            x       y       z     vdW  Elec       q    Type
REMARK                         _______ _______ _______ _____ _____    ______ ____
ROOT
ATOM      1  C   UNL     1       7.024   7.860  17.046  0.00  0.00    +0.000 C 
ENDROOT
BRANCH   1   2
ATOM      2  C   UNL     1       7.918   8.816  17.729  0.00  0.00    +0.000 C 
ATOM      3  C   UNL     1       8.634   9.612  18.278  0.00  0.00    +0.000 C 
BRANCH   3   4
ATOM      4  C   UNL     1       9.469  10.582  18.920  0.00  0.00    +0.000 A 
ATOM      5  C   UNL     1      10.451  11.260  18.190  0.00  0.00    +0.000 A 
ATOM      6  C   UNL     1      11.283  12.185  18.825  0.00  0.00    +0.000 A 
ATOM      7  C   UNL     1      11.135  12.440  20.188  0.00  0.00    +0.000 A 
ATOM      8  C   UNL     1      10.153  11.769  20.918  0.00  0.00    +0.000 A 
ATOM      9  C   UNL     1       9.321  10.844  20.286  0.00  0.00    +0.000 A 
ENDBRANCH   3   4
ENDBRANCH   1   2
BRANCH   1  10
ATOM     10  N   UNL     1       6.542   6.739  17.907  0.00  0.00    +0.000 NA
BRANCH  10  12
ATOM     11  C   UNL     1       7.704   5.523  19.799  0.00  0.00    +0.000 C 
ATOM     12  C   UNL     1       7.681   5.839  18.280  0.00  0.00    +0.000 C 
ATOM     13  C   UNL     1       7.716   4.460  17.599  0.00  0.00    +0.000 C 
ENDBRANCH  10  12
BRANCH  10  14
ATOM     14  C   UNL     1       5.321   6.101  17.311  0.00  0.00    +0.000 C 
ATOM     15  C   UNL     1       4.017   6.246  18.116  0.00  0.00    +0.000 C 
ATOM     16  C   UNL     1       4.975   6.682  15.915  0.00  0.00    +0.000 C 
ENDBRANCH  10  14
ENDBRANCH   1  10
TORSDOF 5
ENDMDL
MODEL 5
REMARK VINA RESULT:      -6.4      2.136      6.591
REMARK  Name = 
REMARK  9 active torsions:
REMARK  status: ('A' for Active; 'I' for Inactive)
REMARK    1  A    between atoms: C_1  and  C_2
REMARK    2  A    between atoms: C_2  and  C_3
REMARK    3  A    between atoms: C_2  and  N_4
REMARK    4  A    between atoms: N_4  and  C_5
REMARK    5  A    between atoms: N_4  and  C_14
REMARK    6  A    between atoms: C_5  and  C_6
REMARK    7  A    between atoms: C_7  and  C_8
REMARK    8  A    between atoms: C_14  and  C_15
REMARK    9  A    between atoms: C_14  and  C_16
REMARK                            x       y       z     vdW  Elec       q    Type
REMARK                         _______ _______ _______ _____ _____    ______ ____
ROOT
ATOM      1  C   UNL     1       4.982   4.395  18.390  0.00  0.00    +0.000 C 
ENDROOT
BRANCH   1   2
ATOM      2  C   UNL     1       5.406   4.380  16.975  0.00  0.00    +0.000 C 
ATOM      3  C   UNL     1       5.773   4.365  15.830  0.00  0.00    +0.000 C 
BRANCH   3   4
ATOM      4  C   UNL     1       6.238   4.345  14.476  0.00  0.00    +0.000 A 
ATOM      5  C   UNL     1       5.616   3.523  13.530  0.00  0.00    +0.000 A 
ATOM      6  C   UNL     1       6.089   3.485  12.215  0.00  0.00    +0.000 A 
ATOM      7  C   UNL     1       7.180   4.268  11.841  0.00  0.00    +0.000 A 
ATOM      8  C   UNL     1       7.799   5.094  12.781  0.00  0.00    +0.000 A 
ATOM      9  C   UNL     1       7.329   5.134  14.094  0.00  0.00    +0.000 A 
ENDBRANCH   3   4
ENDBRANCH   1   2
BRANCH   1  10
ATOM     10  N   UNL     1       3.503   4.425  18.593  0.00  0.00    +0.000 NA
BRANCH  10  12
ATOM     11  C   UNL     1       2.624   6.797  18.469  0.00  0.00    +0.000 C 
ATOM     12  C   UNL     1       3.108   5.639  19.381  0.00  0.00    +0.000 C 
ATOM     13  C   UNL     1       1.974   5.451  20.403  0.00  0.00    +0.000 C 
ENDBRANCH  10  12
BRANCH  10  14
ATOM     14  C   UNL     1       3.007   3.094  19.075  0.00  0.00    +0.000 C 
ATOM     15  C   UNL     1       2.504   2.122  17.992  0.00  0.00    +0.000 C 
ATOM     16  C   UNL     1       4.103   2.294  19.826  0.00  0.00    +0.000 C 
ENDBRANCH  10  14
ENDBRANCH   1  10
TORSDOF 5
ENDMDL
MODEL 6
REMARK VINA RESULT:      -6.4      2.105      6.673
REMARK  Name = 
REMARK  9 active torsions:
REMARK  status: ('A' for Active; 'I' for Inactive)
REMARK    1  A    between atoms: C_1  and  C_2
REMARK    2  A    between atoms: C_2  and  C_3
REMARK    3  A    between atoms: C_2  and  N_4
REMARK    4  A    between atoms: N_4  and  C_5
REMARK    5  A    between atoms: N_4  and  C_14
REMARK    6  A    between atoms: C_5  and  C_6
REMARK    7  A    between atoms: C_7  and  C_8
REMARK    8  A    between atoms: C_14  and  C_15
REMARK    9  A    between atoms: C_14  and  C_16
REMARK                            x       y       z     vdW  Elec       q    Type
REMARK                         _______ _______ _______ _____ _____    ______ ____
ROOT
ATOM      1  C   UNL     1       5.077   4.385  18.401  0.00  0.00    +0.000 C 
ENDROOT
BRANCH   1   2
ATOM      2  C   UNL     1       5.571   4.372  17.009  0.00  0.00    +0.000 C 
ATOM      3  C   UNL     1       5.951   4.357  15.868  0.00  0.00    +0.000 C 
BRANCH   3   4
ATOM      4  C   UNL     1       6.377   4.334  14.501  0.00  0.00    +0.000 A 
ATOM      5  C   UNL     1       7.415   5.169  14.073  0.00  0.00    +0.000 A 
ATOM      6  C   UNL     1       7.811   5.164  12.733  0.00  0.00    +0.000 A 
ATOM      7  C   UNL     1       7.175   4.325  11.818  0.00  0.00    +0.000 A 
ATOM      8  C   UNL     1       6.142   3.488  12.244  0.00  0.00    +0.000 A 
ATOM      9  C   UNL     1       5.745   3.491  13.582  0.00  0.00    +0.000 A 
ENDBRANCH   3   4
ENDBRANCH   1   2
BRANCH   1  10
ATOM     10  N   UNL     1       3.590   4.430  18.530  0.00  0.00    +0.000 NA
BRANCH  10  12
ATOM     11  C   UNL     1       2.668   6.781  18.340  0.00  0.00    +0.000 C 
ATOM     12  C   UNL     1       3.168   5.656  19.284  0.00  0.00    +0.000 C 
ATOM     13  C   UNL     1       2.031   5.475  20.305  0.00  0.00    +0.000 C 
ENDBRANCH  10  12
BRANCH  10  14
ATOM     14  C   UNL     1       3.058   3.110  19.001  0.00  0.00    +0.000 C 
ATOM     15  C   UNL     1       2.547   2.153  17.909  0.00  0.00    +0.000 C 
ATOM     16  C   UNL     1       4.126   2.282  19.763  0.00  0.00    +0.000 C 
ENDBRANCH  10  14
ENDBRANCH   1  10
TORSDOF 5
ENDMDL
MODEL 7
REMARK VINA RESULT:      -6.4      2.202      6.652
REMARK  Name = 
REMARK  9 active torsions:
REMARK  status: ('A' for Active; 'I' for Inactive)
REMARK    1  A    between atoms: C_1  and  C_2
REMARK    2  A    between atoms: C_2  and  C_3
REMARK    3  A    between atoms: C_2  and  N_4
REMARK    4  A    between atoms: N_4  and  C_5
REMARK    5  A    between atoms: N_4  and  C_14
REMARK    6  A    between atoms: C_5  and  C_6
REMARK    7  A    between atoms: C_7  and  C_8
REMARK    8  A    between atoms: C_14  and  C_15
REMARK    9  A    between atoms: C_14  and  C_16
REMARK                            x       y       z     vdW  Elec       q    Type
REMARK                         _______ _______ _______ _____ _____    ______ ____
ROOT
ATOM      1  C   UNL     1       4.410   4.175  18.146  0.00  0.00    +0.000 C 
ENDROOT
BRANCH   1   2
ATOM      2  C   UNL     1       4.982   4.184  16.784  0.00  0.00    +0.000 C 
ATOM      3  C   UNL     1       5.465   4.206  15.683  0.00  0.00    +0.000 C 
BRANCH   3   4
ATOM      4  C   UNL     1       6.062   4.248  14.382  0.00  0.00    +0.000 A 
ATOM      5  C   UNL     1       5.556   3.451  13.349  0.00  0.00    +0.000 A 
ATOM      6  C   UNL     1       6.157   3.474  12.087  0.00  0.00    +0.000 A 
ATOM      7  C   UNL     1       7.260   4.293  11.852  0.00  0.00    +0.000 A 
ATOM      8  C   UNL     1       7.763   5.094  12.879  0.00  0.00    +0.000 A 
ATOM      9  C   UNL     1       7.165   5.073  14.140  0.00  0.00    +0.000 A 
ENDBRANCH   3   4
ENDBRANCH   1   2
BRANCH   1  10
ATOM     10  N   UNL     1       2.918   4.118  18.190  0.00  0.00    +0.000 NA
BRANCH  10  12
ATOM     11  C   UNL     1       2.309   5.599  20.152  0.00  0.00    +0.000 C 
ATOM     12  C   UNL     1       2.357   5.444  18.609  0.00  0.00    +0.000 C 
ATOM     13  C   UNL     1       3.110   6.692  18.118  0.00  0.00    +0.000 C 
ENDBRANCH  10  12
BRANCH  10  14
ATOM     14  C   UNL     1       2.457   2.902  18.939  0.00  0.00    +0.000 C 
ATOM     15  C   UNL     1       0.995   2.477  18.711  0.00  0.00    +0.000 C 
ATOM     16  C   UNL     1       3.283   1.639  18.577  0.00  0.00    +0.000 C 
ENDBRANCH  10  14
ENDBRANCH   1  10
TORSDOF 5
ENDMDL
MODEL 8
REMARK VINA RESULT:      -6.3      2.149      6.522
REMARK  Name = 
REMARK  9 active torsions:
REMARK  status: ('A' for Active; 'I' for Inactive)
REMARK    1  A    between atoms: C_1  and  C_2
REMARK    2  A    between atoms: C_2  and  C_3
REMARK    3  A    between atoms: C_2  and  N_4
REMARK    4  A    between atoms: N_4  and  C_5
REMARK    5  A    between atoms: N_4  and  C_14
REMARK    6  A    between atoms: C_5  and  C_6
REMARK    7  A    between atoms: C_7  and  C_8
REMARK    8  A    between atoms: C_14  and  C_15
REMARK    9  A    between atoms: C_14  and  C_16
REMARK                            x       y       z     vdW  Elec       q    Type
REMARK                         _______ _______ _______ _____ _____    ______ ____
ROOT
ATOM      1  C   UNL     1       3.748   5.412  18.095  0.00  0.00    +0.000 C 
ENDROOT
BRANCH   1   2
ATOM      2  C   UNL     1       4.492   5.111  16.855  0.00  0.00    +0.000 C 
ATOM      3  C   UNL     1       5.089   4.885  15.836  0.00  0.00    +0.000 C 
BRANCH   3   4
ATOM      4  C   UNL     1       5.788   4.640  14.611  0.00  0.00    +0.000 A 
ATOM      5  C   UNL     1       5.256   3.763  13.659  0.00  0.00    +0.000 A 
ATOM      6  C   UNL     1       5.953   3.504  12.476  0.00  0.00    +0.000 A 
ATOM      7  C   UNL     1       7.180   4.122  12.238  0.00  0.00    +0.000 A 
ATOM      8  C   UNL     1       7.711   5.002  13.182  0.00  0.00    +0.000 A 
ATOM      9  C   UNL     1       7.016   5.262  14.365  0.00  0.00    +0.000 A 
ENDBRANCH   3   4
ENDBRANCH   1   2
BRANCH   1  10
ATOM     10  N   UNL     1       3.043   4.240  18.695  0.00  0.00    +0.000 NA
BRANCH  10  12
ATOM     11  C   UNL     1       2.149   6.129  20.124  0.00  0.00    +0.000 C 
ATOM     12  C   UNL     1       2.448   4.610  20.021  0.00  0.00    +0.000 C 
ATOM     13  C   UNL     1       1.119   3.929  20.388  0.00  0.00    +0.000 C 
ENDBRANCH  10  12
BRANCH  10  14
ATOM     14  C   UNL     1       3.909   3.016  18.641  0.00  0.00    +0.000 C 
ATOM     15  C   UNL     1       4.456   2.511  19.989  0.00  0.00    +0.000 C 
ATOM     16  C   UNL     1       3.163   1.792  18.048  0.00  0.00    +0.000 C 
ENDBRANCH  10  14
ENDBRANCH   1  10
TORSDOF 5
ENDMDL
MODEL 9
REMARK VINA RESULT:      -6.3      3.555      7.846
REMARK  Name = 
REMARK  9 active torsions:
REMARK  status: ('A' for Active; 'I' for Inactive)
REMARK    1  A    between atoms: C_1  and  C_2
REMARK    2  A    between atoms: C_2  and  C_3
REMARK    3  A    between atoms: C_2  and  N_4
REMARK    4  A    between atoms: N_4  and  C_5
REMARK    5  A    between atoms: N_4  and  C_14
REMARK    6  A    between atoms: C_5  and  C_6
REMARK    7  A    between atoms: C_7  and  C_8
REMARK    8  A    between atoms: C_14  and  C_15
REMARK    9  A    between atoms: C_14  and  C_16
REMARK                            x       y       z     vdW  Elec       q    Type
REMARK                         _______ _______ _______ _____ _____    ______ ____
ROOT
ATOM      1  C   UNL     1       6.930   7.790  17.206  0.00  0.00    +0.000 C 
ENDROOT
BRANCH   1   2
ATOM      2  C   UNL     1       7.829   8.796  17.805  0.00  0.00    +0.000 C 
ATOM      3  C   UNL     1       8.580   9.607  18.281  0.00  0.00    +0.000 C 
BRANCH   3   4
ATOM      4  C   UNL     1       9.496  10.558  18.833  0.00  0.00    +0.000 A 
ATOM      5  C   UNL     1       9.481  10.836  20.205  0.00  0.00    +0.000 A 
ATOM      6  C   UNL     1      10.357  11.785  20.737  0.00  0.00    +0.000 A 
ATOM      7  C   UNL     1      11.251  12.457  19.905  0.00  0.00    +0.000 A 
ATOM      8  C   UNL     1      11.272  12.179  18.537  0.00  0.00    +0.000 A 
ATOM      9  C   UNL     1      10.398  11.231  18.003  0.00  0.00    +0.000 A 
ENDBRANCH   3   4
ENDBRANCH   1   2
BRANCH   1  10
ATOM     10  N   UNL     1       6.572   6.660  18.116  0.00  0.00    +0.000 NA
BRANCH  10  12
ATOM     11  C   UNL     1       7.965   5.459  19.856  0.00  0.00    +0.000 C 
ATOM     12  C   UNL     1       7.764   5.781  18.351  0.00  0.00    +0.000 C 
ATOM     13  C   UNL     1       7.747   4.407  17.661  0.00  0.00    +0.000 C 
ENDBRANCH  10  12
BRANCH  10  14
ATOM     14  C   UNL     1       5.302   6.000  17.666  0.00  0.00    +0.000 C 
ATOM     15  C   UNL     1       4.303   5.622  18.775  0.00  0.00    +0.000 C 
ATOM     16  C   UNL     1       4.480   6.897  16.703  0.00  0.00    +0.000 C 
ENDBRANCH  10  14
ENDBRANCH   1  10
TORSDOF 5
ENDMDL
