MODEL 1
REMARK VINA RESULT:      -5.6      0.000      0.000
REMARK  Name = 
REMARK  1 active torsions:
REMARK  status: ('A' for Active; 'I' for Inactive)
REMARK    1  A    between atoms: N_1  and  C_2
REMARK                            x       y       z     vdW  Elec       q    Type
REMARK                         _______ _______ _______ _____ _____    ______ ____
ROOT
ATOM      1  C   UNL     1       2.087   2.751  20.483  0.00  0.00    +0.000 C 
ATOM      2  C   UNL     1       2.947   2.937  19.466  0.00  0.00    +0.000 C 
ATOM      3  C   UNL     1       2.503   3.509  18.176  0.00  0.00    +0.000 C 
ATOM      4  O   UNL     1       1.348   3.451  17.769  0.00  0.00    +0.000 OA
ATOM      5  N   UNL     1       3.498   4.100  17.452  0.00  0.00    +0.000 N 
ATOM      6  C   UNL     1       4.833   4.026  17.701  0.00  0.00    +0.000 C 
ATOM      7  O   UNL     1       5.658   4.562  16.965  0.00  0.00    +0.000 OA
ATOM      8  N   UNL     1       5.213   3.300  18.791  0.00  0.00    +0.000 N 
ATOM      9  C   UNL     1       4.388   2.676  19.684  0.00  0.00    +0.000 C 
ATOM     10  O   UNL     1       4.822   1.977  20.591  0.00  0.00    +0.000 OA
ATOM     11  H   UNL     1       3.225   4.556  16.591  0.00  0.00    +0.000 HD
ATOM     12  H   UNL     1       6.208   3.194  18.938  0.00  0.00    +0.000 HD
ENDROOT
BRANCH   1  13
ATOM     13  N   UNL     1       0.747   3.050  20.542  0.00  0.00    +0.000 N 
ATOM     14  H   UNL     1       0.371   3.167  21.481  0.00  0.00    +0.000 HD
ATOM     15  H   UNL     1       0.163   2.452  19.946  0.00  0.00    +0.000 HD
ENDBRANCH   1  13
TORSDOF 1
ENDMDL
MODEL 2
REMARK VINA RESULT:      -5.6      1.628      4.383
REMARK  Name = 
REMARK  1 active torsions:
REMARK  status: ('A' for Active; 'I' for Inactive)
REMARK    1  A    between atoms: N_1  and  C_2
REMARK                            x       y       z     vdW  Elec       q    Type
REMARK                         _______ _______ _______ _____ _____    ______ ____
ROOT
ATOM      1  C   UNL     1       3.960   3.582  17.929  0.00  0.00    +0.000 C 
ATOM      2  C   UNL     1       3.250   3.048  18.939  0.00  0.00    +0.000 C 
ATOM      3  C   UNL     1       3.911   2.505  20.145  0.00  0.00    +0.000 C 
ATOM      4  O   UNL     1       5.068   2.097  20.160  0.00  0.00    +0.000 OA
ATOM      5  N   UNL     1       3.118   2.472  21.255  0.00  0.00    +0.000 N 
ATOM      6  C   UNL     1       1.775   2.687  21.295  0.00  0.00    +0.000 C 
ATOM      7  O   UNL     1       1.138   2.596  22.341  0.00  0.00    +0.000 OA
ATOM      8  N   UNL     1       1.165   2.977  20.110  0.00  0.00    +0.000 N 
ATOM      9  C   UNL     1       1.771   3.117  18.893  0.00  0.00    +0.000 C 
ATOM     10  O   UNL     1       1.131   3.298  17.866  0.00  0.00    +0.000 OA
ATOM     11  H   UNL     1       3.550   2.163  22.116  0.00  0.00    +0.000 HD
ATOM     12  H   UNL     1       0.159   3.073  20.132  0.00  0.00    +0.000 HD
ENDROOT
BRANCH   1  13
ATOM     13  N   UNL     1       5.322   3.743  17.827  0.00  0.00    +0.000 N 
ATOM     14  H   UNL     1       5.622   4.602  17.371  0.00  0.00    +0.000 HD
ATOM     15  H   UNL     1       5.813   2.910  17.482  0.00  0.00    +0.000 HD
ENDBRANCH   1  13
TORSDOF 1
ENDMDL
MODEL 3
REMARK VINA RESULT:      -5.5      3.420      5.110
REMARK  Name = 
REMARK  1 active torsions:
REMARK  status: ('A' for Active; 'I' for Inactive)
REMARK    1  A    between atoms: N_1  and  C_2
REMARK                            x       y       z     vdW  Elec       q    Type
REMARK                         _______ _______ _______ _____ _____    ______ ____
ROOT
ATOM      1  C   UNL     1       7.354   4.828  15.246  0.00  0.00    +0.000 C 
ATOM      2  C   UNL     1       6.762   5.195  16.397  0.00  0.00    +0.000 C 
ATOM      3  C   UNL     1       5.559   6.054  16.405  0.00  0.00    +0.000 C 
ATOM      4  O   UNL     1       5.269   6.827  15.498  0.00  0.00    +0.000 OA
ATOM      5  N   UNL     1       4.791   5.936  17.528  0.00  0.00    +0.000 N 
ATOM      6  C   UNL     1       5.131   5.287  18.675  0.00  0.00    +0.000 C 
ATOM      7  O   UNL     1       4.385   5.269  19.651  0.00  0.00    +0.000 OA
ATOM      8  N   UNL     1       6.354   4.685  18.698  0.00  0.00    +0.000 N 
ATOM      9  C   UNL     1       7.256   4.628  17.672  0.00  0.00    +0.000 C 
ATOM     10  O   UNL     1       8.367   4.134  17.811  0.00  0.00    +0.000 OA
ATOM     11  H   UNL     1       3.927   6.462  17.547  0.00  0.00    +0.000 HD
ATOM     12  H   UNL     1       6.631   4.258  19.572  0.00  0.00    +0.000 HD
ENDROOT
BRANCH   1  13
ATOM     13  N   UNL     1       6.983   5.124  13.956  0.00  0.00    +0.000 N 
ATOM     14  H   UNL     1       7.722   5.035  13.262  0.00  0.00    +0.000 HD
ATOM     15  H   UNL     1       6.452   5.998  13.869  0.00  0.00    +0.000 HD
ENDBRANCH   1  13
TORSDOF 1
ENDMDL
MODEL 4
REMARK VINA RESULT:      -5.5      3.419      4.885
REMARK  Name = 
REMARK  1 active torsions:
REMARK  status: ('A' for Active; 'I' for Inactive)
REMARK    1  A    between atoms: N_1  and  C_2
REMARK                            x       y       z     vdW  Elec       q    Type
REMARK                         _______ _______ _______ _____ _____    ______ ____
ROOT
ATOM      1  C   UNL     1       5.224   4.816  18.528  0.00  0.00    +0.000 C 
ATOM      2  C   UNL     1       5.932   5.175  17.442  0.00  0.00    +0.000 C 
ATOM      3  C   UNL     1       7.295   4.652  17.202  0.00  0.00    +0.000 C 
ATOM      4  O   UNL     1       8.034   4.249  18.094  0.00  0.00    +0.000 OA
ATOM      5  N   UNL     1       7.682   4.672  15.893  0.00  0.00    +0.000 N 
ATOM      6  C   UNL     1       7.039   5.295  14.869  0.00  0.00    +0.000 C 
ATOM      7  O   UNL     1       7.488   5.289  13.726  0.00  0.00    +0.000 OA
ATOM      8  N   UNL     1       5.886   5.953  15.180  0.00  0.00    +0.000 N 
ATOM      9  C   UNL     1       5.286   6.014  16.407  0.00  0.00    +0.000 C 
ATOM     10  O   UNL     1       4.292   6.699  16.611  0.00  0.00    +0.000 OA
ATOM     11  H   UNL     1       8.585   4.268  15.679  0.00  0.00    +0.000 HD
ATOM     12  H   UNL     1       5.444   6.468  14.431  0.00  0.00    +0.000 HD
ENDROOT
BRANCH   1  13
ATOM     13  N   UNL     1       5.575   3.948  19.535  0.00  0.00    +0.000 N 
ATOM     14  H   UNL     1       5.113   4.112  20.427  0.00  0.00    +0.000 HD
ATOM     15  H   UNL     1       6.588   3.808  19.625  0.00  0.00    +0.000 HD
ENDBRANCH   1  13
TORSDOF 1
ENDMDL
MODEL 5
REMARK VINA RESULT:      -5.4      3.127      3.584
REMARK  Name = 
REMARK  1 active torsions:
REMARK  status: ('A' for Active; 'I' for Inactive)
REMARK    1  A    between atoms: N_1  and  C_2
REMARK                            x       y       z     vdW  Elec       q    Type
REMARK                         _______ _______ _______ _____ _____    ______ ____
ROOT
ATOM      1  C   UNL     1       5.403   5.203  19.209  0.00  0.00    +0.000 C 
ATOM      2  C   UNL     1       5.776   4.782  17.987  0.00  0.00    +0.000 C 
ATOM      3  C   UNL     1       4.783   4.552  16.915  0.00  0.00    +0.000 C 
ATOM      4  O   UNL     1       3.602   4.297  17.125  0.00  0.00    +0.000 OA
ATOM      5  N   UNL     1       5.294   4.628  15.651  0.00  0.00    +0.000 N 
ATOM      6  C   UNL     1       6.611   4.682  15.313  0.00  0.00    +0.000 C 
ATOM      7  O   UNL     1       6.975   4.708  14.140  0.00  0.00    +0.000 OA
ATOM      8  N   UNL     1       7.508   4.674  16.340  0.00  0.00    +0.000 N 
ATOM      9  C   UNL     1       7.218   4.662  17.676  0.00  0.00    +0.000 C 
ATOM     10  O   UNL     1       8.092   4.573  18.529  0.00  0.00    +0.000 OA
ATOM     11  H   UNL     1       4.636   4.536  14.888  0.00  0.00    +0.000 HD
ATOM     12  H   UNL     1       8.485   4.650  16.086  0.00  0.00    +0.000 HD
ENDROOT
BRANCH   1  13
ATOM     13  N   UNL     1       4.143   5.507  19.666  0.00  0.00    +0.000 N 
ATOM     14  H   UNL     1       3.426   5.571  18.947  0.00  0.00    +0.000 HD
ATOM     15  H   UNL     1       4.121   6.292  20.328  0.00  0.00    +0.000 HD
ENDBRANCH   1  13
TORSDOF 1
ENDMDL
MODEL 6
REMARK VINA RESULT:      -5.4      3.123      3.802
REMARK  Name = 
REMARK  1 active torsions:
REMARK  status: ('A' for Active; 'I' for Inactive)
REMARK    1  A    between atoms: N_1  and  C_2
REMARK                            x       y       z     vdW  Elec       q    Type
REMARK                         _______ _______ _______ _____ _____    ______ ____
ROOT
ATOM      1  C   UNL     1       3.589   6.457  18.134  0.00  0.00    +0.000 C 
ATOM      2  C   UNL     1       4.640   5.715  17.740  0.00  0.00    +0.000 C 
ATOM      3  C   UNL     1       5.492   6.126  16.604  0.00  0.00    +0.000 C 
ATOM      4  O   UNL     1       5.109   6.859  15.698  0.00  0.00    +0.000 OA
ATOM      5  N   UNL     1       6.753   5.604  16.629  0.00  0.00    +0.000 N 
ATOM      6  C   UNL     1       7.203   4.619  17.452  0.00  0.00    +0.000 C 
ATOM      7  O   UNL     1       8.350   4.185  17.372  0.00  0.00    +0.000 OA
ATOM      8  N   UNL     1       6.310   4.114  18.350  0.00  0.00    +0.000 N 
ATOM      9  C   UNL     1       5.020   4.527  18.537  0.00  0.00    +0.000 C 
ATOM     10  O   UNL     1       4.263   3.959  19.314  0.00  0.00    +0.000 OA
ATOM     11  H   UNL     1       7.386   5.908  15.901  0.00  0.00    +0.000 HD
ATOM     12  H   UNL     1       6.627   3.340  18.916  0.00  0.00    +0.000 HD
ENDROOT
BRANCH   1  13
ATOM     13  N   UNL     1       3.145   7.656  17.627  0.00  0.00    +0.000 N 
ATOM     14  H   UNL     1       2.319   8.038  18.083  0.00  0.00    +0.000 HD
ATOM     15  H   UNL     1       3.085   7.675  16.602  0.00  0.00    +0.000 HD
ENDBRANCH   1  13
TORSDOF 1
ENDMDL
MODEL 7
REMARK VINA RESULT:      -5.4      3.515      4.965
REMARK  Name = 
REMARK  1 active torsions:
REMARK  status: ('A' for Active; 'I' for Inactive)
REMARK    1  A    between atoms: N_1  and  C_2
REMARK                            x       y       z     vdW  Elec       q    Type
REMARK                         _______ _______ _______ _____ _____    ______ ____
ROOT
ATOM      1  C   UNL     1       7.220   5.590  19.088  0.00  0.00    +0.000 C 
ATOM      2  C   UNL     1       6.740   5.323  17.860  0.00  0.00    +0.000 C 
ATOM      3  C   UNL     1       7.259   6.015  16.661  0.00  0.00    +0.000 C 
ATOM      4  O   UNL     1       7.793   7.119  16.692  0.00  0.00    +0.000 OA
ATOM      5  N   UNL     1       7.078   5.330  15.495  0.00  0.00    +0.000 N 
ATOM      6  C   UNL     1       6.312   4.220  15.319  0.00  0.00    +0.000 C 
ATOM      7  O   UNL     1       6.179   3.695  14.217  0.00  0.00    +0.000 OA
ATOM      8  N   UNL     1       5.672   3.737  16.422  0.00  0.00    +0.000 N 
ATOM      9  C   UNL     1       5.758   4.228  17.695  0.00  0.00    +0.000 C 
ATOM     10  O   UNL     1       5.082   3.778  18.612  0.00  0.00    +0.000 OA
ATOM     11  H   UNL     1       7.472   5.742  14.659  0.00  0.00    +0.000 HD
ATOM     12  H   UNL     1       5.053   2.951  16.278  0.00  0.00    +0.000 HD
ENDROOT
BRANCH   1  13
ATOM     13  N   UNL     1       8.221   6.462  19.449  0.00  0.00    +0.000 N 
ATOM     14  H   UNL     1       7.982   7.449  19.374  0.00  0.00    +0.000 HD
ATOM     15  H   UNL     1       9.134   6.236  19.038  0.00  0.00    +0.000 HD
ENDBRANCH   1  13
TORSDOF 1
ENDMDL
MODEL 8
REMARK VINA RESULT:      -5.4      1.895      1.935
REMARK  Name = 
REMARK  1 active torsions:
REMARK  status: ('A' for Active; 'I' for Inactive)
REMARK    1  A    between atoms: N_1  and  C_2
REMARK                            x       y       z     vdW  Elec       q    Type
REMARK                         _______ _______ _______ _____ _____    ______ ____
ROOT
ATOM      1  C   UNL     1       1.669   2.980  19.795  0.00  0.00    +0.000 C 
ATOM      2  C   UNL     1       2.807   3.589  19.416  0.00  0.00    +0.000 C 
ATOM      3  C   UNL     1       3.021   5.034  19.645  0.00  0.00    +0.000 C 
ATOM      4  O   UNL     1       2.110   5.845  19.767  0.00  0.00    +0.000 OA
ATOM      5  N   UNL     1       4.334   5.407  19.692  0.00  0.00    +0.000 N 
ATOM      6  C   UNL     1       5.404   4.640  19.352  0.00  0.00    +0.000 C 
ATOM      7  O   UNL     1       6.551   5.079  19.389  0.00  0.00    +0.000 OA
ATOM      8  N   UNL     1       5.140   3.368  18.936  0.00  0.00    +0.000 N 
ATOM      9  C   UNL     1       3.912   2.771  18.868  0.00  0.00    +0.000 C 
ATOM     10  O   UNL     1       3.761   1.648  18.404  0.00  0.00    +0.000 OA
ATOM     11  H   UNL     1       4.524   6.377  19.906  0.00  0.00    +0.000 HD
ATOM     12  H   UNL     1       5.931   2.822  18.624  0.00  0.00    +0.000 HD
ENDROOT
BRANCH   1  13
ATOM     13  N   UNL     1       0.580   3.518  20.439  0.00  0.00    +0.000 N 
ATOM     14  H   UNL     1       0.201   4.362  20.016  0.00  0.00    +0.000 HD
ATOM     15  H   UNL     1       0.697   3.594  21.456  0.00  0.00    +0.000 HD
ENDBRANCH   1  13
TORSDOF 1
ENDMDL
MODEL 9
REMARK VINA RESULT:      -5.4      3.016      5.449
REMARK  Name = 
REMARK  1 active torsions:
REMARK  status: ('A' for Active; 'I' for Inactive)
REMARK    1  A    between atoms: N_1  and  C_2
REMARK                            x       y       z     vdW  Elec       q    Type
REMARK                         _______ _______ _______ _____ _____    ______ ____
ROOT
ATOM      1  C   UNL     1       7.243   7.222  17.445  0.00  0.00    +0.000 C 
ATOM      2  C   UNL     1       6.619   6.042  17.281  0.00  0.00    +0.000 C 
ATOM      3  C   UNL     1       6.952   4.870  18.119  0.00  0.00    +0.000 C 
ATOM      4  O   UNL     1       8.034   4.719  18.677  0.00  0.00    +0.000 OA
ATOM      5  N   UNL     1       5.954   3.943  18.210  0.00  0.00    +0.000 N 
ATOM      6  C   UNL     1       4.818   3.902  17.464  0.00  0.00    +0.000 C 
ATOM      7  O   UNL     1       3.993   3.001  17.593  0.00  0.00    +0.000 OA
ATOM      8  N   UNL     1       4.653   4.895  16.544  0.00  0.00    +0.000 N 
ATOM      9  C   UNL     1       5.492   5.951  16.325  0.00  0.00    +0.000 C 
ATOM     10  O   UNL     1       5.304   6.753  15.418  0.00  0.00    +0.000 OA
ATOM     11  H   UNL     1       6.120   3.154  18.822  0.00  0.00    +0.000 HD
ATOM     12  H   UNL     1       3.839   4.828  15.948  0.00  0.00    +0.000 HD
ENDROOT
BRANCH   1  13
ATOM     13  N   UNL     1       8.213   7.562  18.359  0.00  0.00    +0.000 N 
ATOM     14  H   UNL     1       7.918   8.219  19.077  0.00  0.00    +0.000 HD
ATOM     15  H   UNL     1       9.114   7.808  17.933  0.00  0.00    +0.000 HD
ENDBRANCH   1  13
TORSDOF 1
ENDMDL
