MODEL 1
REMARK VINA RESULT:      -6.7      0.000      0.000
REMARK  Name = 
REMARK  1 active torsions:
REMARK  status: ('A' for Active; 'I' for Inactive)
REMARK    1  A    between atoms: C_2  and  C_12
REMARK                            x       y       z     vdW  Elec       q    Type
REMARK                         _______ _______ _______ _____ _____    ______ ____
ROOT
ATOM      1  O   UNL     1       4.948   5.518  16.019  0.00  0.00    +0.000 OA
ATOM      2  C   UNL     1       5.283   4.333  15.920  0.00  0.00    +0.000 C 
ATOM      3  N   UNL     1       4.928   3.330  16.798  0.00  0.00    +0.000 N 
ATOM      4  C   UNL     1       4.093   3.474  17.881  0.00  0.00    +0.000 A 
ATOM      5  N   UNL     1       4.038   2.571  18.847  0.00  0.00    +0.000 NA
ATOM      6  C   UNL     1       3.154   3.030  19.782  0.00  0.00    +0.000 A 
ATOM      7  C   UNL     1       2.514   4.199  19.492  0.00  0.00    +0.000 A 
ATOM      8  S   UNL     1       3.003   4.813  18.023  0.00  0.00    +0.000 S 
ATOM      9  C   UNL     1       1.590   4.662  20.541  0.00  0.00    +0.000 C 
ATOM     10  C   UNL     1       2.039   3.752  21.732  0.00  0.00    +0.000 C 
ATOM     11  C   UNL     1       2.770   2.509  21.111  0.00  0.00    +0.000 C 
ATOM     12  H   UNL     1       5.400   2.439  16.765  0.00  0.00    +0.000 HD
ENDROOT
BRANCH   2  13
ATOM     13  C   UNL     1       6.210   3.888  14.770  0.00  0.00    +0.000 C 
ATOM     14  C   UNL     1       5.683   3.763  13.315  0.00  0.00    +0.000 C 
ATOM     15  C   UNL     1       7.034   4.340  12.842  0.00  0.00    +0.000 C 
ATOM     16  C   UNL     1       7.160   4.996  14.223  0.00  0.00    +0.000 C 
ENDBRANCH   2  13
TORSDOF 1
ENDMDL
MODEL 2
REMARK VINA RESULT:      -6.6      2.877      3.467
REMARK  Name = 
REMARK  1 active torsions:
REMARK  status: ('A' for Active; 'I' for Inactive)
REMARK    1  A    between atoms: C_2  and  C_12
REMARK                            x       y       z     vdW  Elec       q    Type
REMARK                         _______ _______ _______ _____ _____    ______ ____
ROOT
ATOM      1  O   UNL     1       6.054   4.929  16.446  0.00  0.00    +0.000 OA
ATOM      2  C   UNL     1       6.260   5.680  17.404  0.00  0.00    +0.000 C 
ATOM      3  N   UNL     1       5.499   5.731  18.553  0.00  0.00    +0.000 N 
ATOM      4  C   UNL     1       4.434   4.910  18.845  0.00  0.00    +0.000 A 
ATOM      5  N   UNL     1       3.566   5.202  19.800  0.00  0.00    +0.000 NA
ATOM      6  C   UNL     1       2.620   4.217  19.803  0.00  0.00    +0.000 A 
ATOM      7  C   UNL     1       2.813   3.186  18.932  0.00  0.00    +0.000 A 
ATOM      8  S   UNL     1       4.195   3.400  18.030  0.00  0.00    +0.000 S 
ATOM      9  C   UNL     1       1.753   2.162  18.959  0.00  0.00    +0.000 C 
ATOM     10  C   UNL     1       0.645   2.927  19.756  0.00  0.00    +0.000 C 
ATOM     11  C   UNL     1       1.363   4.064  20.566  0.00  0.00    +0.000 C 
ATOM     12  H   UNL     1       5.605   6.501  19.197  0.00  0.00    +0.000 HD
ENDROOT
BRANCH   2  13
ATOM     13  C   UNL     1       7.418   6.698  17.350  0.00  0.00    +0.000 C 
ATOM     14  C   UNL     1       7.146   8.226  17.349  0.00  0.00    +0.000 C 
ATOM     15  C   UNL     1       8.379   8.385  18.262  0.00  0.00    +0.000 C 
ATOM     16  C   UNL     1       8.153   6.932  18.704  0.00  0.00    +0.000 C 
ENDBRANCH   2  13
TORSDOF 1
ENDMDL
MODEL 3
REMARK VINA RESULT:      -6.6      1.313      1.598
REMARK  Name = 
REMARK  1 active torsions:
REMARK  status: ('A' for Active; 'I' for Inactive)
REMARK    1  A    between atoms: C_2  and  C_12
REMARK                            x       y       z     vdW  Elec       q    Type
REMARK                         _______ _______ _______ _____ _____    ______ ____
ROOT
ATOM      1  O   UNL     1       6.169   5.106  17.400  0.00  0.00    +0.000 OA
ATOM      2  C   UNL     1       5.379   4.947  16.464  0.00  0.00    +0.000 C 
ATOM      3  N   UNL     1       4.069   4.536  16.590  0.00  0.00    +0.000 N 
ATOM      4  C   UNL     1       3.414   4.306  17.778  0.00  0.00    +0.000 A 
ATOM      5  N   UNL     1       2.278   3.629  17.831  0.00  0.00    +0.000 NA
ATOM      6  C   UNL     1       1.918   3.543  19.145  0.00  0.00    +0.000 A 
ATOM      7  C   UNL     1       2.716   4.196  20.039  0.00  0.00    +0.000 A 
ATOM      8  S   UNL     1       3.992   4.948  19.280  0.00  0.00    +0.000 S 
ATOM      9  C   UNL     1       2.297   4.053  21.445  0.00  0.00    +0.000 C 
ATOM     10  C   UNL     1       1.283   2.868  21.316  0.00  0.00    +0.000 C 
ATOM     11  C   UNL     1       0.816   2.824  19.818  0.00  0.00    +0.000 C 
ATOM     12  H   UNL     1       3.551   4.237  15.777  0.00  0.00    +0.000 HD
ENDROOT
BRANCH   2  13
ATOM     13  C   UNL     1       5.852   5.162  15.011  0.00  0.00    +0.000 C 
ATOM     14  C   UNL     1       7.318   4.875  14.591  0.00  0.00    +0.000 C 
ATOM     15  C   UNL     1       6.765   4.309  13.268  0.00  0.00    +0.000 C 
ATOM     16  C   UNL     1       5.453   4.032  14.015  0.00  0.00    +0.000 C 
ENDBRANCH   2  13
TORSDOF 1
ENDMDL
MODEL 4
REMARK VINA RESULT:      -6.5      1.007      1.255
REMARK  Name = 
REMARK  1 active torsions:
REMARK  status: ('A' for Active; 'I' for Inactive)
REMARK    1  A    between atoms: C_2  and  C_12
REMARK                            x       y       z     vdW  Elec       q    Type
REMARK                         _______ _______ _______ _____ _____    ______ ____
ROOT
ATOM      1  O   UNL     1       4.666   6.524  16.719  0.00  0.00    +0.000 OA
ATOM      2  C   UNL     1       4.859   5.445  16.152  0.00  0.00    +0.000 C 
ATOM      3  N   UNL     1       4.355   4.228  16.562  0.00  0.00    +0.000 N 
ATOM      4  C   UNL     1       3.503   4.034  17.625  0.00  0.00    +0.000 A 
ATOM      5  N   UNL     1       3.304   2.836  18.151  0.00  0.00    +0.000 NA
ATOM      6  C   UNL     1       2.448   2.992  19.203  0.00  0.00    +0.000 A 
ATOM      7  C   UNL     1       1.964   4.251  19.412  0.00  0.00    +0.000 A 
ATOM      8  S   UNL     1       2.577   5.331  18.303  0.00  0.00    +0.000 S 
ATOM      9  C   UNL     1       1.063   4.370  20.572  0.00  0.00    +0.000 C 
ATOM     10  C   UNL     1       1.356   3.014  21.295  0.00  0.00    +0.000 C 
ATOM     11  C   UNL     1       1.955   2.039  20.220  0.00  0.00    +0.000 C 
ATOM     12  H   UNL     1       4.717   3.372  16.170  0.00  0.00    +0.000 HD
ENDROOT
BRANCH   2  13
ATOM     13  C   UNL     1       5.768   5.381  14.906  0.00  0.00    +0.000 C 
ATOM     14  C   UNL     1       7.177   4.734  14.972  0.00  0.00    +0.000 C 
ATOM     15  C   UNL     1       6.908   4.152  13.569  0.00  0.00    +0.000 C 
ATOM     16  C   UNL     1       5.411   4.256  13.888  0.00  0.00    +0.000 C 
ENDBRANCH   2  13
TORSDOF 1
ENDMDL
MODEL 5
REMARK VINA RESULT:      -6.5      1.300      1.473
REMARK  Name = 
REMARK  1 active torsions:
REMARK  status: ('A' for Active; 'I' for Inactive)
REMARK    1  A    between atoms: C_2  and  C_12
REMARK                            x       y       z     vdW  Elec       q    Type
REMARK                         _______ _______ _______ _____ _____    ______ ____
ROOT
ATOM      1  O   UNL     1       6.207   5.890  15.753  0.00  0.00    +0.000 OA
ATOM      2  C   UNL     1       5.812   4.771  15.409  0.00  0.00    +0.000 C 
ATOM      3  N   UNL     1       4.802   4.060  16.023  0.00  0.00    +0.000 N 
ATOM      4  C   UNL     1       4.029   4.511  17.068  0.00  0.00    +0.000 A 
ATOM      5  N   UNL     1       3.300   3.687  17.804  0.00  0.00    +0.000 NA
ATOM      6  C   UNL     1       2.694   4.437  18.771  0.00  0.00    +0.000 A 
ATOM      7  C   UNL     1       2.902   5.784  18.717  0.00  0.00    +0.000 A 
ATOM      8  S   UNL     1       3.898   6.195  17.448  0.00  0.00    +0.000 S 
ATOM      9  C   UNL     1       2.245   6.544  19.795  0.00  0.00    +0.000 C 
ATOM     10  C   UNL     1       1.878   5.380  20.774  0.00  0.00    +0.000 C 
ATOM     11  C   UNL     1       1.858   4.057  19.930  0.00  0.00    +0.000 C 
ATOM     12  H   UNL     1       4.675   3.081  15.816  0.00  0.00    +0.000 HD
ENDROOT
BRANCH   2  13
ATOM     13  C   UNL     1       6.498   4.038  14.237  0.00  0.00    +0.000 C 
ATOM     14  C   UNL     1       5.709   3.651  12.958  0.00  0.00    +0.000 C 
ATOM     15  C   UNL     1       6.963   4.028  12.143  0.00  0.00    +0.000 C 
ATOM     16  C   UNL     1       7.360   4.945  13.308  0.00  0.00    +0.000 C 
ENDBRANCH   2  13
TORSDOF 1
ENDMDL
MODEL 6
REMARK VINA RESULT:      -6.3      3.871      7.154
REMARK  Name = 
REMARK  1 active torsions:
REMARK  status: ('A' for Active; 'I' for Inactive)
REMARK    1  A    between atoms: C_2  and  C_12
REMARK                            x       y       z     vdW  Elec       q    Type
REMARK                         _______ _______ _______ _____ _____    ______ ____
ROOT
ATOM      1  O   UNL     1       1.574   8.620  19.514  0.00  0.00    +0.000 OA
ATOM      2  C   UNL     1       1.453   8.193  20.666  0.00  0.00    +0.000 C 
ATOM      3  N   UNL     1       1.607   6.876  21.046  0.00  0.00    +0.000 N 
ATOM      4  C   UNL     1       1.986   5.844  20.219  0.00  0.00    +0.000 A 
ATOM      5  N   UNL     1       1.819   4.577  20.561  0.00  0.00    +0.000 NA
ATOM      6  C   UNL     1       2.253   3.814  19.515  0.00  0.00    +0.000 A 
ATOM      7  C   UNL     1       2.795   4.483  18.457  0.00  0.00    +0.000 A 
ATOM      8  S   UNL     1       2.773   6.130  18.703  0.00  0.00    +0.000 S 
ATOM      9  C   UNL     1       3.226   3.617  17.346  0.00  0.00    +0.000 C 
ATOM     10  C   UNL     1       2.513   2.281  17.740  0.00  0.00    +0.000 C 
ATOM     11  C   UNL     1       2.214   2.355  19.279  0.00  0.00    +0.000 C 
ATOM     12  H   UNL     1       1.297   6.573  21.958  0.00  0.00    +0.000 HD
ENDROOT
BRANCH   2  13
ATOM     13  C   UNL     1       1.052   9.152  21.805  0.00  0.00    +0.000 C 
ATOM     14  C   UNL     1       0.535  10.585  21.507  0.00  0.00    +0.000 C 
ATOM     15  C   UNL     1      -0.470  10.398  22.661  0.00  0.00    +0.000 C 
ATOM     16  C   UNL     1      -0.352   8.885  22.428  0.00  0.00    +0.000 C 
ENDBRANCH   2  13
TORSDOF 1
ENDMDL
MODEL 7
REMARK VINA RESULT:      -6.3      1.367      1.868
REMARK  Name = 
REMARK  1 active torsions:
REMARK  status: ('A' for Active; 'I' for Inactive)
REMARK    1  A    between atoms: C_2  and  C_12
REMARK                            x       y       z     vdW  Elec       q    Type
REMARK                         _______ _______ _______ _____ _____    ______ ____
ROOT
ATOM      1  O   UNL     1       5.763   3.059  16.505  0.00  0.00    +0.000 OA
ATOM      2  C   UNL     1       5.237   4.115  16.140  0.00  0.00    +0.000 C 
ATOM      3  N   UNL     1       4.196   4.750  16.785  0.00  0.00    +0.000 N 
ATOM      4  C   UNL     1       3.626   4.348  17.970  0.00  0.00    +0.000 A 
ATOM      5  N   UNL     1       2.452   4.807  18.374  0.00  0.00    +0.000 NA
ATOM      6  C   UNL     1       2.156   4.185  19.552  0.00  0.00    +0.000 A 
ATOM      7  C   UNL     1       3.107   3.344  20.053  0.00  0.00    +0.000 A 
ATOM      8  S   UNL     1       4.436   3.266  19.054  0.00  0.00    +0.000 S 
ATOM      9  C   UNL     1       2.729   2.681  21.313  0.00  0.00    +0.000 C 
ATOM     10  C   UNL     1       1.192   2.974  21.334  0.00  0.00    +0.000 C 
ATOM     11  C   UNL     1       0.947   4.214  20.403  0.00  0.00    +0.000 C 
ATOM     12  H   UNL     1       3.691   5.491  16.322  0.00  0.00    +0.000 HD
ENDROOT
BRANCH   2  13
ATOM     13  C   UNL     1       5.706   4.800  14.840  0.00  0.00    +0.000 C 
ATOM     14  C   UNL     1       7.192   5.196  14.630  0.00  0.00    +0.000 C 
ATOM     15  C   UNL     1       7.038   4.757  13.159  0.00  0.00    +0.000 C 
ATOM     16  C   UNL     1       5.895   3.845  13.623  0.00  0.00    +0.000 C 
ENDBRANCH   2  13
TORSDOF 1
ENDMDL
MODEL 8
REMARK VINA RESULT:      -6.2      1.599      6.423
REMARK  Name = 
REMARK  1 active torsions:
REMARK  status: ('A' for Active; 'I' for Inactive)
REMARK    1  A    between atoms: C_2  and  C_12
REMARK                            x       y       z     vdW  Elec       q    Type
REMARK                         _______ _______ _______ _____ _____    ______ ____
ROOT
ATOM      1  O   UNL     1       3.716   5.801  19.891  0.00  0.00    +0.000 OA
ATOM      2  C   UNL     1       3.115   4.759  19.612  0.00  0.00    +0.000 C 
ATOM      3  N   UNL     1       3.366   3.967  18.511  0.00  0.00    +0.000 N 
ATOM      4  C   UNL     1       4.367   4.171  17.590  0.00  0.00    +0.000 A 
ATOM      5  N   UNL     1       4.365   3.572  16.411  0.00  0.00    +0.000 NA
ATOM      6  C   UNL     1       5.461   4.017  15.728  0.00  0.00    +0.000 A 
ATOM      7  C   UNL     1       6.293   4.864  16.399  0.00  0.00    +0.000 A 
ATOM      8  S   UNL     1       5.737   5.173  17.937  0.00  0.00    +0.000 S 
ATOM      9  C   UNL     1       7.447   5.334  15.611  0.00  0.00    +0.000 C 
ATOM     10  C   UNL     1       6.992   4.916  14.173  0.00  0.00    +0.000 C 
ATOM     11  C   UNL     1       5.917   3.785  14.341  0.00  0.00    +0.000 C 
ATOM     12  H   UNL     1       2.708   3.250  18.243  0.00  0.00    +0.000 HD
ENDROOT
BRANCH   2  13
ATOM     13  C   UNL     1       1.948   4.280  20.500  0.00  0.00    +0.000 C 
ATOM     14  C   UNL     1       1.095   3.044  20.111  0.00  0.00    +0.000 C 
ATOM     15  C   UNL     1       1.070   2.666  21.606  0.00  0.00    +0.000 C 
ATOM     16  C   UNL     1       2.371   3.464  21.759  0.00  0.00    +0.000 C 
ENDBRANCH   2  13
TORSDOF 1
ENDMDL
MODEL 9
REMARK VINA RESULT:      -6.1      3.141      3.740
REMARK  Name = 
REMARK  1 active torsions:
REMARK  status: ('A' for Active; 'I' for Inactive)
REMARK    1  A    between atoms: C_2  and  C_12
REMARK                            x       y       z     vdW  Elec       q    Type
REMARK                         _______ _______ _______ _____ _____    ______ ____
ROOT
ATOM      1  O   UNL     1       7.031   4.575  18.932  0.00  0.00    +0.000 OA
ATOM      2  C   UNL     1       6.584   5.532  18.293  0.00  0.00    +0.000 C 
ATOM      3  N   UNL     1       5.257   5.721  17.968  0.00  0.00    +0.000 N 
ATOM      4  C   UNL     1       4.215   4.914  18.362  0.00  0.00    +0.000 A 
ATOM      5  N   UNL     1       3.029   4.967  17.776  0.00  0.00    +0.000 NA
ATOM      6  C   UNL     1       2.242   4.020  18.367  0.00  0.00    +0.000 A 
ATOM      7  C   UNL     1       2.794   3.334  19.408  0.00  0.00    +0.000 A 
ATOM      8  S   UNL     1       4.358   3.823  19.700  0.00  0.00    +0.000 S 
ATOM      9  C   UNL     1       1.913   2.309  19.995  0.00  0.00    +0.000 C 
ATOM     10  C   UNL     1       0.816   2.213  18.884  0.00  0.00    +0.000 C 
ATOM     11  C   UNL     1       0.874   3.550  18.063  0.00  0.00    +0.000 C 
ATOM     12  H   UNL     1       4.998   6.411  17.278  0.00  0.00    +0.000 HD
ENDROOT
BRANCH   2  13
ATOM     13  C   UNL     1       7.543   6.609  17.745  0.00  0.00    +0.000 C 
ATOM     14  C   UNL     1       7.023   8.005  17.312  0.00  0.00    +0.000 C 
ATOM     15  C   UNL     1       8.304   8.606  17.927  0.00  0.00    +0.000 C 
ATOM     16  C   UNL     1       8.371   7.365  18.827  0.00  0.00    +0.000 C 
ENDBRANCH   2  13
TORSDOF 1
ENDMDL
