MODEL 1
REMARK VINA RESULT:      -8.7      0.000      0.000
REMARK  Name = 
REMARK  7 active torsions:
REMARK  status: ('A' for Active; 'I' for Inactive)
REMARK    1  A    between atoms: C_1  and  O_2
REMARK    2  A    between atoms: O_2  and  C_3
REMARK    3  A    between atoms: C_8  and  O_9
REMARK    4  A    between atoms: O_9  and  C_10
REMARK    5  A    between atoms: C_14  and  C_15
REMARK    6  A    between atoms: C_18  and  C_19
REMARK    7  A    between atoms: N_21  and  C_22
REMARK                            x       y       z     vdW  Elec       q    Type
REMARK                         _______ _______ _______ _____ _____    ______ ____
ROOT
ATOM      1  C   UNL     1       3.893   3.995  18.905  0.00  0.00    +0.000 A 
ATOM      2  C   UNL     1       3.230   4.741  19.905  0.00  0.00    +0.000 A 
ATOM      3  C   UNL     1       2.801   6.019  19.610  0.00  0.00    +0.000 A 
ATOM      4  C   UNL     1       3.121   6.588  18.358  0.00  0.00    +0.000 A 
ATOM      5  C   UNL     1       3.865   5.923  17.412  0.00  0.00    +0.000 A 
ATOM      6  C   UNL     1       4.257   4.606  17.676  0.00  0.00    +0.000 A 
ATOM      7  C   UNL     1       2.493   7.856  18.335  0.00  0.00    +0.000 A 
ATOM      8  N   UNL     1       2.360   8.845  17.466  0.00  0.00    +0.000 NA
ATOM      9  N   UNL     1       1.563   9.707  18.146  0.00  0.00    +0.000 N 
ATOM     10  C   UNL     1       1.176   9.273  19.407  0.00  0.00    +0.000 A 
ATOM     11  C   UNL     1       1.800   8.054  19.535  0.00  0.00    +0.000 A 
ATOM     12  C   UNL     1       1.925   6.919  20.489  0.00  0.00    +0.000 C 
ATOM     13  H   UNL     1       1.320  10.582  17.699  0.00  0.00    +0.000 HD
ENDROOT
BRANCH  10  14
ATOM     14  C   UNL     1       0.325  10.039  20.306  0.00  0.00    +0.000 A 
ATOM     15  C   UNL     1      -0.563  11.008  19.820  0.00  0.00    +0.000 A 
ATOM     16  C   UNL     1      -1.349  11.758  20.703  0.00  0.00    +0.000 A 
ATOM     17  C   UNL     1      -1.275  11.542  22.083  0.00  0.00    +0.000 A 
ATOM     18  C   UNL     1      -0.395  10.568  22.567  0.00  0.00    +0.000 A 
ATOM     19  C   UNL     1       0.394   9.824  21.687  0.00  0.00    +0.000 A 
BRANCH  17  20
ATOM     20  C   UNL     1      -2.100  12.323  22.984  0.00  0.00    +0.000 A 
ATOM     21  C   UNL     1      -1.797  13.579  23.465  0.00  0.00    +0.000 A 
ATOM     22  N   UNL     1      -2.851  13.914  24.266  0.00  0.00    +0.000 N 
ATOM     23  C   UNL     1      -3.003  15.142  25.000  0.00  0.00    +0.000 C 
ATOM     24  C   UNL     1      -3.734  12.874  24.252  0.00  0.00    +0.000 A 
ATOM     25  N   UNL     1      -3.302  11.890  23.496  0.00  0.00    +0.000 NA
ENDBRANCH  17  20
ENDBRANCH  10  14
BRANCH   1  27
ATOM     26  C   UNL     1       3.226   1.747  18.600  0.00  0.00    +0.000 C 
ATOM     27  O   UNL     1       4.184   2.672  19.125  0.00  0.00    +0.000 OA
ENDBRANCH   1  27
BRANCH   6  28
ATOM     28  O   UNL     1       4.942   4.071  16.617  0.00  0.00    +0.000 OA
ATOM     29  C   UNL     1       6.311   4.386  16.435  0.00  0.00    +0.000 C 
ENDBRANCH   6  28
TORSDOF 4
ENDMDL
MODEL 2
REMARK VINA RESULT:      -8.6      0.631      1.105
REMARK  Name = 
REMARK  7 active torsions:
REMARK  status: ('A' for Active; 'I' for Inactive)
REMARK    1  A    between atoms: C_1  and  O_2
REMARK    2  A    between atoms: O_2  and  C_3
REMARK    3  A    between atoms: C_8  and  O_9
REMARK    4  A    between atoms: O_9  and  C_10
REMARK    5  A    between atoms: C_14  and  C_15
REMARK    6  A    between atoms: C_18  and  C_19
REMARK    7  A    between atoms: N_21  and  C_22
REMARK                            x       y       z     vdW  Elec       q    Type
REMARK                         _______ _______ _______ _____ _____    ______ ____
ROOT
ATOM      1  C   UNL     1       3.855   4.483  18.772  0.00  0.00    +0.000 A 
ATOM      2  C   UNL     1       3.216   5.202  19.808  0.00  0.00    +0.000 A 
ATOM      3  C   UNL     1       2.727   6.464  19.541  0.00  0.00    +0.000 A 
ATOM      4  C   UNL     1       2.963   7.048  18.277  0.00  0.00    +0.000 A 
ATOM      5  C   UNL     1       3.682   6.413  17.291  0.00  0.00    +0.000 A 
ATOM      6  C   UNL     1       4.134   5.110  17.529  0.00  0.00    +0.000 A 
ATOM      7  C   UNL     1       2.289   8.292  18.291  0.00  0.00    +0.000 A 
ATOM      8  N   UNL     1       2.076   9.278  17.434  0.00  0.00    +0.000 NA
ATOM      9  N   UNL     1       1.284  10.108  18.158  0.00  0.00    +0.000 N 
ATOM     10  C   UNL     1       0.977   9.657  19.435  0.00  0.00    +0.000 A 
ATOM     11  C   UNL     1       1.650   8.462  19.525  0.00  0.00    +0.000 A 
ATOM     12  C   UNL     1       1.865   7.330  20.467  0.00  0.00    +0.000 C 
ATOM     13  H   UNL     1       0.987  10.976  17.728  0.00  0.00    +0.000 HD
ENDROOT
BRANCH  10  14
ATOM     14  C   UNL     1       0.146  10.389  20.379  0.00  0.00    +0.000 A 
ATOM     15  C   UNL     1       0.130  10.063  21.741  0.00  0.00    +0.000 A 
ATOM     16  C   UNL     1      -0.702  10.757  22.629  0.00  0.00    +0.000 A 
ATOM     17  C   UNL     1      -1.517  11.798  22.175  0.00  0.00    +0.000 A 
ATOM     18  C   UNL     1      -1.495  12.129  20.816  0.00  0.00    +0.000 A 
ATOM     19  C   UNL     1      -0.670  11.433  19.929  0.00  0.00    +0.000 A 
BRANCH  17  20
ATOM     20  C   UNL     1      -2.369  12.511  23.108  0.00  0.00    +0.000 A 
ATOM     21  C   UNL     1      -2.206  13.822  23.502  0.00  0.00    +0.000 A 
ATOM     22  N   UNL     1      -3.229  14.058  24.374  0.00  0.00    +0.000 N 
ATOM     23  C   UNL     1      -3.492  15.295  25.061  0.00  0.00    +0.000 C 
ATOM     24  C   UNL     1      -3.957  12.910  24.485  0.00  0.00    +0.000 A 
ATOM     25  N   UNL     1      -3.455  11.951  23.741  0.00  0.00    +0.000 NA
ENDBRANCH  17  20
ENDBRANCH  10  14
BRANCH   1  27
ATOM     26  C   UNL     1       3.618   2.558  20.126  0.00  0.00    +0.000 C 
ATOM     27  O   UNL     1       4.204   3.171  18.972  0.00  0.00    +0.000 OA
ENDBRANCH   1  27
BRANCH   6  28
ATOM     28  O   UNL     1       4.783   4.603  16.435  0.00  0.00    +0.000 OA
ATOM     29  C   UNL     1       5.471   5.479  15.558  0.00  0.00    +0.000 C 
ENDBRANCH   6  28
TORSDOF 4
ENDMDL
MODEL 3
REMARK VINA RESULT:      -8.2      0.904      1.424
REMARK  Name = 
REMARK  7 active torsions:
REMARK  status: ('A' for Active; 'I' for Inactive)
REMARK    1  A    between atoms: C_1  and  O_2
REMARK    2  A    between atoms: O_2  and  C_3
REMARK    3  A    between atoms: C_8  and  O_9
REMARK    4  A    between atoms: O_9  and  C_10
REMARK    5  A    between atoms: C_14  and  C_15
REMARK    6  A    between atoms: C_18  and  C_19
REMARK    7  A    between atoms: N_21  and  C_22
REMARK                            x       y       z     vdW  Elec       q    Type
REMARK                         _______ _______ _______ _____ _____    ______ ____
ROOT
ATOM      1  C   UNL     1       3.772   4.500  18.975  0.00  0.00    +0.000 A 
ATOM      2  C   UNL     1       3.063   5.263  19.931  0.00  0.00    +0.000 A 
ATOM      3  C   UNL     1       2.624   6.524  19.585  0.00  0.00    +0.000 A 
ATOM      4  C   UNL     1       2.976   7.062  18.328  0.00  0.00    +0.000 A 
ATOM      5  C   UNL     1       3.762   6.383  17.426  0.00  0.00    +0.000 A 
ATOM      6  C   UNL     1       4.167   5.081  17.741  0.00  0.00    +0.000 A 
ATOM      7  C   UNL     1       2.329   8.318  18.247  0.00  0.00    +0.000 A 
ATOM      8  N   UNL     1       2.209   9.279  17.345  0.00  0.00    +0.000 NA
ATOM      9  N   UNL     1       1.375  10.146  17.973  0.00  0.00    +0.000 N 
ATOM     10  C   UNL     1       0.954   9.742  19.233  0.00  0.00    +0.000 A 
ATOM     11  C   UNL     1       1.593   8.539  19.417  0.00  0.00    +0.000 A 
ATOM     12  C   UNL     1       1.705   7.434  20.408  0.00  0.00    +0.000 C 
ATOM     13  H   UNL     1       1.134  11.004  17.493  0.00  0.00    +0.000 HD
ENDROOT
BRANCH  10  14
ATOM     14  C   UNL     1       0.061  10.519  20.081  0.00  0.00    +0.000 A 
ATOM     15  C   UNL     1       0.177  10.493  21.477  0.00  0.00    +0.000 A 
ATOM     16  C   UNL     1      -0.713  11.221  22.277  0.00  0.00    +0.000 A 
ATOM     17  C   UNL     1      -1.719  11.999  21.698  0.00  0.00    +0.000 A 
ATOM     18  C   UNL     1      -1.828  12.032  20.303  0.00  0.00    +0.000 A 
ATOM     19  C   UNL     1      -0.946  11.301  19.505  0.00  0.00    +0.000 A 
BRANCH  17  20
ATOM     20  C   UNL     1      -2.629  12.752  22.539  0.00  0.00    +0.000 A 
ATOM     21  C   UNL     1      -3.997  12.818  22.386  0.00  0.00    +0.000 A 
ATOM     22  N   UNL     1      -4.427  13.631  23.394  0.00  0.00    +0.000 N 
ATOM     23  C   UNL     1      -5.791  14.007  23.659  0.00  0.00    +0.000 C 
ATOM     24  C   UNL     1      -3.334  14.030  24.105  0.00  0.00    +0.000 A 
ATOM     25  N   UNL     1      -2.228  13.526  23.605  0.00  0.00    +0.000 NA
ENDBRANCH  17  20
ENDBRANCH  10  14
BRANCH   1  27
ATOM     26  C   UNL     1       3.031   2.254  18.956  0.00  0.00    +0.000 C 
ATOM     27  O   UNL     1       4.076   3.188  19.244  0.00  0.00    +0.000 OA
ENDBRANCH   1  27
BRANCH   6  28
ATOM     28  O   UNL     1       4.895   4.527  16.722  0.00  0.00    +0.000 OA
ATOM     29  C   UNL     1       6.309   4.496  16.805  0.00  0.00    +0.000 C 
ENDBRANCH   6  28
TORSDOF 4
ENDMDL
MODEL 4
REMARK VINA RESULT:      -8.0      1.213      1.592
REMARK  Name = 
REMARK  7 active torsions:
REMARK  status: ('A' for Active; 'I' for Inactive)
REMARK    1  A    between atoms: C_1  and  O_2
REMARK    2  A    between atoms: O_2  and  C_3
REMARK    3  A    between atoms: C_8  and  O_9
REMARK    4  A    between atoms: O_9  and  C_10
REMARK    5  A    between atoms: C_14  and  C_15
REMARK    6  A    between atoms: C_18  and  C_19
REMARK    7  A    between atoms: N_21  and  C_22
REMARK                            x       y       z     vdW  Elec       q    Type
REMARK                         _______ _______ _______ _____ _____    ______ ____
ROOT
ATOM      1  C   UNL     1       2.908   4.158  19.338  0.00  0.00    +0.000 A 
ATOM      2  C   UNL     1       2.470   5.079  20.317  0.00  0.00    +0.000 A 
ATOM      3  C   UNL     1       2.229   6.385  19.943  0.00  0.00    +0.000 A 
ATOM      4  C   UNL     1       2.519   6.796  18.624  0.00  0.00    +0.000 A 
ATOM      5  C   UNL     1       3.053   5.944  17.685  0.00  0.00    +0.000 A 
ATOM      6  C   UNL     1       3.249   4.604  18.034  0.00  0.00    +0.000 A 
ATOM      7  C   UNL     1       2.105   8.146  18.537  0.00  0.00    +0.000 A 
ATOM      8  N   UNL     1       2.053   9.075  17.595  0.00  0.00    +0.000 NA
ATOM      9  N   UNL     1       1.473  10.108  18.256  0.00  0.00    +0.000 N 
ATOM     10  C   UNL     1       1.141   9.842  19.578  0.00  0.00    +0.000 A 
ATOM     11  C   UNL     1       1.568   8.549  19.765  0.00  0.00    +0.000 A 
ATOM     12  C   UNL     1       1.597   7.484  20.805  0.00  0.00    +0.000 C 
ATOM     13  H   UNL     1       1.335  10.975  17.753  0.00  0.00    +0.000 HD
ENDROOT
BRANCH  10  14
ATOM     14  C   UNL     1       0.514  10.807  20.469  0.00  0.00    +0.000 A 
ATOM     15  C   UNL     1      -0.225  10.394  21.586  0.00  0.00    +0.000 A 
ATOM     16  C   UNL     1      -0.850  11.336  22.413  0.00  0.00    +0.000 A 
ATOM     17  C   UNL     1      -0.733  12.704  22.149  0.00  0.00    +0.000 A 
ATOM     18  C   UNL     1       0.012  13.117  21.039  0.00  0.00    +0.000 A 
ATOM     19  C   UNL     1       0.630  12.177  20.210  0.00  0.00    +0.000 A 
BRANCH  17  20
ATOM     20  C   UNL     1      -1.380  13.668  23.018  0.00  0.00    +0.000 A 
ATOM     21  C   UNL     1      -2.733  13.929  23.062  0.00  0.00    +0.000 A 
ATOM     22  N   UNL     1      -2.877  14.894  24.016  0.00  0.00    +0.000 N 
ATOM     23  C   UNL     1      -4.113  15.501  24.431  0.00  0.00    +0.000 C 
ATOM     24  C   UNL     1      -1.637  15.187  24.505  0.00  0.00    +0.000 A 
ATOM     25  N   UNL     1      -0.708  14.471  23.912  0.00  0.00    +0.000 NA
ENDBRANCH  17  20
ENDBRANCH  10  14
BRANCH   1  27
ATOM     26  C   UNL     1       4.309   2.379  20.022  0.00  0.00    +0.000 C 
ATOM     27  O   UNL     1       2.999   2.825  19.654  0.00  0.00    +0.000 OA
ENDBRANCH   1  27
BRANCH   6  28
ATOM     28  O   UNL     1       3.737   3.882  16.977  0.00  0.00    +0.000 OA
ATOM     29  C   UNL     1       5.071   4.083  16.544  0.00  0.00    +0.000 C 
ENDBRANCH   6  28
TORSDOF 4
ENDMDL
MODEL 5
REMARK VINA RESULT:      -7.9      1.028      1.036
REMARK  Name = 
REMARK  7 active torsions:
REMARK  status: ('A' for Active; 'I' for Inactive)
REMARK    1  A    between atoms: C_1  and  O_2
REMARK    2  A    between atoms: O_2  and  C_3
REMARK    3  A    between atoms: C_8  and  O_9
REMARK    4  A    between atoms: O_9  and  C_10
REMARK    5  A    between atoms: C_14  and  C_15
REMARK    6  A    between atoms: C_18  and  C_19
REMARK    7  A    between atoms: N_21  and  C_22
REMARK                            x       y       z     vdW  Elec       q    Type
REMARK                         _______ _______ _______ _____ _____    ______ ____
ROOT
ATOM      1  C   UNL     1       3.514   4.339  19.277  0.00  0.00    +0.000 A 
ATOM      2  C   UNL     1       2.843   5.203  20.173  0.00  0.00    +0.000 A 
ATOM      3  C   UNL     1       2.475   6.460  19.738  0.00  0.00    +0.000 A 
ATOM      4  C   UNL     1       2.864   6.892  18.451  0.00  0.00    +0.000 A 
ATOM      5  C   UNL     1       3.617   6.111  17.605  0.00  0.00    +0.000 A 
ATOM      6  C   UNL     1       3.947   4.813  18.011  0.00  0.00    +0.000 A 
ATOM      7  C   UNL     1       2.287   8.173  18.280  0.00  0.00    +0.000 A 
ATOM      8  N   UNL     1       2.226   9.075  17.314  0.00  0.00    +0.000 NA
ATOM      9  N   UNL     1       1.438  10.027  17.875  0.00  0.00    +0.000 N 
ATOM     10  C   UNL     1       0.988   9.733  19.155  0.00  0.00    +0.000 A 
ATOM     11  C   UNL     1       1.559   8.512  19.426  0.00  0.00    +0.000 A 
ATOM     12  C   UNL     1       1.604   7.473  20.490  0.00  0.00    +0.000 C 
ATOM     13  H   UNL     1       1.247  10.863  17.336  0.00  0.00    +0.000 HD
ENDROOT
BRANCH  10  14
ATOM     14  C   UNL     1       0.135  10.613  19.940  0.00  0.00    +0.000 A 
ATOM     15  C   UNL     1      -1.029  11.174  19.398  0.00  0.00    +0.000 A 
ATOM     16  C   UNL     1      -1.819  12.046  20.158  0.00  0.00    +0.000 A 
ATOM     17  C   UNL     1      -1.471  12.357  21.476  0.00  0.00    +0.000 A 
ATOM     18  C   UNL     1      -0.313  11.790  22.020  0.00  0.00    +0.000 A 
ATOM     19  C   UNL     1       0.479  10.926  21.260  0.00  0.00    +0.000 A 
BRANCH  17  20
ATOM     20  C   UNL     1      -2.302  13.256  22.253  0.00  0.00    +0.000 A 
ATOM     21  C   UNL     1      -1.993  13.762  23.497  0.00  0.00    +0.000 A 
ATOM     22  N   UNL     1      -3.055  14.552  23.831  0.00  0.00    +0.000 N 
ATOM     23  C   UNL     1      -3.204  15.306  25.048  0.00  0.00    +0.000 C 
ATOM     24  C   UNL     1      -3.956  14.496  22.808  0.00  0.00    +0.000 A 
ATOM     25  N   UNL     1      -3.536  13.710  21.843  0.00  0.00    +0.000 NA
ENDBRANCH  17  20
ENDBRANCH  10  14
BRANCH   1  27
ATOM     26  C   UNL     1       3.037   2.594  20.801  0.00  0.00    +0.000 C 
ATOM     27  O   UNL     1       3.743   3.034  19.636  0.00  0.00    +0.000 OA
ENDBRANCH   1  27
BRANCH   6  28
ATOM     28  O   UNL     1       4.649   4.153  17.037  0.00  0.00    +0.000 OA
ATOM     29  C   UNL     1       5.254   4.887  15.987  0.00  0.00    +0.000 C 
ENDBRANCH   6  28
TORSDOF 4
ENDMDL
MODEL 6
REMARK VINA RESULT:      -7.8      4.069     10.498
REMARK  Name = 
REMARK  7 active torsions:
REMARK  status: ('A' for Active; 'I' for Inactive)
REMARK    1  A    between atoms: C_1  and  O_2
REMARK    2  A    between atoms: O_2  and  C_3
REMARK    3  A    between atoms: C_8  and  O_9
REMARK    4  A    between atoms: O_9  and  C_10
REMARK    5  A    between atoms: C_14  and  C_15
REMARK    6  A    between atoms: C_18  and  C_19
REMARK    7  A    between atoms: N_21  and  C_22
REMARK                            x       y       z     vdW  Elec       q    Type
REMARK                         _______ _______ _______ _____ _____    ______ ____
ROOT
ATOM      1  C   UNL     1      -0.723  11.468  20.470  0.00  0.00    +0.000 A 
ATOM      2  C   UNL     1       0.183  11.131  19.438  0.00  0.00    +0.000 A 
ATOM      3  C   UNL     1       0.880   9.943  19.524  0.00  0.00    +0.000 A 
ATOM      4  C   UNL     1       0.751   9.144  20.681  0.00  0.00    +0.000 A 
ATOM      5  C   UNL     1      -0.037   9.508  21.748  0.00  0.00    +0.000 A 
ATOM      6  C   UNL     1      -0.793  10.681  21.650  0.00  0.00    +0.000 A 
ATOM      7  C   UNL     1       1.523   7.982  20.439  0.00  0.00    +0.000 A 
ATOM      8  N   UNL     1       1.780   6.852  21.077  0.00  0.00    +0.000 NA
ATOM      9  N   UNL     1       2.560   6.199  20.179  0.00  0.00    +0.000 N 
ATOM     10  C   UNL     1       2.778   6.881  18.990  0.00  0.00    +0.000 A 
ATOM     11  C   UNL     1       2.100   8.064  19.167  0.00  0.00    +0.000 A 
ATOM     12  C   UNL     1       1.772   9.322  18.443  0.00  0.00    +0.000 C 
ATOM     13  H   UNL     1       2.923   5.290  20.438  0.00  0.00    +0.000 HD
ENDROOT
BRANCH  10  14
ATOM     14  C   UNL     1       3.584   6.367  17.892  0.00  0.00    +0.000 A 
ATOM     15  C   UNL     1       4.327   7.224  17.070  0.00  0.00    +0.000 A 
ATOM     16  C   UNL     1       5.070   6.713  15.998  0.00  0.00    +0.000 A 
ATOM     17  C   UNL     1       5.098   5.340  15.740  0.00  0.00    +0.000 A 
ATOM     18  C   UNL     1       4.364   4.483  16.568  0.00  0.00    +0.000 A 
ATOM     19  C   UNL     1       3.617   4.992  17.633  0.00  0.00    +0.000 A 
BRANCH  17  20
ATOM     20  C   UNL     1       5.878   4.825  14.631  0.00  0.00    +0.000 A 
ATOM     21  C   UNL     1       5.467   3.853  13.743  0.00  0.00    +0.000 A 
ATOM     22  N   UNL     1       6.514   3.697  12.882  0.00  0.00    +0.000 N 
ATOM     23  C   UNL     1       6.569   2.788  11.767  0.00  0.00    +0.000 C 
ATOM     24  C   UNL     1       7.505   4.551  13.268  0.00  0.00    +0.000 A 
ATOM     25  N   UNL     1       7.156   5.239  14.332  0.00  0.00    +0.000 NA
ENDBRANCH  17  20
ENDBRANCH  10  14
BRANCH   1  27
ATOM     26  C   UNL     1      -2.779  12.306  19.655  0.00  0.00    +0.000 C 
ATOM     27  O   UNL     1      -1.540  12.562  20.325  0.00  0.00    +0.000 OA
ENDBRANCH   1  27
BRANCH   6  28
ATOM     28  O   UNL     1      -1.559  10.873  22.769  0.00  0.00    +0.000 OA
ATOM     29  C   UNL     1      -1.682  12.171  23.323  0.00  0.00    +0.000 C 
ENDBRANCH   6  28
TORSDOF 4
ENDMDL
MODEL 7
REMARK VINA RESULT:      -7.8      4.619     10.107
REMARK  Name = 
REMARK  7 active torsions:
REMARK  status: ('A' for Active; 'I' for Inactive)
REMARK    1  A    between atoms: C_1  and  O_2
REMARK    2  A    between atoms: O_2  and  C_3
REMARK    3  A    between atoms: C_8  and  O_9
REMARK    4  A    between atoms: O_9  and  C_10
REMARK    5  A    between atoms: C_14  and  C_15
REMARK    6  A    between atoms: C_18  and  C_19
REMARK    7  A    between atoms: N_21  and  C_22
REMARK                            x       y       z     vdW  Elec       q    Type
REMARK                         _______ _______ _______ _____ _____    ______ ____
ROOT
ATOM      1  C   UNL     1      -4.777  12.341  18.689  0.00  0.00    +0.000 A 
ATOM      2  C   UNL     1      -3.860  11.502  18.014  0.00  0.00    +0.000 A 
ATOM      3  C   UNL     1      -2.651  11.216  18.613  0.00  0.00    +0.000 A 
ATOM      4  C   UNL     1      -2.314  11.844  19.833  0.00  0.00    +0.000 A 
ATOM      5  C   UNL     1      -3.142  12.752  20.451  0.00  0.00    +0.000 A 
ATOM      6  C   UNL     1      -4.395  13.007  19.883  0.00  0.00    +0.000 A 
ATOM      7  C   UNL     1      -1.065  11.302  20.218  0.00  0.00    +0.000 A 
ATOM      8  N   UNL     1      -0.244  11.422  21.249  0.00  0.00    +0.000 NA
ATOM      9  N   UNL     1       0.731  10.533  20.931  0.00  0.00    +0.000 N 
ATOM     10  C   UNL     1       0.529   9.846  19.742  0.00  0.00    +0.000 A 
ATOM     11  C   UNL     1      -0.652  10.362  19.266  0.00  0.00    +0.000 A 
ATOM     12  C   UNL     1      -1.602  10.208  18.131  0.00  0.00    +0.000 C 
ATOM     13  H   UNL     1       1.516  10.444  21.564  0.00  0.00    +0.000 HD
ENDROOT
BRANCH  10  14
ATOM     14  C   UNL     1       1.449   8.850  19.211  0.00  0.00    +0.000 A 
ATOM     15  C   UNL     1       1.989   8.968  17.924  0.00  0.00    +0.000 A 
ATOM     16  C   UNL     1       2.845   7.983  17.418  0.00  0.00    +0.000 A 
ATOM     17  C   UNL     1       3.192   6.873  18.194  0.00  0.00    +0.000 A 
ATOM     18  C   UNL     1       2.660   6.759  19.484  0.00  0.00    +0.000 A 
ATOM     19  C   UNL     1       1.800   7.739  19.986  0.00  0.00    +0.000 A 
BRANCH  17  20
ATOM     20  C   UNL     1       4.085   5.864  17.659  0.00  0.00    +0.000 A 
ATOM     21  C   UNL     1       5.322   6.102  17.098  0.00  0.00    +0.000 A 
ATOM     22  N   UNL     1       5.791   4.871  16.742  0.00  0.00    +0.000 N 
ATOM     23  C   UNL     1       7.055   4.593  16.114  0.00  0.00    +0.000 C 
ATOM     24  C   UNL     1       4.846   3.948  17.083  0.00  0.00    +0.000 A 
ATOM     25  N   UNL     1       3.795   4.518  17.628  0.00  0.00    +0.000 NA
ENDBRANCH  17  20
ENDBRANCH  10  14
BRANCH   1  27
ATOM     26  C   UNL     1      -6.933  11.409  18.414  0.00  0.00    +0.000 C 
ATOM     27  O   UNL     1      -6.043  12.506  18.185  0.00  0.00    +0.000 OA
ENDBRANCH   1  27
BRANCH   6  28
ATOM     28  O   UNL     1      -5.114  13.890  20.644  0.00  0.00    +0.000 OA
ATOM     29  C   UNL     1      -6.045  13.402  21.595  0.00  0.00    +0.000 C 
ENDBRANCH   6  28
TORSDOF 4
ENDMDL
MODEL 8
REMARK VINA RESULT:      -7.8      1.396      1.766
REMARK  Name = 
REMARK  7 active torsions:
REMARK  status: ('A' for Active; 'I' for Inactive)
REMARK    1  A    between atoms: C_1  and  O_2
REMARK    2  A    between atoms: O_2  and  C_3
REMARK    3  A    between atoms: C_8  and  O_9
REMARK    4  A    between atoms: O_9  and  C_10
REMARK    5  A    between atoms: C_14  and  C_15
REMARK    6  A    between atoms: C_18  and  C_19
REMARK    7  A    between atoms: N_21  and  C_22
REMARK                            x       y       z     vdW  Elec       q    Type
REMARK                         _______ _______ _______ _____ _____    ______ ____
ROOT
ATOM      1  C   UNL     1       2.676   4.472  19.490  0.00  0.00    +0.000 A 
ATOM      2  C   UNL     1       2.275   5.426  20.454  0.00  0.00    +0.000 A 
ATOM      3  C   UNL     1       2.066   6.730  20.055  0.00  0.00    +0.000 A 
ATOM      4  C   UNL     1       2.352   7.105  18.724  0.00  0.00    +0.000 A 
ATOM      5  C   UNL     1       2.852   6.219  17.798  0.00  0.00    +0.000 A 
ATOM      6  C   UNL     1       3.015   4.881  18.173  0.00  0.00    +0.000 A 
ATOM      7  C   UNL     1       1.975   8.464  18.613  0.00  0.00    +0.000 A 
ATOM      8  N   UNL     1       1.939   9.374  17.652  0.00  0.00    +0.000 NA
ATOM      9  N   UNL     1       1.395  10.436  18.298  0.00  0.00    +0.000 N 
ATOM     10  C   UNL     1       1.071  10.207  19.628  0.00  0.00    +0.000 A 
ATOM     11  C   UNL     1       1.464   8.907  19.838  0.00  0.00    +0.000 A 
ATOM     12  C   UNL     1       1.474   7.864  20.900  0.00  0.00    +0.000 C 
ATOM     13  H   UNL     1       1.276  11.297  17.778  0.00  0.00    +0.000 HD
ENDROOT
BRANCH  10  14
ATOM     14  C   UNL     1       0.480  11.208  20.506  0.00  0.00    +0.000 A 
ATOM     15  C   UNL     1       0.955  12.526  20.531  0.00  0.00    +0.000 A 
ATOM     16  C   UNL     1       0.396  13.466  21.407  0.00  0.00    +0.000 A 
ATOM     17  C   UNL     1      -0.656  13.111  22.256  0.00  0.00    +0.000 A 
ATOM     18  C   UNL     1      -1.136  11.797  22.224  0.00  0.00    +0.000 A 
ATOM     19  C   UNL     1      -0.574  10.858  21.356  0.00  0.00    +0.000 A 
BRANCH  17  20
ATOM     20  C   UNL     1      -1.228  14.097  23.153  0.00  0.00    +0.000 A 
ATOM     21  C   UNL     1      -2.574  14.290  23.380  0.00  0.00    +0.000 A 
ATOM     22  N   UNL     1      -2.636  15.309  24.286  0.00  0.00    +0.000 N 
ATOM     23  C   UNL     1      -3.835  15.879  24.843  0.00  0.00    +0.000 C 
ATOM     24  C   UNL     1      -1.359  15.698  24.567  0.00  0.00    +0.000 A 
ATOM     25  N   UNL     1      -0.484  14.993  23.887  0.00  0.00    +0.000 NA
ENDBRANCH  17  20
ENDBRANCH  10  14
BRANCH   1  27
ATOM     26  C   UNL     1       1.463   2.499  19.969  0.00  0.00    +0.000 C 
ATOM     27  O   UNL     1       2.734   3.144  19.833  0.00  0.00    +0.000 OA
ENDBRANCH   1  27
BRANCH   6  28
ATOM     28  O   UNL     1       3.470   4.124  17.126  0.00  0.00    +0.000 OA
ATOM     29  C   UNL     1       4.862   3.919  16.960  0.00  0.00    +0.000 C 
ENDBRANCH   6  28
TORSDOF 4
ENDMDL
MODEL 9
REMARK VINA RESULT:      -7.7      4.409     10.202
REMARK  Name = 
REMARK  7 active torsions:
REMARK  status: ('A' for Active; 'I' for Inactive)
REMARK    1  A    between atoms: C_1  and  O_2
REMARK    2  A    between atoms: O_2  and  C_3
REMARK    3  A    between atoms: C_8  and  O_9
REMARK    4  A    between atoms: O_9  and  C_10
REMARK    5  A    between atoms: C_14  and  C_15
REMARK    6  A    between atoms: C_18  and  C_19
REMARK    7  A    between atoms: N_21  and  C_22
REMARK                            x       y       z     vdW  Elec       q    Type
REMARK                         _______ _______ _______ _____ _____    ______ ____
ROOT
ATOM      1  C   UNL     1      -3.439  13.614  21.140  0.00  0.00    +0.000 A 
ATOM      2  C   UNL     1      -2.641  12.909  20.210  0.00  0.00    +0.000 A 
ATOM      3  C   UNL     1      -1.708  12.008  20.679  0.00  0.00    +0.000 A 
ATOM      4  C   UNL     1      -1.499  11.884  22.071  0.00  0.00    +0.000 A 
ATOM      5  C   UNL     1      -2.184  12.643  22.991  0.00  0.00    +0.000 A 
ATOM      6  C   UNL     1      -3.173  13.519  22.531  0.00  0.00    +0.000 A 
ATOM      7  C   UNL     1      -0.546  10.850  22.231  0.00  0.00    +0.000 A 
ATOM      8  N   UNL     1       0.030  10.226  23.246  0.00  0.00    +0.000 NA
ATOM      9  N   UNL     1       0.791   9.303  22.606  0.00  0.00    +0.000 N 
ATOM     10  C   UNL     1       0.688   9.319  21.222  0.00  0.00    +0.000 A 
ATOM     11  C   UNL     1      -0.188  10.349  20.974  0.00  0.00    +0.000 A 
ATOM     12  C   UNL     1      -0.871  11.033  19.843  0.00  0.00    +0.000 C 
ATOM     13  H   UNL     1       1.368   8.691  23.170  0.00  0.00    +0.000 HD
ENDROOT
BRANCH  10  14
ATOM     14  C   UNL     1       1.417   8.418  20.341  0.00  0.00    +0.000 A 
ATOM     15  C   UNL     1       1.792   8.807  19.048  0.00  0.00    +0.000 A 
ATOM     16  C   UNL     1       2.463   7.915  18.203  0.00  0.00    +0.000 A 
ATOM     17  C   UNL     1       2.788   6.627  18.640  0.00  0.00    +0.000 A 
ATOM     18  C   UNL     1       2.422   6.242  19.934  0.00  0.00    +0.000 A 
ATOM     19  C   UNL     1       1.746   7.129  20.775  0.00  0.00    +0.000 A 
BRANCH  17  20
ATOM     20  C   UNL     1       3.489   5.716  17.756  0.00  0.00    +0.000 A 
ATOM     21  C   UNL     1       4.516   6.058  16.902  0.00  0.00    +0.000 A 
ATOM     22  N   UNL     1       4.861   4.892  16.281  0.00  0.00    +0.000 N 
ATOM     23  C   UNL     1       5.894   4.730  15.292  0.00  0.00    +0.000 C 
ATOM     24  C   UNL     1       4.048   3.907  16.759  0.00  0.00    +0.000 A 
ATOM     25  N   UNL     1       3.197   4.376  17.644  0.00  0.00    +0.000 NA
ENDBRANCH  17  20
ENDBRANCH  10  14
BRANCH   1  27
ATOM     26  C   UNL     1      -5.776  13.804  20.830  0.00  0.00    +0.000 C 
ATOM     27  O   UNL     1      -4.478  14.391  20.691  0.00  0.00    +0.000 OA
ENDBRANCH   1  27
BRANCH   6  28
ATOM     28  O   UNL     1      -3.793  14.157  23.572  0.00  0.00    +0.000 OA
ATOM     29  C   UNL     1      -3.067  14.441  24.756  0.00  0.00    +0.000 C 
ENDBRANCH   6  28
TORSDOF 4
ENDMDL
