MODEL 1
REMARK VINA RESULT:      -9.7      0.000      0.000
REMARK  Name = 
REMARK  5 active torsions:
REMARK  status: ('A' for Active; 'I' for Inactive)
REMARK    1  A    between atoms: C_2  and  C_4
REMARK    2  A    between atoms: C_9  and  C_10
REMARK    3  A    between atoms: C_13  and  O_14
REMARK    4  A    between atoms: O_14  and  C_15
REMARK    5  A    between atoms: C_19  and  C_20
REMARK                            x       y       z     vdW  Elec       q    Type
REMARK                         _______ _______ _______ _____ _____    ______ ____
ROOT
ATOM      1  C   UNL     1       7.977   8.021  18.277  0.00  0.00    +0.000 A 
ATOM      2  C   UNL     1       8.328   6.954  19.116  0.00  0.00    +0.000 A 
ATOM      3  C   UNL     1       7.689   5.718  18.994  0.00  0.00    +0.000 A 
ATOM      4  C   UNL     1       6.683   5.542  18.045  0.00  0.00    +0.000 A 
ATOM      5  C   UNL     1       6.359   6.587  17.177  0.00  0.00    +0.000 A 
ATOM      6  C   UNL     1       6.977   7.829  17.316  0.00  0.00    +0.000 A 
ENDROOT
BRANCH   1  12
ATOM      7  C   UNL     1      10.536  13.396  18.345  0.00  0.00    +0.000 A 
ATOM      8  C   UNL     1      10.984  13.006  19.616  0.00  0.00    +0.000 A 
ATOM      9  C   UNL     1      10.653  11.758  20.154  0.00  0.00    +0.000 A 
ATOM     10  C   UNL     1       9.866  10.932  19.350  0.00  0.00    +0.000 A 
ATOM     11  N   UNL     1       9.364   9.675  19.539  0.00  0.00    +0.000 N 
ATOM     12  C   UNL     1       8.655   9.306  18.415  0.00  0.00    +0.000 A 
ATOM     13  N   UNL     1       8.665  10.286  17.530  0.00  0.00    +0.000 NA
ATOM     14  C   UNL     1       9.419  11.286  18.085  0.00  0.00    +0.000 A 
ATOM     15  C   UNL     1       9.760  12.534  17.556  0.00  0.00    +0.000 A 
ATOM     16  H   UNL     1       9.476   9.112  20.366  0.00  0.00    +0.000 HD
BRANCH   7  18
ATOM     17  N   UNL     1      11.134  14.848  16.495  0.00  0.00    +0.000 N 
ATOM     18  C   UNL     1      10.914  14.738  17.836  0.00  0.00    +0.000 C 
ATOM     19  O   UNL     1      10.987  15.704  18.580  0.00  0.00    +0.000 OA
ATOM     20  H   UNL     1      11.307  15.779  16.135  0.00  0.00    +0.000 HD
ATOM     21  H   UNL     1      10.864  14.131  15.838  0.00  0.00    +0.000 HD
ENDBRANCH   7  18
ENDBRANCH   1  12
BRANCH   4  22
ATOM     22  O   UNL     1       6.094   4.299  18.003  0.00  0.00    +0.000 OA
BRANCH  22  23
ATOM     23  C   UNL     1       4.727   4.190  18.129  0.00  0.00    +0.000 A 
ATOM     24  C   UNL     1       4.054   3.637  17.041  0.00  0.00    +0.000 A 
ATOM     25  C   UNL     1       2.667   3.494  17.072  0.00  0.00    +0.000 A 
ATOM     26  C   UNL     1       1.947   3.911  18.192  0.00  0.00    +0.000 A 
ATOM     27  C   UNL     1       2.612   4.445  19.306  0.00  0.00    +0.000 A 
ATOM     28  C   UNL     1       4.010   4.549  19.274  0.00  0.00    +0.000 A 
BRANCH  27  29
ATOM     29  C   UNL     1       1.864   4.928  20.523  0.00  0.00    +0.000 C 
ATOM     30  F   UNL     1       2.465   4.600  21.701  0.00  0.00    +0.000 F 
ATOM     31  F   UNL     1       1.715   6.280  20.542  0.00  0.00    +0.000 F 
ATOM     32  F   UNL     1       0.605   4.412  20.591  0.00  0.00    +0.000 F 
ENDBRANCH  27  29
ENDBRANCH  22  23
ENDBRANCH   4  22
TORSDOF 5
ENDMDL
MODEL 2
REMARK VINA RESULT:      -9.5      0.765      1.030
REMARK  Name = 
REMARK  5 active torsions:
REMARK  status: ('A' for Active; 'I' for Inactive)
REMARK    1  A    between atoms: C_2  and  C_4
REMARK    2  A    between atoms: C_9  and  C_10
REMARK    3  A    between atoms: C_13  and  O_14
REMARK    4  A    between atoms: O_14  and  C_15
REMARK    5  A    between atoms: C_19  and  C_20
REMARK                            x       y       z     vdW  Elec       q    Type
REMARK                         _______ _______ _______ _____ _____    ______ ____
ROOT
ATOM      1  C   UNL     1       7.808   7.819  18.170  0.00  0.00    +0.000 A 
ATOM      2  C   UNL     1       8.197   6.735  18.970  0.00  0.00    +0.000 A 
ATOM      3  C   UNL     1       7.596   5.484  18.808  0.00  0.00    +0.000 A 
ATOM      4  C   UNL     1       6.590   5.310  17.859  0.00  0.00    +0.000 A 
ATOM      5  C   UNL     1       6.229   6.373  17.029  0.00  0.00    +0.000 A 
ATOM      6  C   UNL     1       6.809   7.629  17.208  0.00  0.00    +0.000 A 
ENDROOT
BRANCH   1  12
ATOM      7  C   UNL     1      10.188  13.271  18.418  0.00  0.00    +0.000 A 
ATOM      8  C   UNL     1      10.686  12.838  19.657  0.00  0.00    +0.000 A 
ATOM      9  C   UNL     1      10.412  11.556  20.145  0.00  0.00    +0.000 A 
ATOM     10  C   UNL     1       9.630  10.741  19.326  0.00  0.00    +0.000 A 
ATOM     11  N   UNL     1       9.176   9.460  19.468  0.00  0.00    +0.000 N 
ATOM     12  C   UNL     1       8.446   9.119  18.349  0.00  0.00    +0.000 A 
ATOM     13  N   UNL     1       8.397  10.138  17.511  0.00  0.00    +0.000 NA
ATOM     14  C   UNL     1       9.133  11.137  18.091  0.00  0.00    +0.000 A 
ATOM     15  C   UNL     1       9.417  12.419  17.612  0.00  0.00    +0.000 A 
ATOM     16  H   UNL     1       9.331   8.864  20.265  0.00  0.00    +0.000 HD
BRANCH   7  18
ATOM     17  N   UNL     1       9.470  15.386  17.471  0.00  0.00    +0.000 N 
ATOM     18  C   UNL     1      10.505  14.647  17.963  0.00  0.00    +0.000 C 
ATOM     19  O   UNL     1      11.632  15.106  18.060  0.00  0.00    +0.000 OA
ATOM     20  H   UNL     1       9.667  16.353  17.241  0.00  0.00    +0.000 HD
ATOM     21  H   UNL     1       8.504  15.117  17.589  0.00  0.00    +0.000 HD
ENDBRANCH   7  18
ENDBRANCH   1  12
BRANCH   4  22
ATOM     22  O   UNL     1       6.040   4.052  17.776  0.00  0.00    +0.000 OA
BRANCH  22  23
ATOM     23  C   UNL     1       4.708   3.871  18.077  0.00  0.00    +0.000 A 
ATOM     24  C   UNL     1       3.845   3.756  16.989  0.00  0.00    +0.000 A 
ATOM     25  C   UNL     1       2.477   3.579  17.196  0.00  0.00    +0.000 A 
ATOM     26  C   UNL     1       1.967   3.523  18.493  0.00  0.00    +0.000 A 
ATOM     27  C   UNL     1       2.826   3.610  19.598  0.00  0.00    +0.000 A 
ATOM     28  C   UNL     1       4.203   3.751  19.375  0.00  0.00    +0.000 A 
BRANCH  27  29
ATOM     29  C   UNL     1       2.308   3.578  21.013  0.00  0.00    +0.000 C 
ATOM     30  F   UNL     1       2.482   4.748  21.688  0.00  0.00    +0.000 F 
ATOM     31  F   UNL     1       0.976   3.303  21.075  0.00  0.00    +0.000 F 
ATOM     32  F   UNL     1       2.922   2.621  21.764  0.00  0.00    +0.000 F 
ENDBRANCH  27  29
ENDBRANCH  22  23
ENDBRANCH   4  22
TORSDOF 5
ENDMDL
MODEL 3
REMARK VINA RESULT:      -9.5      0.684      1.392
REMARK  Name = 
REMARK  5 active torsions:
REMARK  status: ('A' for Active; 'I' for Inactive)
REMARK    1  A    between atoms: C_2  and  C_4
REMARK    2  A    between atoms: C_9  and  C_10
REMARK    3  A    between atoms: C_13  and  O_14
REMARK    4  A    between atoms: O_14  and  C_15
REMARK    5  A    between atoms: C_19  and  C_20
REMARK                            x       y       z     vdW  Elec       q    Type
REMARK                         _______ _______ _______ _____ _____    ______ ____
ROOT
ATOM      1  C   UNL     1       7.826   7.764  18.214  0.00  0.00    +0.000 A 
ATOM      2  C   UNL     1       6.827   7.572  17.250  0.00  0.00    +0.000 A 
ATOM      3  C   UNL     1       6.213   6.326  17.105  0.00  0.00    +0.000 A 
ATOM      4  C   UNL     1       6.603   5.257  17.911  0.00  0.00    +0.000 A 
ATOM      5  C   UNL     1       7.567   5.453  18.903  0.00  0.00    +0.000 A 
ATOM      6  C   UNL     1       8.199   6.689  19.030  0.00  0.00    +0.000 A 
ENDROOT
BRANCH   1  12
ATOM      7  C   UNL     1      10.155  13.243  18.315  0.00  0.00    +0.000 A 
ATOM      8  C   UNL     1      10.713  12.825  19.533  0.00  0.00    +0.000 A 
ATOM      9  C   UNL     1      10.476  11.544  20.042  0.00  0.00    +0.000 A 
ATOM     10  C   UNL     1       9.666  10.715  19.264  0.00  0.00    +0.000 A 
ATOM     11  N   UNL     1       9.233   9.430  19.437  0.00  0.00    +0.000 N 
ATOM     12  C   UNL     1       8.458   9.073  18.354  0.00  0.00    +0.000 A 
ATOM     13  N   UNL     1       8.360  10.085  17.512  0.00  0.00    +0.000 NA
ATOM     14  C   UNL     1       9.111  11.096  18.051  0.00  0.00    +0.000 A 
ATOM     15  C   UNL     1       9.358  12.377  17.550  0.00  0.00    +0.000 A 
ATOM     16  H   UNL     1       9.431   8.841  20.230  0.00  0.00    +0.000 HD
BRANCH   7  18
ATOM     17  N   UNL     1      10.980  14.737  16.591  0.00  0.00    +0.000 N 
ATOM     18  C   UNL     1      10.437  14.619  17.836  0.00  0.00    +0.000 C 
ATOM     19  O   UNL     1      10.158  15.598  18.510  0.00  0.00    +0.000 OA
ATOM     20  H   UNL     1      11.093  15.677  16.228  0.00  0.00    +0.000 HD
ATOM     21  H   UNL     1      11.009  13.972  15.934  0.00  0.00    +0.000 HD
ENDBRANCH   7  18
ENDBRANCH   1  12
BRANCH   4  22
ATOM     22  O   UNL     1       5.960   4.061  17.692  0.00  0.00    +0.000 OA
BRANCH  22  23
ATOM     23  C   UNL     1       4.632   3.930  18.032  0.00  0.00    +0.000 A 
ATOM     24  C   UNL     1       3.725   3.942  16.974  0.00  0.00    +0.000 A 
ATOM     25  C   UNL     1       2.357   3.825  17.222  0.00  0.00    +0.000 A 
ATOM     26  C   UNL     1       1.892   3.702  18.531  0.00  0.00    +0.000 A 
ATOM     27  C   UNL     1       2.793   3.662  19.605  0.00  0.00    +0.000 A 
ATOM     28  C   UNL     1       4.168   3.744  19.337  0.00  0.00    +0.000 A 
BRANCH  27  29
ATOM     29  C   UNL     1       2.325   3.555  21.034  0.00  0.00    +0.000 C 
ATOM     30  F   UNL     1       1.016   3.199  21.156  0.00  0.00    +0.000 F 
ATOM     31  F   UNL     1       3.031   2.636  21.747  0.00  0.00    +0.000 F 
ATOM     32  F   UNL     1       2.455   4.732  21.707  0.00  0.00    +0.000 F 
ENDBRANCH  27  29
ENDBRANCH  22  23
ENDBRANCH   4  22
TORSDOF 5
ENDMDL
MODEL 4
REMARK VINA RESULT:      -9.4      0.397      1.187
REMARK  Name = 
REMARK  5 active torsions:
REMARK  status: ('A' for Active; 'I' for Inactive)
REMARK    1  A    between atoms: C_2  and  C_4
REMARK    2  A    between atoms: C_9  and  C_10
REMARK    3  A    between atoms: C_13  and  O_14
REMARK    4  A    between atoms: O_14  and  C_15
REMARK    5  A    between atoms: C_19  and  C_20
REMARK                            x       y       z     vdW  Elec       q    Type
REMARK                         _______ _______ _______ _____ _____    ______ ____
ROOT
ATOM      1  C   UNL     1       7.940   8.000  18.251  0.00  0.00    +0.000 A 
ATOM      2  C   UNL     1       6.944   7.829  17.279  0.00  0.00    +0.000 A 
ATOM      3  C   UNL     1       6.321   6.590  17.114  0.00  0.00    +0.000 A 
ATOM      4  C   UNL     1       6.700   5.506  17.905  0.00  0.00    +0.000 A 
ATOM      5  C   UNL     1       7.660   5.680  18.905  0.00  0.00    +0.000 A 
ATOM      6  C   UNL     1       8.301   6.910  19.052  0.00  0.00    +0.000 A 
ENDROOT
BRANCH   1  12
ATOM      7  C   UNL     1      10.308  13.459  18.445  0.00  0.00    +0.000 A 
ATOM      8  C   UNL     1      10.862  13.017  19.655  0.00  0.00    +0.000 A 
ATOM      9  C   UNL     1      10.616  11.729  20.143  0.00  0.00    +0.000 A 
ATOM     10  C   UNL     1       9.801  10.919  19.351  0.00  0.00    +0.000 A 
ATOM     11  N   UNL     1       9.359   9.634  19.502  0.00  0.00    +0.000 N 
ATOM     12  C   UNL     1       8.581   9.301  18.413  0.00  0.00    +0.000 A 
ATOM     13  N   UNL     1       8.490  10.328  17.588  0.00  0.00    +0.000 NA
ATOM     14  C   UNL     1       9.248  11.324  18.145  0.00  0.00    +0.000 A 
ATOM     15  C   UNL     1       9.505  12.612  17.665  0.00  0.00    +0.000 A 
ATOM     16  H   UNL     1       9.552   9.031  20.285  0.00  0.00    +0.000 HD
BRANCH   7  18
ATOM     17  N   UNL     1       9.668  15.433  17.188  0.00  0.00    +0.000 N 
ATOM     18  C   UNL     1      10.599  14.841  17.989  0.00  0.00    +0.000 C 
ATOM     19  O   UNL     1      11.607  15.431  18.346  0.00  0.00    +0.000 OA
ATOM     20  H   UNL     1       9.824  16.405  16.948  0.00  0.00    +0.000 HD
ATOM     21  H   UNL     1       8.738  15.061  17.066  0.00  0.00    +0.000 HD
ENDBRANCH   7  18
ENDBRANCH   1  12
BRANCH   4  22
ATOM     22  O   UNL     1       6.049   4.318  17.666  0.00  0.00    +0.000 OA
BRANCH  22  23
ATOM     23  C   UNL     1       4.692   4.229  17.891  0.00  0.00    +0.000 A 
ATOM     24  C   UNL     1       3.940   3.648  16.871  0.00  0.00    +0.000 A 
ATOM     25  C   UNL     1       2.557   3.523  17.005  0.00  0.00    +0.000 A 
ATOM     26  C   UNL     1       1.922   3.984  18.158  0.00  0.00    +0.000 A 
ATOM     27  C   UNL     1       2.668   4.545  19.205  0.00  0.00    +0.000 A 
ATOM     28  C   UNL     1       4.062   4.632  19.071  0.00  0.00    +0.000 A 
BRANCH  27  29
ATOM     29  C   UNL     1       2.013   5.075  20.454  0.00  0.00    +0.000 C 
ATOM     30  F   UNL     1       2.057   6.433  20.563  0.00  0.00    +0.000 F 
ATOM     31  F   UNL     1       0.698   4.735  20.539  0.00  0.00    +0.000 F 
ATOM     32  F   UNL     1       2.598   4.593  21.586  0.00  0.00    +0.000 F 
ENDBRANCH  27  29
ENDBRANCH  22  23
ENDBRANCH   4  22
TORSDOF 5
ENDMDL
MODEL 5
REMARK VINA RESULT:      -9.1      1.011      1.335
REMARK  Name = 
REMARK  5 active torsions:
REMARK  status: ('A' for Active; 'I' for Inactive)
REMARK    1  A    between atoms: C_2  and  C_4
REMARK    2  A    between atoms: C_9  and  C_10
REMARK    3  A    between atoms: C_13  and  O_14
REMARK    4  A    between atoms: O_14  and  C_15
REMARK    5  A    between atoms: C_19  and  C_20
REMARK                            x       y       z     vdW  Elec       q    Type
REMARK                         _______ _______ _______ _____ _____    ______ ____
ROOT
ATOM      1  C   UNL     1       8.030   8.152  18.237  0.00  0.00    +0.000 A 
ATOM      2  C   UNL     1       8.307   7.022  19.019  0.00  0.00    +0.000 A 
ATOM      3  C   UNL     1       7.600   5.833  18.821  0.00  0.00    +0.000 A 
ATOM      4  C   UNL     1       6.600   5.768  17.852  0.00  0.00    +0.000 A 
ATOM      5  C   UNL     1       6.349   6.876  17.039  0.00  0.00    +0.000 A 
ATOM      6  C   UNL     1       7.035   8.071  17.254  0.00  0.00    +0.000 A 
ENDROOT
BRANCH   1  12
ATOM      7  C   UNL     1      10.990  13.305  18.591  0.00  0.00    +0.000 A 
ATOM      8  C   UNL     1      11.138  12.959  19.943  0.00  0.00    +0.000 A 
ATOM      9  C   UNL     1      10.596  11.777  20.456  0.00  0.00    +0.000 A 
ATOM     10  C   UNL     1       9.916  10.967  19.545  0.00  0.00    +0.000 A 
ATOM     11  N   UNL     1       9.277   9.766  19.681  0.00  0.00    +0.000 N 
ATOM     12  C   UNL     1       8.777   9.387  18.454  0.00  0.00    +0.000 A 
ATOM     13  N   UNL     1       9.051  10.307  17.547  0.00  0.00    +0.000 NA
ATOM     14  C   UNL     1       9.764  11.277  18.201  0.00  0.00    +0.000 A 
ATOM     15  C   UNL     1      10.314  12.460  17.698  0.00  0.00    +0.000 A 
ATOM     16  H   UNL     1       9.172   9.248  20.538  0.00  0.00    +0.000 HD
BRANCH   7  18
ATOM     17  N   UNL     1      11.554  14.802  16.767  0.00  0.00    +0.000 N 
ATOM     18  C   UNL     1      11.579  14.581  18.112  0.00  0.00    +0.000 C 
ATOM     19  O   UNL     1      12.029  15.407  18.890  0.00  0.00    +0.000 OA
ATOM     20  H   UNL     1      11.877  15.708  16.447  0.00  0.00    +0.000 HD
ATOM     21  H   UNL     1      10.995  14.251  16.134  0.00  0.00    +0.000 HD
ENDBRANCH   7  18
ENDBRANCH   1  12
BRANCH   4  22
ATOM     22  O   UNL     1       5.942   4.566  17.733  0.00  0.00    +0.000 OA
BRANCH  22  23
ATOM     23  C   UNL     1       4.655   4.445  18.208  0.00  0.00    +0.000 A 
ATOM     24  C   UNL     1       3.663   5.072  17.455  0.00  0.00    +0.000 A 
ATOM     25  C   UNL     1       2.331   5.012  17.863  0.00  0.00    +0.000 A 
ATOM     26  C   UNL     1       1.987   4.330  19.029  0.00  0.00    +0.000 A 
ATOM     27  C   UNL     1       2.969   3.671  19.784  0.00  0.00    +0.000 A 
ATOM     28  C   UNL     1       4.299   3.710  19.342  0.00  0.00    +0.000 A 
BRANCH  27  29
ATOM     29  C   UNL     1       2.636   2.944  21.062  0.00  0.00    +0.000 C 
ATOM     30  F   UNL     1       1.538   2.143  20.967  0.00  0.00    +0.000 F 
ATOM     31  F   UNL     1       3.651   2.142  21.485  0.00  0.00    +0.000 F 
ATOM     32  F   UNL     1       2.383   3.802  22.090  0.00  0.00    +0.000 F 
ENDBRANCH  27  29
ENDBRANCH  22  23
ENDBRANCH   4  22
TORSDOF 5
ENDMDL
MODEL 6
REMARK VINA RESULT:      -9.0      0.917      1.473
REMARK  Name = 
REMARK  5 active torsions:
REMARK  status: ('A' for Active; 'I' for Inactive)
REMARK    1  A    between atoms: C_2  and  C_4
REMARK    2  A    between atoms: C_9  and  C_10
REMARK    3  A    between atoms: C_13  and  O_14
REMARK    4  A    between atoms: O_14  and  C_15
REMARK    5  A    between atoms: C_19  and  C_20
REMARK                            x       y       z     vdW  Elec       q    Type
REMARK                         _______ _______ _______ _____ _____    ______ ____
ROOT
ATOM      1  C   UNL     1       7.509   7.609  17.930  0.00  0.00    +0.000 A 
ATOM      2  C   UNL     1       6.452   7.602  17.009  0.00  0.00    +0.000 A 
ATOM      3  C   UNL     1       5.771   6.416  16.723  0.00  0.00    +0.000 A 
ATOM      4  C   UNL     1       6.149   5.226  17.342  0.00  0.00    +0.000 A 
ATOM      5  C   UNL     1       7.171   5.234  18.294  0.00  0.00    +0.000 A 
ATOM      6  C   UNL     1       7.870   6.411  18.560  0.00  0.00    +0.000 A 
ENDROOT
BRANCH   1  12
ATOM      7  C   UNL     1      10.136  12.901  18.661  0.00  0.00    +0.000 A 
ATOM      8  C   UNL     1      10.663  12.315  19.823  0.00  0.00    +0.000 A 
ATOM      9  C   UNL     1      10.352  11.000  20.181  0.00  0.00    +0.000 A 
ATOM     10  C   UNL     1       9.503  10.311  19.313  0.00  0.00    +0.000 A 
ATOM     11  N   UNL     1       8.999   9.041  19.337  0.00  0.00    +0.000 N 
ATOM     12  C   UNL     1       8.211   8.855  18.220  0.00  0.00    +0.000 A 
ATOM     13  N   UNL     1       8.174   9.962  17.500  0.00  0.00    +0.000 NA
ATOM     14  C   UNL     1       8.976  10.860  18.152  0.00  0.00    +0.000 A 
ATOM     15  C   UNL     1       9.298  12.175  17.802  0.00  0.00    +0.000 A 
ATOM     16  H   UNL     1       9.159   8.356  20.056  0.00  0.00    +0.000 HD
BRANCH   7  18
ATOM     17  N   UNL     1       9.972  14.831  17.200  0.00  0.00    +0.000 N 
ATOM     18  C   UNL     1      10.496  14.305  18.344  0.00  0.00    +0.000 C 
ATOM     19  O   UNL     1      11.198  14.968  19.092  0.00  0.00    +0.000 OA
ATOM     20  H   UNL     1      10.146  15.814  17.027  0.00  0.00    +0.000 HD
ATOM     21  H   UNL     1       9.221  14.388  16.691  0.00  0.00    +0.000 HD
ENDBRANCH   7  18
ENDBRANCH   1  12
BRANCH   4  22
ATOM     22  O   UNL     1       5.437   4.102  16.991  0.00  0.00    +0.000 OA
BRANCH  22  23
ATOM     23  C   UNL     1       4.418   3.660  17.807  0.00  0.00    +0.000 A 
ATOM     24  C   UNL     1       4.046   2.326  17.653  0.00  0.00    +0.000 A 
ATOM     25  C   UNL     1       3.017   1.792  18.429  0.00  0.00    +0.000 A 
ATOM     26  C   UNL     1       2.354   2.594  19.358  0.00  0.00    +0.000 A 
ATOM     27  C   UNL     1       2.734   3.931  19.543  0.00  0.00    +0.000 A 
ATOM     28  C   UNL     1       3.794   4.444  18.781  0.00  0.00    +0.000 A 
BRANCH  27  29
ATOM     29  C   UNL     1       2.024   4.832  20.520  0.00  0.00    +0.000 C 
ATOM     30  F   UNL     1       0.672   4.662  20.539  0.00  0.00    +0.000 F 
ATOM     31  F   UNL     1       2.443   4.647  21.801  0.00  0.00    +0.000 F 
ATOM     32  F   UNL     1       2.229   6.151  20.246  0.00  0.00    +0.000 F 
ENDBRANCH  27  29
ENDBRANCH  22  23
ENDBRANCH   4  22
TORSDOF 5
ENDMDL
MODEL 7
REMARK VINA RESULT:      -8.8      6.784      8.481
REMARK  Name = 
REMARK  5 active torsions:
REMARK  status: ('A' for Active; 'I' for Inactive)
REMARK    1  A    between atoms: C_2  and  C_4
REMARK    2  A    between atoms: C_9  and  C_10
REMARK    3  A    between atoms: C_13  and  O_14
REMARK    4  A    between atoms: O_14  and  C_15
REMARK    5  A    between atoms: C_19  and  C_20
REMARK                            x       y       z     vdW  Elec       q    Type
REMARK                         _______ _______ _______ _____ _____    ______ ____
ROOT
ATOM      1  C   UNL     1       2.483   6.833  19.339  0.00  0.00    +0.000 A 
ATOM      2  C   UNL     1       2.600   5.546  19.880  0.00  0.00    +0.000 A 
ATOM      3  C   UNL     1       3.315   4.555  19.203  0.00  0.00    +0.000 A 
ATOM      4  C   UNL     1       3.906   4.837  17.972  0.00  0.00    +0.000 A 
ATOM      5  C   UNL     1       3.831   6.130  17.448  0.00  0.00    +0.000 A 
ATOM      6  C   UNL     1       3.094   7.112  18.110  0.00  0.00    +0.000 A 
ENDROOT
BRANCH   1  12
ATOM      7  C   UNL     1      -0.596  11.295  21.800  0.00  0.00    +0.000 A 
ATOM      8  C   UNL     1      -0.534  10.505  22.958  0.00  0.00    +0.000 A 
ATOM      9  C   UNL     1       0.104   9.260  22.958  0.00  0.00    +0.000 A 
ATOM     10  C   UNL     1       0.678   8.865  21.749  0.00  0.00    +0.000 A 
ATOM     11  N   UNL     1       1.371   7.744  21.384  0.00  0.00    +0.000 N 
ATOM     12  C   UNL     1       1.734   7.858  20.058  0.00  0.00    +0.000 A 
ATOM     13  N   UNL     1       1.281   8.994  19.559  0.00  0.00    +0.000 NA
ATOM     14  C   UNL     1       0.643   9.630  20.591  0.00  0.00    +0.000 A 
ATOM     15  C   UNL     1       0.006  10.874  20.605  0.00  0.00    +0.000 A 
ATOM     16  H   UNL     1       1.571   6.955  21.975  0.00  0.00    +0.000 HD
BRANCH   7  18
ATOM     17  N   UNL     1      -1.150  13.323  23.010  0.00  0.00    +0.000 N 
ATOM     18  C   UNL     1      -1.299  12.600  21.864  0.00  0.00    +0.000 C 
ATOM     19  O   UNL     1      -1.947  13.022  20.919  0.00  0.00    +0.000 OA
ATOM     20  H   UNL     1      -1.557  14.251  23.022  0.00  0.00    +0.000 HD
ATOM     21  H   UNL     1      -0.450  13.107  23.704  0.00  0.00    +0.000 HD
ENDBRANCH   7  18
ENDBRANCH   1  12
BRANCH   4  22
ATOM     22  O   UNL     1       4.577   3.802  17.365  0.00  0.00    +0.000 OA
BRANCH  22  23
ATOM     23  C   UNL     1       5.423   4.065  16.310  0.00  0.00    +0.000 A 
ATOM     24  C   UNL     1       6.580   4.778  16.616  0.00  0.00    +0.000 A 
ATOM     25  C   UNL     1       7.492   5.100  15.611  0.00  0.00    +0.000 A 
ATOM     26  C   UNL     1       7.245   4.713  14.294  0.00  0.00    +0.000 A 
ATOM     27  C   UNL     1       6.099   3.971  13.973  0.00  0.00    +0.000 A 
ATOM     28  C   UNL     1       5.209   3.625  15.001  0.00  0.00    +0.000 A 
BRANCH  27  29
ATOM     29  C   UNL     1       5.788   3.557  12.557  0.00  0.00    +0.000 C 
ATOM     30  F   UNL     1       5.926   2.220  12.335  0.00  0.00    +0.000 F 
ATOM     31  F   UNL     1       4.516   3.871  12.189  0.00  0.00    +0.000 F 
ATOM     32  F   UNL     1       6.602   4.170  11.652  0.00  0.00    +0.000 F 
ENDBRANCH  27  29
ENDBRANCH  22  23
ENDBRANCH   4  22
TORSDOF 5
ENDMDL
MODEL 8
REMARK VINA RESULT:      -8.8      7.094      9.300
REMARK  Name = 
REMARK  5 active torsions:
REMARK  status: ('A' for Active; 'I' for Inactive)
REMARK    1  A    between atoms: C_2  and  C_4
REMARK    2  A    between atoms: C_9  and  C_10
REMARK    3  A    between atoms: C_13  and  O_14
REMARK    4  A    between atoms: O_14  and  C_15
REMARK    5  A    between atoms: C_19  and  C_20
REMARK                            x       y       z     vdW  Elec       q    Type
REMARK                         _______ _______ _______ _____ _____    ______ ____
ROOT
ATOM      1  C   UNL     1       0.626   9.526  19.928  0.00  0.00    +0.000 A 
ATOM      2  C   UNL     1       0.895   9.716  18.565  0.00  0.00    +0.000 A 
ATOM      3  C   UNL     1       1.783   8.870  17.895  0.00  0.00    +0.000 A 
ATOM      4  C   UNL     1       2.422   7.840  18.583  0.00  0.00    +0.000 A 
ATOM      5  C   UNL     1       2.125   7.618  19.930  0.00  0.00    +0.000 A 
ATOM      6  C   UNL     1       1.260   8.478  20.607  0.00  0.00    +0.000 A 
ENDROOT
BRANCH   1  12
ATOM      7  C   UNL     1      -3.011  12.917  23.201  0.00  0.00    +0.000 A 
ATOM      8  C   UNL     1      -3.334  13.505  21.968  0.00  0.00    +0.000 A 
ATOM      9  C   UNL     1      -2.733  13.082  20.779  0.00  0.00    +0.000 A 
ATOM     10  C   UNL     1      -1.809  12.042  20.895  0.00  0.00    +0.000 A 
ATOM     11  N   UNL     1      -1.048  11.382  19.971  0.00  0.00    +0.000 N 
ATOM     12  C   UNL     1      -0.304  10.416  20.615  0.00  0.00    +0.000 A 
ATOM     13  N   UNL     1      -0.544  10.449  21.913  0.00  0.00    +0.000 NA
ATOM     14  C   UNL     1      -1.478  11.434  22.098  0.00  0.00    +0.000 A 
ATOM     15  C   UNL     1      -2.089  11.863  23.279  0.00  0.00    +0.000 A 
ATOM     16  H   UNL     1      -1.017  11.577  18.983  0.00  0.00    +0.000 HD
BRANCH   7  18
ATOM     17  N   UNL     1      -4.621  12.614  24.990  0.00  0.00    +0.000 N 
ATOM     18  C   UNL     1      -3.677  13.421  24.428  0.00  0.00    +0.000 C 
ATOM     19  O   UNL     1      -3.365  14.490  24.930  0.00  0.00    +0.000 OA
ATOM     20  H   UNL     1      -5.014  12.917  25.874  0.00  0.00    +0.000 HD
ATOM     21  H   UNL     1      -4.734  11.645  24.732  0.00  0.00    +0.000 HD
ENDBRANCH   7  18
ENDBRANCH   1  12
BRANCH   4  22
ATOM     22  O   UNL     1       3.292   7.066  17.852  0.00  0.00    +0.000 OA
BRANCH  22  23
ATOM     23  C   UNL     1       3.179   5.693  17.891  0.00  0.00    +0.000 A 
ATOM     24  C   UNL     1       4.106   4.980  17.132  0.00  0.00    +0.000 A 
ATOM     25  C   UNL     1       4.063   3.586  17.103  0.00  0.00    +0.000 A 
ATOM     26  C   UNL     1       3.089   2.901  17.828  0.00  0.00    +0.000 A 
ATOM     27  C   UNL     1       2.166   3.603  18.618  0.00  0.00    +0.000 A 
ATOM     28  C   UNL     1       2.244   5.002  18.666  0.00  0.00    +0.000 A 
BRANCH  27  29
ATOM     29  C   UNL     1       1.085   2.896  19.396  0.00  0.00    +0.000 C 
ATOM     30  F   UNL     1       1.558   1.955  20.260  0.00  0.00    +0.000 F 
ATOM     31  F   UNL     1       0.337   3.751  20.145  0.00  0.00    +0.000 F 
ATOM     32  F   UNL     1       0.208   2.246  18.582  0.00  0.00    +0.000 F 
ENDBRANCH  27  29
ENDBRANCH  22  23
ENDBRANCH   4  22
TORSDOF 5
ENDMDL
MODEL 9
REMARK VINA RESULT:      -8.7      6.544      8.478
REMARK  Name = 
REMARK  5 active torsions:
REMARK  status: ('A' for Active; 'I' for Inactive)
REMARK    1  A    between atoms: C_2  and  C_4
REMARK    2  A    between atoms: C_9  and  C_10
REMARK    3  A    between atoms: C_13  and  O_14
REMARK    4  A    between atoms: O_14  and  C_15
REMARK    5  A    between atoms: C_19  and  C_20
REMARK                            x       y       z     vdW  Elec       q    Type
REMARK                         _______ _______ _______ _____ _____    ______ ____
ROOT
ATOM      1  C   UNL     1       3.470   6.593  18.007  0.00  0.00    +0.000 A 
ATOM      2  C   UNL     1       4.511   7.054  17.190  0.00  0.00    +0.000 A 
ATOM      3  C   UNL     1       5.368   6.150  16.558  0.00  0.00    +0.000 A 
ATOM      4  C   UNL     1       5.203   4.779  16.750  0.00  0.00    +0.000 A 
ATOM      5  C   UNL     1       4.140   4.311  17.527  0.00  0.00    +0.000 A 
ATOM      6  C   UNL     1       3.301   5.213  18.180  0.00  0.00    +0.000 A 
ENDROOT
BRANCH   1  12
ATOM      7  C   UNL     1      -0.047  10.233  21.143  0.00  0.00    +0.000 A 
ATOM      8  C   UNL     1      -0.241  10.871  19.908  0.00  0.00    +0.000 A 
ATOM      9  C   UNL     1       0.393  10.418  18.747  0.00  0.00    +0.000 A 
ATOM     10  C   UNL     1       1.212   9.297  18.890  0.00  0.00    +0.000 A 
ATOM     11  N   UNL     1       1.967   8.590  17.997  0.00  0.00    +0.000 N 
ATOM     12  C   UNL     1       2.581   7.549  18.660  0.00  0.00    +0.000 A 
ATOM     13  N   UNL     1       2.267   7.578  19.942  0.00  0.00    +0.000 NA
ATOM     14  C   UNL     1       1.413   8.639  20.095  0.00  0.00    +0.000 A 
ATOM     15  C   UNL     1       0.772   9.098  21.249  0.00  0.00    +0.000 A 
ATOM     16  H   UNL     1       2.074   8.800  17.018  0.00  0.00    +0.000 HD
BRANCH   7  18
ATOM     17  N   UNL     1      -1.629  11.782  22.134  0.00  0.00    +0.000 N 
ATOM     18  C   UNL     1      -0.739  10.770  22.340  0.00  0.00    +0.000 C 
ATOM     19  O   UNL     1      -0.547  10.301  23.452  0.00  0.00    +0.000 OA
ATOM     20  H   UNL     1      -2.165  12.090  22.936  0.00  0.00    +0.000 HD
ATOM     21  H   UNL     1      -1.969  12.029  21.216  0.00  0.00    +0.000 HD
ENDBRANCH   7  18
ENDBRANCH   1  12
BRANCH   4  22
ATOM     22  O   UNL     1       6.100   3.959  16.105  0.00  0.00    +0.000 OA
BRANCH  22  23
ATOM     23  C   UNL     1       6.248   4.055  14.738  0.00  0.00    +0.000 A 
ATOM     24  C   UNL     1       7.397   4.704  14.291  0.00  0.00    +0.000 A 
ATOM     25  C   UNL     1       7.628   4.857  12.924  0.00  0.00    +0.000 A 
ATOM     26  C   UNL     1       6.706   4.366  12.000  0.00  0.00    +0.000 A 
ATOM     27  C   UNL     1       5.558   3.686  12.433  0.00  0.00    +0.000 A 
ATOM     28  C   UNL     1       5.357   3.509  13.810  0.00  0.00    +0.000 A 
BRANCH  27  29
ATOM     29  C   UNL     1       4.529   3.163  11.464  0.00  0.00    +0.000 C 
ATOM     30  F   UNL     1       3.328   2.879  12.040  0.00  0.00    +0.000 F 
ATOM     31  F   UNL     1       4.265   4.042  10.459  0.00  0.00    +0.000 F 
ATOM     32  F   UNL     1       4.932   2.011  10.858  0.00  0.00    +0.000 F 
ENDBRANCH  27  29
ENDBRANCH  22  23
ENDBRANCH   4  22
TORSDOF 5
ENDMDL
