MODEL 1
REMARK VINA RESULT:      -8.0      0.000      0.000
REMARK  Name = 
REMARK  10 active torsions:
REMARK  status: ('A' for Active; 'I' for Inactive)
REMARK    1  A    between atoms: C_1  and  C_2
REMARK    2  A    between atoms: C_2  and  C_3
REMARK    3  A    between atoms: C_2  and  O_4
REMARK    4  A    between atoms: C_2  and  C_5
REMARK    5  A    between atoms: C_6  and  C_7
REMARK    6  A    between atoms: C_10  and  C_11
REMARK    7  A    between atoms: C_11  and  N_12
REMARK    8  A    between atoms: C_15  and  N_16
REMARK    9  A    between atoms: C_20  and  N_21
REMARK   10  A    between atoms: C_22  and  C_24
REMARK                            x       y       z     vdW  Elec       q    Type
REMARK                         _______ _______ _______ _____ _____    ______ ____
ROOT
ATOM      1  N   UNL     1       4.633   4.102  16.902  0.00  0.00    +0.000 NA
ATOM      2  C   UNL     1       4.086   2.817  17.335  0.00  0.00    +0.000 C 
ATOM      3  C   UNL     1       2.558   2.789  17.398  0.00  0.00    +0.000 C 
ATOM      4  C   UNL     1       1.962   3.955  18.190  0.00  0.00    +0.000 C 
ATOM      5  C   UNL     1       2.569   5.283  17.704  0.00  0.00    +0.000 C 
ATOM      6  C   UNL     1       4.096   5.279  17.581  0.00  0.00    +0.000 C 
ENDROOT
BRANCH   4   7
ATOM      7  N   UNL     1       2.002   3.733  19.636  0.00  0.00    +0.000 N 
ATOM      8  N   UNL     1       1.876   2.476  20.109  0.00  0.00    +0.000 NA
ATOM      9  C   UNL     1       2.018   2.595  21.431  0.00  0.00    +0.000 A 
ATOM     10  C   UNL     1       2.227   3.920  21.817  0.00  0.00    +0.000 A 
ATOM     11  C   UNL     1       2.232   4.659  20.650  0.00  0.00    +0.000 A 
BRANCH  11  12
ATOM     12  N   UNL     1       2.428   6.039  20.569  0.00  0.00    +0.000 N 
ATOM     13  C   UNL     1       1.327   6.963  20.719  0.00  0.00    +0.000 C 
ATOM     14  O   UNL     1       0.187   6.587  20.936  0.00  0.00    +0.000 OA
ATOM     15  H   UNL     1       3.363   6.406  20.480  0.00  0.00    +0.000 HD
BRANCH  13  16
ATOM     16  C   UNL     1       1.623   8.409  20.780  0.00  0.00    +0.000 C 
ATOM     17  C   UNL     1       1.426   9.154  19.477  0.00  0.00    +0.000 C 
ATOM     18  C   UNL     1       0.692   9.585  20.712  0.00  0.00    +0.000 C 
ENDBRANCH  13  16
ENDBRANCH  11  12
ENDBRANCH   4   7
BRANCH   1  19
ATOM     19  C   UNL     1       6.117   4.098  16.872  0.00  0.00    +0.000 C 
BRANCH  19  23
ATOM     20  C   UNL     1       8.028   7.745  18.182  0.00  0.00    +0.000 A 
ATOM     21  C   UNL     1       8.135   6.598  18.968  0.00  0.00    +0.000 A 
ATOM     22  C   UNL     1       7.538   5.407  18.537  0.00  0.00    +0.000 A 
ATOM     23  C   UNL     1       6.818   5.366  17.327  0.00  0.00    +0.000 A 
ATOM     24  C   UNL     1       6.753   6.529  16.541  0.00  0.00    +0.000 A 
ATOM     25  C   UNL     1       7.349   7.706  16.969  0.00  0.00    +0.000 A 
BRANCH  20  27
ATOM     26  C   UNL     1       9.150  10.001  18.871  0.00  0.00    +0.000 C 
ATOM     27  C   UNL     1       8.582   8.989  18.584  0.00  0.00    +0.000 C 
BRANCH  26  29
ATOM     28  C   UNL     1       9.781  11.481  20.749  0.00  0.00    +0.000 C 
ATOM     29  C   UNL     1       9.838  11.242  19.240  0.00  0.00    +0.000 C 
ATOM     30  C   UNL     1       9.181  12.383  18.468  0.00  0.00    +0.000 C 
BRANCH  29  31
ATOM     31  O   UNL     1      11.202  11.125  18.847  0.00  0.00    +0.000 OA
ATOM     32  H   UNL     1      11.265  10.390  18.218  0.00  0.00    +0.000 HD
ENDBRANCH  29  31
ENDBRANCH  26  29
ENDBRANCH  20  27
ENDBRANCH  19  23
ENDBRANCH   1  19
TORSDOF 8
ENDMDL
MODEL 2
REMARK VINA RESULT:      -7.7      4.129      8.481
REMARK  Name = 
REMARK  10 active torsions:
REMARK  status: ('A' for Active; 'I' for Inactive)
REMARK    1  A    between atoms: C_1  and  C_2
REMARK    2  A    between atoms: C_2  and  C_3
REMARK    3  A    between atoms: C_2  and  O_4
REMARK    4  A    between atoms: C_2  and  C_5
REMARK    5  A    between atoms: C_6  and  C_7
REMARK    6  A    between atoms: C_10  and  C_11
REMARK    7  A    between atoms: C_11  and  N_12
REMARK    8  A    between atoms: C_15  and  N_16
REMARK    9  A    between atoms: C_20  and  N_21
REMARK   10  A    between atoms: C_22  and  C_24
REMARK                            x       y       z     vdW  Elec       q    Type
REMARK                         _______ _______ _______ _____ _____    ______ ____
ROOT
ATOM      1  N   UNL     1       1.652   6.774  19.863  0.00  0.00    +0.000 NA
ATOM      2  C   UNL     1       2.583   6.349  18.820  0.00  0.00    +0.000 C 
ATOM      3  C   UNL     1       2.137   5.090  18.074  0.00  0.00    +0.000 C 
ATOM      4  C   UNL     1       1.761   3.935  19.004  0.00  0.00    +0.000 C 
ATOM      5  C   UNL     1       0.784   4.430  20.085  0.00  0.00    +0.000 C 
ATOM      6  C   UNL     1       1.209   5.727  20.781  0.00  0.00    +0.000 C 
ENDROOT
BRANCH   4   7
ATOM      7  N   UNL     1       2.929   3.202  19.493  0.00  0.00    +0.000 N 
ATOM      8  N   UNL     1       2.949   2.782  20.775  0.00  0.00    +0.000 NA
ATOM      9  C   UNL     1       4.093   2.103  20.891  0.00  0.00    +0.000 A 
ATOM     10  C   UNL     1       4.815   2.087  19.697  0.00  0.00    +0.000 A 
ATOM     11  C   UNL     1       4.053   2.789  18.783  0.00  0.00    +0.000 A 
BRANCH  11  12
ATOM     12  N   UNL     1       4.393   3.007  17.447  0.00  0.00    +0.000 N 
ATOM     13  C   UNL     1       5.439   3.933  17.080  0.00  0.00    +0.000 C 
ATOM     14  O   UNL     1       6.081   4.554  17.912  0.00  0.00    +0.000 OA
ATOM     15  H   UNL     1       3.956   2.455  16.724  0.00  0.00    +0.000 HD
BRANCH  13  16
ATOM     16  C   UNL     1       5.857   4.002  15.664  0.00  0.00    +0.000 C 
ATOM     17  C   UNL     1       5.466   5.276  14.947  0.00  0.00    +0.000 C 
ATOM     18  C   UNL     1       6.905   4.855  15.010  0.00  0.00    +0.000 C 
ENDBRANCH  13  16
ENDBRANCH  11  12
ENDBRANCH   4   7
BRANCH   1  19
ATOM     19  C   UNL     1       2.126   7.985  20.579  0.00  0.00    +0.000 C 
BRANCH  19  23
ATOM     20  C   UNL     1      -0.828  10.666  22.237  0.00  0.00    +0.000 A 
ATOM     21  C   UNL     1      -0.602  10.667  20.861  0.00  0.00    +0.000 A 
ATOM     22  C   UNL     1       0.338   9.784  20.315  0.00  0.00    +0.000 A 
ATOM     23  C   UNL     1       1.064   8.910  21.147  0.00  0.00    +0.000 A 
ATOM     24  C   UNL     1       0.793   8.909  22.525  0.00  0.00    +0.000 A 
ATOM     25  C   UNL     1      -0.142   9.783  23.063  0.00  0.00    +0.000 A 
BRANCH  20  27
ATOM     26  C   UNL     1      -2.586  12.293  23.279  0.00  0.00    +0.000 C 
ATOM     27  C   UNL     1      -1.743  11.562  22.852  0.00  0.00    +0.000 C 
BRANCH  26  29
ATOM     28  C   UNL     1      -2.973  14.427  24.467  0.00  0.00    +0.000 C 
ATOM     29  C   UNL     1      -3.608  13.203  23.807  0.00  0.00    +0.000 C 
ATOM     30  C   UNL     1      -4.462  12.415  24.796  0.00  0.00    +0.000 C 
BRANCH  29  31
ATOM     31  O   UNL     1      -4.417  13.639  22.719  0.00  0.00    +0.000 OA
ATOM     32  H   UNL     1      -3.829  14.014  22.047  0.00  0.00    +0.000 HD
ENDBRANCH  29  31
ENDBRANCH  26  29
ENDBRANCH  20  27
ENDBRANCH  19  23
ENDBRANCH   1  19
TORSDOF 8
ENDMDL
MODEL 3
REMARK VINA RESULT:      -7.7      0.825      1.026
REMARK  Name = 
REMARK  10 active torsions:
REMARK  status: ('A' for Active; 'I' for Inactive)
REMARK    1  A    between atoms: C_1  and  C_2
REMARK    2  A    between atoms: C_2  and  C_3
REMARK    3  A    between atoms: C_2  and  O_4
REMARK    4  A    between atoms: C_2  and  C_5
REMARK    5  A    between atoms: C_6  and  C_7
REMARK    6  A    between atoms: C_10  and  C_11
REMARK    7  A    between atoms: C_11  and  N_12
REMARK    8  A    between atoms: C_15  and  N_16
REMARK    9  A    between atoms: C_20  and  N_21
REMARK   10  A    between atoms: C_22  and  C_24
REMARK                            x       y       z     vdW  Elec       q    Type
REMARK                         _______ _______ _______ _____ _____    ______ ____
ROOT
ATOM      1  N   UNL     1       4.321   3.533  16.855  0.00  0.00    +0.000 NA
ATOM      2  C   UNL     1       3.854   2.321  17.526  0.00  0.00    +0.000 C 
ATOM      3  C   UNL     1       2.334   2.252  17.684  0.00  0.00    +0.000 C 
ATOM      4  C   UNL     1       1.732   3.513  18.306  0.00  0.00    +0.000 C 
ATOM      5  C   UNL     1       2.253   4.761  17.572  0.00  0.00    +0.000 C 
ATOM      6  C   UNL     1       3.770   4.788  17.361  0.00  0.00    +0.000 C 
ENDROOT
BRANCH   4   7
ATOM      7  N   UNL     1       1.859   3.537  19.764  0.00  0.00    +0.000 N 
ATOM      8  N   UNL     1       1.724   2.385  20.453  0.00  0.00    +0.000 NA
ATOM      9  C   UNL     1       1.955   2.720  21.724  0.00  0.00    +0.000 A 
ATOM     10  C   UNL     1       2.231   4.081  21.864  0.00  0.00    +0.000 A 
ATOM     11  C   UNL     1       2.183   4.611  20.589  0.00  0.00    +0.000 A 
BRANCH  11  12
ATOM     12  N   UNL     1       2.417   5.947  20.261  0.00  0.00    +0.000 N 
ATOM     13  C   UNL     1       1.448   6.975  20.564  0.00  0.00    +0.000 C 
ATOM     14  O   UNL     1       0.395   6.731  21.130  0.00  0.00    +0.000 OA
ATOM     15  H   UNL     1       3.308   6.218  19.873  0.00  0.00    +0.000 HD
BRANCH  13  16
ATOM     16  C   UNL     1       1.820   8.387  20.336  0.00  0.00    +0.000 C 
ATOM     17  C   UNL     1       1.543   8.899  18.938  0.00  0.00    +0.000 C 
ATOM     18  C   UNL     1       0.948   9.591  20.129  0.00  0.00    +0.000 C 
ENDBRANCH  13  16
ENDBRANCH  11  12
ENDBRANCH   4   7
BRANCH   1  19
ATOM     19  C   UNL     1       5.800   3.575  16.736  0.00  0.00    +0.000 C 
BRANCH  19  23
ATOM     20  C   UNL     1       7.657   7.348  17.724  0.00  0.00    +0.000 A 
ATOM     21  C   UNL     1       7.540   6.368  18.708  0.00  0.00    +0.000 A 
ATOM     22  C   UNL     1       6.960   5.134  18.389  0.00  0.00    +0.000 A 
ATOM     23  C   UNL     1       6.482   4.886  17.087  0.00  0.00    +0.000 A 
ATOM     24  C   UNL     1       6.642   5.881  16.108  0.00  0.00    +0.000 A 
ATOM     25  C   UNL     1       7.220   7.102  16.428  0.00  0.00    +0.000 A 
BRANCH  20  27
ATOM     26  C   UNL     1       8.741   9.654  18.302  0.00  0.00    +0.000 C 
ATOM     27  C   UNL     1       8.204   8.630  17.999  0.00  0.00    +0.000 C 
BRANCH  26  29
ATOM     28  C   UNL     1      10.718  11.097  17.956  0.00  0.00    +0.000 C 
ATOM     29  C   UNL     1       9.382  10.919  18.676  0.00  0.00    +0.000 C 
ATOM     30  C   UNL     1       9.560  10.916  20.192  0.00  0.00    +0.000 C 
BRANCH  29  31
ATOM     31  O   UNL     1       8.514  11.983  18.301  0.00  0.00    +0.000 OA
ATOM     32  H   UNL     1       7.899  12.133  19.034  0.00  0.00    +0.000 HD
ENDBRANCH  29  31
ENDBRANCH  26  29
ENDBRANCH  20  27
ENDBRANCH  19  23
ENDBRANCH   1  19
TORSDOF 8
ENDMDL
MODEL 4
REMARK VINA RESULT:      -7.6      4.067      8.493
REMARK  Name = 
REMARK  10 active torsions:
REMARK  status: ('A' for Active; 'I' for Inactive)
REMARK    1  A    between atoms: C_1  and  C_2
REMARK    2  A    between atoms: C_2  and  C_3
REMARK    3  A    between atoms: C_2  and  O_4
REMARK    4  A    between atoms: C_2  and  C_5
REMARK    5  A    between atoms: C_6  and  C_7
REMARK    6  A    between atoms: C_10  and  C_11
REMARK    7  A    between atoms: C_11  and  N_12
REMARK    8  A    between atoms: C_15  and  N_16
REMARK    9  A    between atoms: C_20  and  N_21
REMARK   10  A    between atoms: C_22  and  C_24
REMARK                            x       y       z     vdW  Elec       q    Type
REMARK                         _______ _______ _______ _____ _____    ______ ____
ROOT
ATOM      1  N   UNL     1       1.696   6.890  19.827  0.00  0.00    +0.000 NA
ATOM      2  C   UNL     1       2.626   6.396  18.813  0.00  0.00    +0.000 C 
ATOM      3  C   UNL     1       2.149   5.125  18.108  0.00  0.00    +0.000 C 
ATOM      4  C   UNL     1       1.724   4.019  19.075  0.00  0.00    +0.000 C 
ATOM      5  C   UNL     1       0.751   4.584  20.124  0.00  0.00    +0.000 C 
ATOM      6  C   UNL     1       1.208   5.893  20.777  0.00  0.00    +0.000 C 
ENDROOT
BRANCH   4   7
ATOM      7  N   UNL     1       2.863   3.268  19.607  0.00  0.00    +0.000 N 
ATOM      8  N   UNL     1       2.830   2.852  20.890  0.00  0.00    +0.000 NA
ATOM      9  C   UNL     1       3.958   2.155  21.049  0.00  0.00    +0.000 A 
ATOM     10  C   UNL     1       4.722   2.123  19.882  0.00  0.00    +0.000 A 
ATOM     11  C   UNL     1       4.005   2.834  18.939  0.00  0.00    +0.000 A 
BRANCH  11  12
ATOM     12  N   UNL     1       4.395   3.042  17.615  0.00  0.00    +0.000 N 
ATOM     13  C   UNL     1       5.520   3.888  17.288  0.00  0.00    +0.000 C 
ATOM     14  O   UNL     1       6.186   4.445  18.145  0.00  0.00    +0.000 OA
ATOM     15  H   UNL     1       3.935   2.535  16.874  0.00  0.00    +0.000 HD
BRANCH  13  16
ATOM     16  C   UNL     1       5.978   3.942  15.885  0.00  0.00    +0.000 C 
ATOM     17  C   UNL     1       5.291   4.985  15.030  0.00  0.00    +0.000 C 
ATOM     18  C   UNL     1       6.784   4.991  15.175  0.00  0.00    +0.000 C 
ENDBRANCH  13  16
ENDBRANCH  11  12
ENDBRANCH   4   7
BRANCH   1  19
ATOM     19  C   UNL     1       2.200   8.112  20.503  0.00  0.00    +0.000 C 
BRANCH  19  23
ATOM     20  C   UNL     1      -0.809  10.636  22.302  0.00  0.00    +0.000 A 
ATOM     21  C   UNL     1      -0.060   9.786  23.113  0.00  0.00    +0.000 A 
ATOM     22  C   UNL     1       0.934   8.982  22.539  0.00  0.00    +0.000 A 
ATOM     23  C   UNL     1       1.166   9.017  21.150  0.00  0.00    +0.000 A 
ATOM     24  C   UNL     1       0.416   9.906  20.362  0.00  0.00    +0.000 A 
ATOM     25  C   UNL     1      -0.565  10.704  20.935  0.00  0.00    +0.000 A 
BRANCH  20  27
ATOM     26  C   UNL     1      -2.768  12.035  23.319  0.00  0.00    +0.000 C 
ATOM     27  C   UNL     1      -1.853  11.448  22.822  0.00  0.00    +0.000 C 
BRANCH  26  29
ATOM     28  C   UNL     1      -4.901  13.192  22.844  0.00  0.00    +0.000 C 
ATOM     29  C   UNL     1      -3.894  12.763  23.912  0.00  0.00    +0.000 C 
ATOM     30  C   UNL     1      -3.325  13.967  24.658  0.00  0.00    +0.000 C 
BRANCH  29  31
ATOM     31  O   UNL     1      -4.546  11.896  24.834  0.00  0.00    +0.000 OA
ATOM     32  H   UNL     1      -5.408  11.661  24.457  0.00  0.00    +0.000 HD
ENDBRANCH  29  31
ENDBRANCH  26  29
ENDBRANCH  20  27
ENDBRANCH  19  23
ENDBRANCH   1  19
TORSDOF 8
ENDMDL
MODEL 5
REMARK VINA RESULT:      -7.6      0.949      1.150
REMARK  Name = 
REMARK  10 active torsions:
REMARK  status: ('A' for Active; 'I' for Inactive)
REMARK    1  A    between atoms: C_1  and  C_2
REMARK    2  A    between atoms: C_2  and  C_3
REMARK    3  A    between atoms: C_2  and  O_4
REMARK    4  A    between atoms: C_2  and  C_5
REMARK    5  A    between atoms: C_6  and  C_7
REMARK    6  A    between atoms: C_10  and  C_11
REMARK    7  A    between atoms: C_11  and  N_12
REMARK    8  A    between atoms: C_15  and  N_16
REMARK    9  A    between atoms: C_20  and  N_21
REMARK   10  A    between atoms: C_22  and  C_24
REMARK                            x       y       z     vdW  Elec       q    Type
REMARK                         _______ _______ _______ _____ _____    ______ ____
ROOT
ATOM      1  N   UNL     1       4.746   4.568  16.814  0.00  0.00    +0.000 NA
ATOM      2  C   UNL     1       4.179   3.240  17.042  0.00  0.00    +0.000 C 
ATOM      3  C   UNL     1       2.653   3.232  17.139  0.00  0.00    +0.000 C 
ATOM      4  C   UNL     1       2.102   4.261  18.127  0.00  0.00    +0.000 C 
ATOM      5  C   UNL     1       2.728   5.640  17.851  0.00  0.00    +0.000 C 
ATOM      6  C   UNL     1       4.252   5.627  17.691  0.00  0.00    +0.000 C 
ENDROOT
BRANCH   4   7
ATOM      7  N   UNL     1       2.169   3.802  19.515  0.00  0.00    +0.000 N 
ATOM      8  N   UNL     1       2.873   2.688  19.803  0.00  0.00    +0.000 NA
ATOM      9  C   UNL     1       2.798   2.573  21.131  0.00  0.00    +0.000 A 
ATOM     10  C   UNL     1       2.046   3.600  21.703  0.00  0.00    +0.000 A 
ATOM     11  C   UNL     1       1.648   4.408  20.655  0.00  0.00    +0.000 A 
BRANCH  11  12
ATOM     12  N   UNL     1       0.885   5.570  20.777  0.00  0.00    +0.000 N 
ATOM     13  C   UNL     1       1.500   6.878  20.756  0.00  0.00    +0.000 C 
ATOM     14  O   UNL     1       2.702   7.029  20.618  0.00  0.00    +0.000 OA
ATOM     15  H   UNL     1      -0.122   5.506  20.804  0.00  0.00    +0.000 HD
BRANCH  13  16
ATOM     16  C   UNL     1       0.626   8.069  20.730  0.00  0.00    +0.000 C 
ATOM     17  C   UNL     1       0.872   9.063  21.845  0.00  0.00    +0.000 C 
ATOM     18  C   UNL     1       0.956   9.499  20.412  0.00  0.00    +0.000 C 
ENDBRANCH  13  16
ENDBRANCH  11  12
ENDBRANCH   4   7
BRANCH   1  19
ATOM     19  C   UNL     1       6.229   4.541  16.745  0.00  0.00    +0.000 C 
BRANCH  19  23
ATOM     20  C   UNL     1       8.244   8.007  18.355  0.00  0.00    +0.000 A 
ATOM     21  C   UNL     1       8.307   6.798  19.048  0.00  0.00    +0.000 A 
ATOM     22  C   UNL     1       7.675   5.665  18.520  0.00  0.00    +0.000 A 
ATOM     23  C   UNL     1       6.966   5.744  17.305  0.00  0.00    +0.000 A 
ATOM     24  C   UNL     1       6.946   6.968  16.614  0.00  0.00    +0.000 A 
ATOM     25  C   UNL     1       7.575   8.087  17.139  0.00  0.00    +0.000 A 
BRANCH  20  27
ATOM     26  C   UNL     1       9.222  10.244  19.283  0.00  0.00    +0.000 C 
ATOM     27  C   UNL     1       8.834   9.196  18.860  0.00  0.00    +0.000 C 
BRANCH  26  29
ATOM     28  C   UNL     1      11.238  11.607  19.722  0.00  0.00    +0.000 C 
ATOM     29  C   UNL     1       9.713  11.529  19.792  0.00  0.00    +0.000 C 
ATOM     30  C   UNL     1       9.210  11.682  21.225  0.00  0.00    +0.000 C 
BRANCH  29  31
ATOM     31  O   UNL     1       9.165  12.564  18.982  0.00  0.00    +0.000 OA
ATOM     32  H   UNL     1       9.857  13.228  18.844  0.00  0.00    +0.000 HD
ENDBRANCH  29  31
ENDBRANCH  26  29
ENDBRANCH  20  27
ENDBRANCH  19  23
ENDBRANCH   1  19
TORSDOF 8
ENDMDL
MODEL 6
REMARK VINA RESULT:      -7.4      4.946      8.425
REMARK  Name = 
REMARK  10 active torsions:
REMARK  status: ('A' for Active; 'I' for Inactive)
REMARK    1  A    between atoms: C_1  and  C_2
REMARK    2  A    between atoms: C_2  and  C_3
REMARK    3  A    between atoms: C_2  and  O_4
REMARK    4  A    between atoms: C_2  and  C_5
REMARK    5  A    between atoms: C_6  and  C_7
REMARK    6  A    between atoms: C_10  and  C_11
REMARK    7  A    between atoms: C_11  and  N_12
REMARK    8  A    between atoms: C_15  and  N_16
REMARK    9  A    between atoms: C_20  and  N_21
REMARK   10  A    between atoms: C_22  and  C_24
REMARK                            x       y       z     vdW  Elec       q    Type
REMARK                         _______ _______ _______ _____ _____    ______ ____
ROOT
ATOM      1  N   UNL     1       0.019  10.454  20.425  0.00  0.00    +0.000 NA
ATOM      2  C   UNL     1      -0.851  10.633  19.265  0.00  0.00    +0.000 C 
ATOM      3  C   UNL     1      -1.167  12.097  18.953  0.00  0.00    +0.000 C 
ATOM      4  C   UNL     1      -1.670  12.881  20.167  0.00  0.00    +0.000 C 
ATOM      5  C   UNL     1      -0.727  12.660  21.362  0.00  0.00    +0.000 C 
ATOM      6  C   UNL     1      -0.365  11.194  21.625  0.00  0.00    +0.000 C 
ENDROOT
BRANCH   4   7
ATOM      7  N   UNL     1      -3.092  12.656  20.432  0.00  0.00    +0.000 N 
ATOM      8  N   UNL     1      -3.540  12.726  21.703  0.00  0.00    +0.000 NA
ATOM      9  C   UNL     1      -4.859  12.545  21.607  0.00  0.00    +0.000 A 
ATOM     10  C   UNL     1      -5.266  12.351  20.287  0.00  0.00    +0.000 A 
ATOM     11  C   UNL     1      -4.121  12.438  19.520  0.00  0.00    +0.000 A 
BRANCH  11  12
ATOM     12  N   UNL     1      -4.069  12.320  18.130  0.00  0.00    +0.000 N 
ATOM     13  C   UNL     1      -4.063  11.026  17.486  0.00  0.00    +0.000 C 
ATOM     14  O   UNL     1      -4.118   9.984  18.118  0.00  0.00    +0.000 OA
ATOM     15  H   UNL     1      -4.112  13.149  17.557  0.00  0.00    +0.000 HD
BRANCH  13  16
ATOM     16  C   UNL     1      -4.167  10.970  16.013  0.00  0.00    +0.000 C 
ATOM     17  C   UNL     1      -2.841  10.926  15.284  0.00  0.00    +0.000 C 
ATOM     18  C   UNL     1      -3.857   9.844  15.069  0.00  0.00    +0.000 C 
ENDBRANCH  13  16
ENDBRANCH  11  12
ENDBRANCH   4   7
BRANCH   1  19
ATOM     19  C   UNL     1       0.287   9.021  20.710  0.00  0.00    +0.000 C 
BRANCH  19  23
ATOM     20  C   UNL     1       3.283   7.023  18.323  0.00  0.00    +0.000 A 
ATOM     21  C   UNL     1       2.751   8.232  17.877  0.00  0.00    +0.000 A 
ATOM     22  C   UNL     1       1.796   8.897  18.658  0.00  0.00    +0.000 A 
ATOM     23  C   UNL     1       1.361   8.343  19.878  0.00  0.00    +0.000 A 
ATOM     24  C   UNL     1       1.937   7.139  20.317  0.00  0.00    +0.000 A 
ATOM     25  C   UNL     1       2.885   6.485  19.542  0.00  0.00    +0.000 A 
BRANCH  20  27
ATOM     26  C   UNL     1       4.989   5.735  16.821  0.00  0.00    +0.000 C 
ATOM     27  C   UNL     1       4.227   6.287  17.558  0.00  0.00    +0.000 C 
BRANCH  26  29
ATOM     28  C   UNL     1       5.254   3.837  15.260  0.00  0.00    +0.000 C 
ATOM     29  C   UNL     1       5.920   5.041  15.925  0.00  0.00    +0.000 C 
ATOM     30  C   UNL     1       7.133   4.624  16.752  0.00  0.00    +0.000 C 
BRANCH  29  31
ATOM     31  O   UNL     1       6.325   5.957  14.913  0.00  0.00    +0.000 OA
ATOM     32  H   UNL     1       6.975   5.507  14.353  0.00  0.00    +0.000 HD
ENDBRANCH  29  31
ENDBRANCH  26  29
ENDBRANCH  20  27
ENDBRANCH  19  23
ENDBRANCH   1  19
TORSDOF 8
ENDMDL
MODEL 7
REMARK VINA RESULT:      -7.3      4.063      8.439
REMARK  Name = 
REMARK  10 active torsions:
REMARK  status: ('A' for Active; 'I' for Inactive)
REMARK    1  A    between atoms: C_1  and  C_2
REMARK    2  A    between atoms: C_2  and  C_3
REMARK    3  A    between atoms: C_2  and  O_4
REMARK    4  A    between atoms: C_2  and  C_5
REMARK    5  A    between atoms: C_6  and  C_7
REMARK    6  A    between atoms: C_10  and  C_11
REMARK    7  A    between atoms: C_11  and  N_12
REMARK    8  A    between atoms: C_15  and  N_16
REMARK    9  A    between atoms: C_20  and  N_21
REMARK   10  A    between atoms: C_22  and  C_24
REMARK                            x       y       z     vdW  Elec       q    Type
REMARK                         _______ _______ _______ _____ _____    ______ ____
ROOT
ATOM      1  N   UNL     1       1.607   6.864  19.861  0.00  0.00    +0.000 NA
ATOM      2  C   UNL     1       2.381   6.460  18.689  0.00  0.00    +0.000 C 
ATOM      3  C   UNL     1       1.875   5.175  18.032  0.00  0.00    +0.000 C 
ATOM      4  C   UNL     1       1.694   4.020  19.019  0.00  0.00    +0.000 C 
ATOM      5  C   UNL     1       0.879   4.492  20.235  0.00  0.00    +0.000 C 
ATOM      6  C   UNL     1       1.354   5.815  20.846  0.00  0.00    +0.000 C 
ENDROOT
BRANCH   4   7
ATOM      7  N   UNL     1       2.953   3.339  19.327  0.00  0.00    +0.000 N 
ATOM      8  N   UNL     1       3.096   2.737  20.525  0.00  0.00    +0.000 NA
ATOM      9  C   UNL     1       4.300   2.162  20.474  0.00  0.00    +0.000 A 
ATOM     10  C   UNL     1       4.939   2.395  19.256  0.00  0.00    +0.000 A 
ATOM     11  C   UNL     1       4.059   3.147  18.503  0.00  0.00    +0.000 A 
BRANCH  11  12
ATOM     12  N   UNL     1       4.288   3.593  17.200  0.00  0.00    +0.000 N 
ATOM     13  C   UNL     1       5.175   4.701  16.931  0.00  0.00    +0.000 C 
ATOM     14  O   UNL     1       5.774   5.286  17.819  0.00  0.00    +0.000 OA
ATOM     15  H   UNL     1       3.888   3.089  16.423  0.00  0.00    +0.000 HD
BRANCH  13  16
ATOM     16  C   UNL     1       5.497   5.023  15.526  0.00  0.00    +0.000 C 
ATOM     17  C   UNL     1       6.911   4.685  15.104  0.00  0.00    +0.000 C 
ATOM     18  C   UNL     1       5.743   4.108  14.361  0.00  0.00    +0.000 C 
ENDBRANCH  13  16
ENDBRANCH  11  12
ENDBRANCH   4   7
BRANCH   1  19
ATOM     19  C   UNL     1       2.137   8.103  20.484  0.00  0.00    +0.000 C 
BRANCH  19  23
ATOM     20  C   UNL     1      -0.810  10.758  22.197  0.00  0.00    +0.000 A 
ATOM     21  C   UNL     1      -0.231   9.774  22.998  0.00  0.00    +0.000 A 
ATOM     22  C   UNL     1       0.742   8.925  22.455  0.00  0.00    +0.000 A 
ATOM     23  C   UNL     1       1.125   9.050  21.105  0.00  0.00    +0.000 A 
ATOM     24  C   UNL     1       0.547  10.070  20.331  0.00  0.00    +0.000 A 
ATOM     25  C   UNL     1      -0.415  10.911  20.873  0.00  0.00    +0.000 A 
BRANCH  20  27
ATOM     26  C   UNL     1      -2.611  12.371  23.186  0.00  0.00    +0.000 C 
ATOM     27  C   UNL     1      -1.826  11.623  22.683  0.00  0.00    +0.000 C 
BRANCH  26  29
ATOM     28  C   UNL     1      -2.899  14.435  24.516  0.00  0.00    +0.000 C 
ATOM     29  C   UNL     1      -3.589  13.276  23.798  0.00  0.00    +0.000 C 
ATOM     30  C   UNL     1      -4.443  12.452  24.759  0.00  0.00    +0.000 C 
BRANCH  29  31
ATOM     31  O   UNL     1      -4.412  13.803  22.763  0.00  0.00    +0.000 OA
ATOM     32  H   UNL     1      -5.251  14.075  23.165  0.00  0.00    +0.000 HD
ENDBRANCH  29  31
ENDBRANCH  26  29
ENDBRANCH  20  27
ENDBRANCH  19  23
ENDBRANCH   1  19
TORSDOF 8
ENDMDL
MODEL 8
REMARK VINA RESULT:      -7.3      3.642      8.425
REMARK  Name = 
REMARK  10 active torsions:
REMARK  status: ('A' for Active; 'I' for Inactive)
REMARK    1  A    between atoms: C_1  and  C_2
REMARK    2  A    between atoms: C_2  and  C_3
REMARK    3  A    between atoms: C_2  and  O_4
REMARK    4  A    between atoms: C_2  and  C_5
REMARK    5  A    between atoms: C_6  and  C_7
REMARK    6  A    between atoms: C_10  and  C_11
REMARK    7  A    between atoms: C_11  and  N_12
REMARK    8  A    between atoms: C_15  and  N_16
REMARK    9  A    between atoms: C_20  and  N_21
REMARK   10  A    between atoms: C_22  and  C_24
REMARK                            x       y       z     vdW  Elec       q    Type
REMARK                         _______ _______ _______ _____ _____    ______ ____
ROOT
ATOM      1  N   UNL     1       2.590   6.965  18.259  0.00  0.00    +0.000 NA
ATOM      2  C   UNL     1       3.229   6.276  17.139  0.00  0.00    +0.000 C 
ATOM      3  C   UNL     1       3.518   4.798  17.410  0.00  0.00    +0.000 C 
ATOM      4  C   UNL     1       4.263   4.557  18.724  0.00  0.00    +0.000 C 
ATOM      5  C   UNL     1       3.559   5.303  19.871  0.00  0.00    +0.000 C 
ATOM      6  C   UNL     1       3.215   6.764  19.565  0.00  0.00    +0.000 C 
ENDROOT
BRANCH   4   7
ATOM      7  N   UNL     1       5.703   4.793  18.606  0.00  0.00    +0.000 N 
ATOM      8  N   UNL     1       6.349   5.415  19.614  0.00  0.00    +0.000 NA
ATOM      9  C   UNL     1       7.632   5.419  19.242  0.00  0.00    +0.000 A 
ATOM     10  C   UNL     1       7.819   4.811  18.001  0.00  0.00    +0.000 A 
ATOM     11  C   UNL     1       6.568   4.390  17.592  0.00  0.00    +0.000 A 
BRANCH  11  12
ATOM     12  N   UNL     1       6.292   3.712  16.403  0.00  0.00    +0.000 N 
ATOM     13  C   UNL     1       6.441   4.358  15.120  0.00  0.00    +0.000 C 
ATOM     14  O   UNL     1       6.824   5.511  15.011  0.00  0.00    +0.000 OA
ATOM     15  H   UNL     1       6.058   2.731  16.431  0.00  0.00    +0.000 HD
BRANCH  13  16
ATOM     16  C   UNL     1       6.286   3.543  13.897  0.00  0.00    +0.000 C 
ATOM     17  C   UNL     1       5.141   3.956  12.998  0.00  0.00    +0.000 C 
ATOM     18  C   UNL     1       6.541   3.903  12.462  0.00  0.00    +0.000 C 
ENDBRANCH  13  16
ENDBRANCH  11  12
ENDBRANCH   4   7
BRANCH   1  19
ATOM     19  C   UNL     1       2.343   8.400  17.968  0.00  0.00    +0.000 C 
BRANCH  19  23
ATOM     20  C   UNL     1      -0.172  10.563  20.735  0.00  0.00    +0.000 A 
ATOM     21  C   UNL     1       0.369   9.338  21.121  0.00  0.00    +0.000 A 
ATOM     22  C   UNL     1       1.204   8.642  20.237  0.00  0.00    +0.000 A 
ATOM     23  C   UNL     1       1.486   9.165  18.960  0.00  0.00    +0.000 A 
ATOM     24  C   UNL     1       0.951  10.417  18.610  0.00  0.00    +0.000 A 
ATOM     25  C   UNL     1       0.126  11.104  19.490  0.00  0.00    +0.000 A 
BRANCH  20  27
ATOM     26  C   UNL     1      -1.873  11.908  22.192  0.00  0.00    +0.000 C 
ATOM     27  C   UNL     1      -1.054  11.296  21.574  0.00  0.00    +0.000 C 
BRANCH  26  29
ATOM     28  C   UNL     1      -3.961  13.224  22.044  0.00  0.00    +0.000 C 
ATOM     29  C   UNL     1      -2.866  12.671  22.955  0.00  0.00    +0.000 C 
ATOM     30  C   UNL     1      -2.127  13.791  23.684  0.00  0.00    +0.000 C 
BRANCH  29  31
ATOM     31  O   UNL     1      -3.461  11.795  23.907  0.00  0.00    +0.000 OA
ATOM     32  H   UNL     1      -3.961  12.339  24.535  0.00  0.00    +0.000 HD
ENDBRANCH  29  31
ENDBRANCH  26  29
ENDBRANCH  20  27
ENDBRANCH  19  23
ENDBRANCH   1  19
TORSDOF 8
ENDMDL
MODEL 9
REMARK VINA RESULT:      -7.2      3.640      8.239
REMARK  Name = 
REMARK  10 active torsions:
REMARK  status: ('A' for Active; 'I' for Inactive)
REMARK    1  A    between atoms: C_1  and  C_2
REMARK    2  A    between atoms: C_2  and  C_3
REMARK    3  A    between atoms: C_2  and  O_4
REMARK    4  A    between atoms: C_2  and  C_5
REMARK    5  A    between atoms: C_6  and  C_7
REMARK    6  A    between atoms: C_10  and  C_11
REMARK    7  A    between atoms: C_11  and  N_12
REMARK    8  A    between atoms: C_15  and  N_16
REMARK    9  A    between atoms: C_20  and  N_21
REMARK   10  A    between atoms: C_22  and  C_24
REMARK                            x       y       z     vdW  Elec       q    Type
REMARK                         _______ _______ _______ _____ _____    ______ ____
ROOT
ATOM      1  N   UNL     1       2.413   7.224  19.767  0.00  0.00    +0.000 NA
ATOM      2  C   UNL     1       1.500   6.230  20.329  0.00  0.00    +0.000 C 
ATOM      3  C   UNL     1       2.207   5.097  21.073  0.00  0.00    +0.000 C 
ATOM      4  C   UNL     1       3.326   4.443  20.260  0.00  0.00    +0.000 C 
ATOM      5  C   UNL     1       4.258   5.524  19.687  0.00  0.00    +0.000 C 
ATOM      6  C   UNL     1       3.536   6.689  19.000  0.00  0.00    +0.000 C 
ENDROOT
BRANCH   4   7
ATOM      7  N   UNL     1       2.823   3.464  19.296  0.00  0.00    +0.000 N 
ATOM      8  N   UNL     1       1.541   3.054  19.386  0.00  0.00    +0.000 NA
ATOM      9  C   UNL     1       1.374   2.231  18.348  0.00  0.00    +0.000 A 
ATOM     10  C   UNL     1       2.539   2.100  17.592  0.00  0.00    +0.000 A 
ATOM     11  C   UNL     1       3.479   2.912  18.198  0.00  0.00    +0.000 A 
BRANCH  11  12
ATOM     12  N   UNL     1       4.791   3.096  17.759  0.00  0.00    +0.000 N 
ATOM     13  C   UNL     1       5.100   4.005  16.678  0.00  0.00    +0.000 C 
ATOM     14  O   UNL     1       4.240   4.660  16.113  0.00  0.00    +0.000 OA
ATOM     15  H   UNL     1       5.549   2.647  18.249  0.00  0.00    +0.000 HD
BRANCH  13  16
ATOM     16  C   UNL     1       6.518   4.274  16.366  0.00  0.00    +0.000 C 
ATOM     17  C   UNL     1       6.973   5.691  16.643  0.00  0.00    +0.000 C 
ATOM     18  C   UNL     1       7.675   4.533  17.288  0.00  0.00    +0.000 C 
ENDBRANCH  13  16
ENDBRANCH  11  12
ENDBRANCH   4   7
BRANCH   1  19
ATOM     19  C   UNL     1       1.694   8.297  19.035  0.00  0.00    +0.000 C 
BRANCH  19  23
ATOM     20  C   UNL     1      -0.714  11.011  21.381  0.00  0.00    +0.000 A 
ATOM     21  C   UNL     1       0.186  10.165  22.028  0.00  0.00    +0.000 A 
ATOM     22  C   UNL     1       0.986   9.299  21.271  0.00  0.00    +0.000 A 
ATOM     23  C   UNL     1       0.875   9.268  19.867  0.00  0.00    +0.000 A 
ATOM     24  C   UNL     1      -0.019  10.153  19.241  0.00  0.00    +0.000 A 
ATOM     25  C   UNL     1      -0.808  11.012  19.995  0.00  0.00    +0.000 A 
BRANCH  20  27
ATOM     26  C   UNL     1      -2.324  12.526  22.772  0.00  0.00    +0.000 C 
ATOM     27  C   UNL     1      -1.575  11.884  22.098  0.00  0.00    +0.000 C 
BRANCH  26  29
ATOM     28  C   UNL     1      -4.088  12.434  24.502  0.00  0.00    +0.000 C 
ATOM     29  C   UNL     1      -3.251  13.323  23.583  0.00  0.00    +0.000 C 
ATOM     30  C   UNL     1      -4.130  14.124  22.628  0.00  0.00    +0.000 C 
BRANCH  29  31
ATOM     31  O   UNL     1      -2.483  14.214  24.385  0.00  0.00    +0.000 OA
ATOM     32  H   UNL     1      -3.073  14.590  25.055  0.00  0.00    +0.000 HD
ENDBRANCH  29  31
ENDBRANCH  26  29
ENDBRANCH  20  27
ENDBRANCH  19  23
ENDBRANCH   1  19
TORSDOF 8
ENDMDL
