MODEL 1
REMARK VINA RESULT:      -7.1      0.000      0.000
REMARK  Name = 
REMARK  11 active torsions:
REMARK  status: ('A' for Active; 'I' for Inactive)
REMARK    1  A    between atoms: C_1  and  C_2
REMARK    2  A    between atoms: N_14  and  O_15
REMARK    3  A    between atoms: O_15  and  C_16
REMARK    4  A    between atoms: C_16  and  C_17
REMARK    5  A    between atoms: C_17  and  C_18
REMARK    6  A    between atoms: C_18  and  C_19
REMARK    7  A    between atoms: C_19  and  C_20
REMARK    8  A    between atoms: C_20  and  C_21
REMARK    9  A    between atoms: C_21  and  C_22
REMARK   10  A    between atoms: C_22  and  C_23
REMARK   11  A    between atoms: C_23  and  O_24
REMARK                            x       y       z     vdW  Elec       q    Type
REMARK                         _______ _______ _______ _____ _____    ______ ____
ROOT
ATOM      1  C   UNL     1       5.525   6.039  15.209  0.00  0.00    +0.000 C 
ATOM      2  C   UNL     1       6.310   4.921  15.908  0.00  0.00    +0.000 C 
ATOM      3  C   UNL     1       6.890   5.361  17.257  0.00  0.00    +0.000 C 
ATOM      4  C   UNL     1       5.784   5.696  18.286  0.00  0.00    +0.000 C 
ATOM      5  C   UNL     1       4.727   4.584  18.497  0.00  0.00    +0.000 C 
ATOM      6  C   UNL     1       4.294   3.972  17.128  0.00  0.00    +0.000 C 
ATOM      7  C   UNL     1       5.448   3.687  16.161  0.00  0.00    +0.000 C 
ATOM      8  N   UNL     1       5.257   3.555  19.362  0.00  0.00    +0.000 N 
ATOM      9  C   UNL     1       4.435   2.585  19.813  0.00  0.00    +0.000 C 
ATOM     10  N   UNL     1       5.083   1.508  20.283  0.00  0.00    +0.000 N 
ATOM     11  N   UNL     1       3.143   2.651  19.828  0.00  0.00    +0.000 NA
ATOM     12  C   UNL     1       2.655   3.860  19.524  0.00  0.00    +0.000 C 
ATOM     13  N   UNL     1       1.375   4.014  19.521  0.00  0.00    +0.000 NA
ATOM     14  N   UNL     1       3.517   4.971  19.256  0.00  0.00    +0.000 N 
ATOM     15  H   UNL     1       6.248   3.355  19.274  0.00  0.00    +0.000 HD
ATOM     16  H   UNL     1       6.032   1.288  19.992  0.00  0.00    +0.000 HD
ATOM     17  H   UNL     1       4.510   0.702  20.478  0.00  0.00    +0.000 HD
ATOM     18  H   UNL     1       1.008   3.067  19.722  0.00  0.00    +0.000 HD
ENDROOT
BRANCH  14  19
ATOM     19  O   UNL     1       3.159   6.284  19.694  0.00  0.00    +0.000 OA
BRANCH  19  20
ATOM     20  C   UNL     1       2.372   6.930  18.654  0.00  0.00    +0.000 C 
BRANCH  20  21
ATOM     21  C   UNL     1       3.125   7.919  17.759  0.00  0.00    +0.000 C 
BRANCH  21  22
ATOM     22  C   UNL     1       2.450   9.280  17.843  0.00  0.00    +0.000 C 
BRANCH  22  23
ATOM     23  C   UNL     1       1.024   9.205  18.364  0.00  0.00    +0.000 C 
BRANCH  23  24
ATOM     24  C   UNL     1       0.825  10.161  19.541  0.00  0.00    +0.000 C 
BRANCH  24  25
ATOM     25  C   UNL     1      -0.282   9.639  20.449  0.00  0.00    +0.000 C 
BRANCH  25  26
ATOM     26  C   UNL     1       0.199   8.517  21.359  0.00  0.00    +0.000 C 
BRANCH  26  27
ATOM     27  C   UNL     1       1.259   9.030  22.324  0.00  0.00    +0.000 C 
BRANCH  27  28
ATOM     28  O   UNL     1       0.675   9.936  23.248  0.00  0.00    +0.000 OA
ATOM     29  H   UNL     1       1.033  10.819  23.058  0.00  0.00    +0.000 HD
ENDBRANCH  27  28
ENDBRANCH  26  27
ENDBRANCH  25  26
ENDBRANCH  24  25
ENDBRANCH  23  24
ENDBRANCH  22  23
ENDBRANCH  21  22
ENDBRANCH  20  21
ENDBRANCH  19  20
ENDBRANCH  14  19
TORSDOF 10
ENDMDL
MODEL 2
REMARK VINA RESULT:      -7.1      1.483      1.689
REMARK  Name = 
REMARK  11 active torsions:
REMARK  status: ('A' for Active; 'I' for Inactive)
REMARK    1  A    between atoms: C_1  and  C_2
REMARK    2  A    between atoms: N_14  and  O_15
REMARK    3  A    between atoms: O_15  and  C_16
REMARK    4  A    between atoms: C_16  and  C_17
REMARK    5  A    between atoms: C_17  and  C_18
REMARK    6  A    between atoms: C_18  and  C_19
REMARK    7  A    between atoms: C_19  and  C_20
REMARK    8  A    between atoms: C_20  and  C_21
REMARK    9  A    between atoms: C_21  and  C_22
REMARK   10  A    between atoms: C_22  and  C_23
REMARK   11  A    between atoms: C_23  and  O_24
REMARK                            x       y       z     vdW  Elec       q    Type
REMARK                         _______ _______ _______ _____ _____    ______ ____
ROOT
ATOM      1  C   UNL     1       6.872   6.871  17.070  0.00  0.00    +0.000 C 
ATOM      2  C   UNL     1       7.212   5.422  17.446  0.00  0.00    +0.000 C 
ATOM      3  C   UNL     1       6.945   5.117  18.924  0.00  0.00    +0.000 C 
ATOM      4  C   UNL     1       5.441   5.217  19.277  0.00  0.00    +0.000 C 
ATOM      5  C   UNL     1       4.499   4.377  18.380  0.00  0.00    +0.000 C 
ATOM      6  C   UNL     1       4.911   4.506  16.880  0.00  0.00    +0.000 C 
ATOM      7  C   UNL     1       6.418   4.414  16.620  0.00  0.00    +0.000 C 
ATOM      8  N   UNL     1       4.531   2.991  18.792  0.00  0.00    +0.000 N 
ATOM      9  C   UNL     1       3.648   2.124  18.253  0.00  0.00    +0.000 C 
ATOM     10  N   UNL     1       3.996   0.838  18.413  0.00  0.00    +0.000 N 
ATOM     11  N   UNL     1       2.553   2.455  17.649  0.00  0.00    +0.000 NA
ATOM     12  C   UNL     1       2.244   3.753  17.752  0.00  0.00    +0.000 C 
ATOM     13  N   UNL     1       1.164   4.166  17.182  0.00  0.00    +0.000 NA
ATOM     14  N   UNL     1       3.052   4.660  18.509  0.00  0.00    +0.000 N 
ATOM     15  H   UNL     1       5.420   2.639  19.129  0.00  0.00    +0.000 HD
ATOM     16  H   UNL     1       4.961   0.562  18.572  0.00  0.00    +0.000 HD
ATOM     17  H   UNL     1       3.452   0.169  17.889  0.00  0.00    +0.000 HD
ATOM     18  H   UNL     1       0.798   3.326  16.700  0.00  0.00    +0.000 HD
ENDROOT
BRANCH  14  19
ATOM     19  O   UNL     1       2.445   5.709  19.266  0.00  0.00    +0.000 OA
BRANCH  19  20
ATOM     20  C   UNL     1       2.721   6.981  18.614  0.00  0.00    +0.000 C 
BRANCH  20  21
ATOM     21  C   UNL     1       1.994   8.201  19.188  0.00  0.00    +0.000 C 
BRANCH  21  22
ATOM     22  C   UNL     1       1.441   9.036  18.043  0.00  0.00    +0.000 C 
BRANCH  22  23
ATOM     23  C   UNL     1       0.276   9.919  18.460  0.00  0.00    +0.000 C 
BRANCH  23  24
ATOM     24  C   UNL     1       0.026   9.814  19.965  0.00  0.00    +0.000 C 
BRANCH  24  25
ATOM     25  C   UNL     1      -0.745  11.037  20.447  0.00  0.00    +0.000 C 
BRANCH  25  26
ATOM     26  C   UNL     1      -0.250  11.536  21.797  0.00  0.00    +0.000 C 
BRANCH  26  27
ATOM     27  C   UNL     1      -0.914  10.763  22.929  0.00  0.00    +0.000 C 
BRANCH  27  28
ATOM     28  O   UNL     1       0.052   9.975  23.608  0.00  0.00    +0.000 OA
ATOM     29  H   UNL     1      -0.322   9.735  24.472  0.00  0.00    +0.000 HD
ENDBRANCH  27  28
ENDBRANCH  26  27
ENDBRANCH  25  26
ENDBRANCH  24  25
ENDBRANCH  23  24
ENDBRANCH  22  23
ENDBRANCH  21  22
ENDBRANCH  20  21
ENDBRANCH  19  20
ENDBRANCH  14  19
TORSDOF 10
ENDMDL
MODEL 3
REMARK VINA RESULT:      -7.0      2.326      2.876
REMARK  Name = 
REMARK  11 active torsions:
REMARK  status: ('A' for Active; 'I' for Inactive)
REMARK    1  A    between atoms: C_1  and  C_2
REMARK    2  A    between atoms: N_14  and  O_15
REMARK    3  A    between atoms: O_15  and  C_16
REMARK    4  A    between atoms: C_16  and  C_17
REMARK    5  A    between atoms: C_17  and  C_18
REMARK    6  A    between atoms: C_18  and  C_19
REMARK    7  A    between atoms: C_19  and  C_20
REMARK    8  A    between atoms: C_20  and  C_21
REMARK    9  A    between atoms: C_21  and  C_22
REMARK   10  A    between atoms: C_22  and  C_23
REMARK   11  A    between atoms: C_23  and  O_24
REMARK                            x       y       z     vdW  Elec       q    Type
REMARK                         _______ _______ _______ _____ _____    ______ ____
ROOT
ATOM      1  C   UNL     1       5.583   5.951  15.073  0.00  0.00    +0.000 C 
ATOM      2  C   UNL     1       6.404   4.920  15.860  0.00  0.00    +0.000 C 
ATOM      3  C   UNL     1       6.856   5.445  17.227  0.00  0.00    +0.000 C 
ATOM      4  C   UNL     1       5.661   5.722  18.171  0.00  0.00    +0.000 C 
ATOM      5  C   UNL     1       4.681   4.536  18.352  0.00  0.00    +0.000 C 
ATOM      6  C   UNL     1       4.390   3.850  16.980  0.00  0.00    +0.000 C 
ATOM      7  C   UNL     1       5.625   3.629  16.100  0.00  0.00    +0.000 C 
ATOM      8  N   UNL     1       5.231   3.579  19.286  0.00  0.00    +0.000 N 
ATOM      9  C   UNL     1       4.458   2.560  19.716  0.00  0.00    +0.000 C 
ATOM     10  N   UNL     1       5.155   1.553  20.264  0.00  0.00    +0.000 N 
ATOM     11  N   UNL     1       3.166   2.524  19.646  0.00  0.00    +0.000 NA
ATOM     12  C   UNL     1       2.608   3.680  19.269  0.00  0.00    +0.000 C 
ATOM     13  N   UNL     1       1.323   3.732  19.178  0.00  0.00    +0.000 NA
ATOM     14  N   UNL     1       3.397   4.848  19.017  0.00  0.00    +0.000 N 
ATOM     15  H   UNL     1       6.238   3.456  19.269  0.00  0.00    +0.000 HD
ATOM     16  H   UNL     1       6.136   1.401  20.043  0.00  0.00    +0.000 HD
ATOM     17  H   UNL     1       4.634   0.710  20.450  0.00  0.00    +0.000 HD
ATOM     18  H   UNL     1       1.018   2.766  19.388  0.00  0.00    +0.000 HD
ENDROOT
BRANCH  14  19
ATOM     19  O   UNL     1       2.910   6.141  19.385  0.00  0.00    +0.000 OA
BRANCH  19  20
ATOM     20  C   UNL     1       2.448   6.829  18.188  0.00  0.00    +0.000 C 
BRANCH  20  21
ATOM     21  C   UNL     1       2.644   8.348  18.169  0.00  0.00    +0.000 C 
BRANCH  21  22
ATOM     22  C   UNL     1       1.331   9.015  17.792  0.00  0.00    +0.000 C 
BRANCH  22  23
ATOM     23  C   UNL     1       0.688   9.759  18.951  0.00  0.00    +0.000 C 
BRANCH  23  24
ATOM     24  C   UNL     1      -0.379  10.732  18.447  0.00  0.00    +0.000 C 
BRANCH  24  25
ATOM     25  C   UNL     1      -1.480   9.963  17.726  0.00  0.00    +0.000 C 
BRANCH  25  26
ATOM     26  C   UNL     1      -2.286  10.853  16.789  0.00  0.00    +0.000 C 
BRANCH  26  27
ATOM     27  C   UNL     1      -3.097  10.007  15.816  0.00  0.00    +0.000 C 
BRANCH  27  28
ATOM     28  O   UNL     1      -2.664  10.251  14.486  0.00  0.00    +0.000 OA
ATOM     29  H   UNL     1      -3.286   9.804  13.889  0.00  0.00    +0.000 HD
ENDBRANCH  27  28
ENDBRANCH  26  27
ENDBRANCH  25  26
ENDBRANCH  24  25
ENDBRANCH  23  24
ENDBRANCH  22  23
ENDBRANCH  21  22
ENDBRANCH  20  21
ENDBRANCH  19  20
ENDBRANCH  14  19
TORSDOF 10
ENDMDL
MODEL 4
REMARK VINA RESULT:      -7.0      5.169      7.131
REMARK  Name = 
REMARK  11 active torsions:
REMARK  status: ('A' for Active; 'I' for Inactive)
REMARK    1  A    between atoms: C_1  and  C_2
REMARK    2  A    between atoms: N_14  and  O_15
REMARK    3  A    between atoms: O_15  and  C_16
REMARK    4  A    between atoms: C_16  and  C_17
REMARK    5  A    between atoms: C_17  and  C_18
REMARK    6  A    between atoms: C_18  and  C_19
REMARK    7  A    between atoms: C_19  and  C_20
REMARK    8  A    between atoms: C_20  and  C_21
REMARK    9  A    between atoms: C_21  and  C_22
REMARK   10  A    between atoms: C_22  and  C_23
REMARK   11  A    between atoms: C_23  and  O_24
REMARK                            x       y       z     vdW  Elec       q    Type
REMARK                         _______ _______ _______ _____ _____    ______ ____
ROOT
ATOM      1  C   UNL     1       2.348   4.932  19.887  0.00  0.00    +0.000 C 
ATOM      2  C   UNL     1       2.138   4.920  18.367  0.00  0.00    +0.000 C 
ATOM      3  C   UNL     1       2.521   6.249  17.707  0.00  0.00    +0.000 C 
ATOM      4  C   UNL     1       4.033   6.553  17.841  0.00  0.00    +0.000 C 
ATOM      5  C   UNL     1       4.974   5.424  17.352  0.00  0.00    +0.000 C 
ATOM      6  C   UNL     1       4.459   4.032  17.837  0.00  0.00    +0.000 C 
ATOM      7  C   UNL     1       2.949   3.821  17.685  0.00  0.00    +0.000 C 
ATOM      8  N   UNL     1       5.069   5.450  15.909  0.00  0.00    +0.000 N 
ATOM      9  C   UNL     1       5.976   4.661  15.295  0.00  0.00    +0.000 C 
ATOM     10  N   UNL     1       5.733   4.485  13.987  0.00  0.00    +0.000 N 
ATOM     11  N   UNL     1       7.004   4.123  15.867  0.00  0.00    +0.000 NA
ATOM     12  C   UNL     1       7.224   4.557  17.114  0.00  0.00    +0.000 C 
ATOM     13  N   UNL     1       8.233   4.074  17.755  0.00  0.00    +0.000 NA
ATOM     14  N   UNL     1       6.402   5.563  17.715  0.00  0.00    +0.000 N 
ATOM     15  H   UNL     1       4.231   5.717  15.405  0.00  0.00    +0.000 HD
ATOM     16  H   UNL     1       4.802   4.605  13.596  0.00  0.00    +0.000 HD
ATOM     17  H   UNL     1       6.290   3.779  13.530  0.00  0.00    +0.000 HD
ATOM     18  H   UNL     1       8.627   3.370  17.107  0.00  0.00    +0.000 HD
ENDROOT
BRANCH  14  19
ATOM     19  O   UNL     1       6.979   6.547  18.576  0.00  0.00    +0.000 OA
BRANCH  19  20
ATOM     20  C   UNL     1       7.918   7.353  17.810  0.00  0.00    +0.000 C 
BRANCH  20  21
ATOM     21  C   UNL     1       7.673   8.865  17.823  0.00  0.00    +0.000 C 
BRANCH  21  22
ATOM     22  C   UNL     1       8.818   9.549  18.553  0.00  0.00    +0.000 C 
BRANCH  22  23
ATOM     23  C   UNL     1       9.142  10.925  17.995  0.00  0.00    +0.000 C 
BRANCH  23  24
ATOM     24  C   UNL     1      10.290  11.570  18.772  0.00  0.00    +0.000 C 
BRANCH  24  25
ATOM     25  C   UNL     1      11.479  11.794  17.845  0.00  0.00    +0.000 C 
BRANCH  25  26
ATOM     26  C   UNL     1      11.344  13.074  17.032  0.00  0.00    +0.000 C 
BRANCH  26  27
ATOM     27  C   UNL     1      11.114  14.268  17.949  0.00  0.00    +0.000 C 
BRANCH  27  28
ATOM     28  O   UNL     1      12.332  14.972  18.140  0.00  0.00    +0.000 OA
ATOM     29  H   UNL     1      12.444  15.110  19.095  0.00  0.00    +0.000 HD
ENDBRANCH  27  28
ENDBRANCH  26  27
ENDBRANCH  25  26
ENDBRANCH  24  25
ENDBRANCH  23  24
ENDBRANCH  22  23
ENDBRANCH  21  22
ENDBRANCH  20  21
ENDBRANCH  19  20
ENDBRANCH  14  19
TORSDOF 10
ENDMDL
MODEL 5
REMARK VINA RESULT:      -7.0      3.658      5.228
REMARK  Name = 
REMARK  11 active torsions:
REMARK  status: ('A' for Active; 'I' for Inactive)
REMARK    1  A    between atoms: C_1  and  C_2
REMARK    2  A    between atoms: N_14  and  O_15
REMARK    3  A    between atoms: O_15  and  C_16
REMARK    4  A    between atoms: C_16  and  C_17
REMARK    5  A    between atoms: C_17  and  C_18
REMARK    6  A    between atoms: C_18  and  C_19
REMARK    7  A    between atoms: C_19  and  C_20
REMARK    8  A    between atoms: C_20  and  C_21
REMARK    9  A    between atoms: C_21  and  C_22
REMARK   10  A    between atoms: C_22  and  C_23
REMARK   11  A    between atoms: C_23  and  O_24
REMARK                            x       y       z     vdW  Elec       q    Type
REMARK                         _______ _______ _______ _____ _____    ______ ____
ROOT
ATOM      1  C   UNL     1       5.672   3.337  14.672  0.00  0.00    +0.000 C 
ATOM      2  C   UNL     1       6.092   4.780  14.361  0.00  0.00    +0.000 C 
ATOM      3  C   UNL     1       5.080   5.813  14.868  0.00  0.00    +0.000 C 
ATOM      4  C   UNL     1       4.971   5.814  16.412  0.00  0.00    +0.000 C 
ATOM      5  C   UNL     1       6.316   5.972  17.164  0.00  0.00    +0.000 C 
ATOM      6  C   UNL     1       7.419   5.085  16.506  0.00  0.00    +0.000 C 
ATOM      7  C   UNL     1       7.446   5.128  14.975  0.00  0.00    +0.000 C 
ATOM      8  N   UNL     1       6.721   7.360  17.165  0.00  0.00    +0.000 N 
ATOM      9  C   UNL     1       7.775   7.738  17.918  0.00  0.00    +0.000 C 
ATOM     10  N   UNL     1       8.284   8.929  17.568  0.00  0.00    +0.000 N 
ATOM     11  N   UNL     1       8.267   7.059  18.903  0.00  0.00    +0.000 NA
ATOM     12  C   UNL     1       7.529   6.002  19.261  0.00  0.00    +0.000 C 
ATOM     13  N   UNL     1       7.946   5.274  20.239  0.00  0.00    +0.000 NA
ATOM     14  N   UNL     1       6.284   5.704  18.619  0.00  0.00    +0.000 N 
ATOM     15  H   UNL     1       6.493   7.899  16.337  0.00  0.00    +0.000 HD
ATOM     16  H   UNL     1       8.149   9.313  16.636  0.00  0.00    +0.000 HD
ATOM     17  H   UNL     1       9.165   9.171  17.996  0.00  0.00    +0.000 HD
ATOM     18  H   UNL     1       8.856   5.695  20.495  0.00  0.00    +0.000 HD
ENDROOT
BRANCH  14  19
ATOM     19  O   UNL     1       5.188   5.186  19.376  0.00  0.00    +0.000 OA
BRANCH  19  20
ATOM     20  C   UNL     1       5.132   3.743  19.198  0.00  0.00    +0.000 C 
BRANCH  20  21
ATOM     21  C   UNL     1       4.149   3.234  18.139  0.00  0.00    +0.000 C 
BRANCH  21  22
ATOM     22  C   UNL     1       3.666   1.847  18.533  0.00  0.00    +0.000 C 
BRANCH  22  23
ATOM     23  C   UNL     1       2.151   1.743  18.605  0.00  0.00    +0.000 C 
BRANCH  23  24
ATOM     24  C   UNL     1       1.508   3.128  18.529  0.00  0.00    +0.000 C 
BRANCH  24  25
ATOM     25  C   UNL     1       0.649   3.366  19.766  0.00  0.00    +0.000 C 
BRANCH  25  26
ATOM     26  C   UNL     1       1.129   4.559  20.580  0.00  0.00    +0.000 C 
BRANCH  26  27
ATOM     27  C   UNL     1       2.429   4.226  21.301  0.00  0.00    +0.000 C 
BRANCH  27  28
ATOM     28  O   UNL     1       2.190   3.248  22.301  0.00  0.00    +0.000 OA
ATOM     29  H   UNL     1       1.254   2.993  22.244  0.00  0.00    +0.000 HD
ENDBRANCH  27  28
ENDBRANCH  26  27
ENDBRANCH  25  26
ENDBRANCH  24  25
ENDBRANCH  23  24
ENDBRANCH  22  23
ENDBRANCH  21  22
ENDBRANCH  20  21
ENDBRANCH  19  20
ENDBRANCH  14  19
TORSDOF 10
ENDMDL
MODEL 6
REMARK VINA RESULT:      -6.9      1.226      1.381
REMARK  Name = 
REMARK  11 active torsions:
REMARK  status: ('A' for Active; 'I' for Inactive)
REMARK    1  A    between atoms: C_1  and  C_2
REMARK    2  A    between atoms: N_14  and  O_15
REMARK    3  A    between atoms: O_15  and  C_16
REMARK    4  A    between atoms: C_16  and  C_17
REMARK    5  A    between atoms: C_17  and  C_18
REMARK    6  A    between atoms: C_18  and  C_19
REMARK    7  A    between atoms: C_19  and  C_20
REMARK    8  A    between atoms: C_20  and  C_21
REMARK    9  A    between atoms: C_21  and  C_22
REMARK   10  A    between atoms: C_22  and  C_23
REMARK   11  A    between atoms: C_23  and  O_24
REMARK                            x       y       z     vdW  Elec       q    Type
REMARK                         _______ _______ _______ _____ _____    ______ ____
ROOT
ATOM      1  C   UNL     1       5.175   7.013  16.725  0.00  0.00    +0.000 C 
ATOM      2  C   UNL     1       5.881   5.651  16.727  0.00  0.00    +0.000 C 
ATOM      3  C   UNL     1       6.440   5.277  18.104  0.00  0.00    +0.000 C 
ATOM      4  C   UNL     1       5.320   5.082  19.155  0.00  0.00    +0.000 C 
ATOM      5  C   UNL     1       4.202   4.091  18.745  0.00  0.00    +0.000 C 
ATOM      6  C   UNL     1       3.783   4.321  17.260  0.00  0.00    +0.000 C 
ATOM      7  C   UNL     1       4.951   4.522  16.289  0.00  0.00    +0.000 C 
ATOM      8  N   UNL     1       4.653   2.731  18.936  0.00  0.00    +0.000 N 
ATOM      9  C   UNL     1       3.769   1.720  18.805  0.00  0.00    +0.000 C 
ATOM     10  N   UNL     1       4.348   0.522  18.634  0.00  0.00    +0.000 N 
ATOM     11  N   UNL     1       2.483   1.845  18.852  0.00  0.00    +0.000 NA
ATOM     12  C   UNL     1       2.066   3.058  19.233  0.00  0.00    +0.000 C 
ATOM     13  N   UNL     1       0.796   3.265  19.312  0.00  0.00    +0.000 NA
ATOM     14  N   UNL     1       2.990   4.090  19.594  0.00  0.00    +0.000 N 
ATOM     15  H   UNL     1       5.635   2.550  18.756  0.00  0.00    +0.000 HD
ATOM     16  H   UNL     1       5.294   0.433  18.271  0.00  0.00    +0.000 HD
ATOM     17  H   UNL     1       3.729  -0.231  18.373  0.00  0.00    +0.000 HD
ATOM     18  H   UNL     1       0.376   2.379  18.982  0.00  0.00    +0.000 HD
ENDROOT
BRANCH  14  19
ATOM     19  O   UNL     1       2.684   4.992  20.660  0.00  0.00    +0.000 OA
BRANCH  19  20
ATOM     20  C   UNL     1       1.896   6.096  20.133  0.00  0.00    +0.000 C 
BRANCH  20  21
ATOM     21  C   UNL     1       2.689   7.256  19.523  0.00  0.00    +0.000 C 
BRANCH  21  22
ATOM     22  C   UNL     1       1.936   7.793  18.316  0.00  0.00    +0.000 C 
BRANCH  22  23
ATOM     23  C   UNL     1       1.853   9.311  18.294  0.00  0.00    +0.000 C 
BRANCH  23  24
ATOM     24  C   UNL     1       0.402   9.773  18.155  0.00  0.00    +0.000 C 
BRANCH  24  25
ATOM     25  C   UNL     1      -0.222   9.934  19.537  0.00  0.00    +0.000 C 
BRANCH  25  26
ATOM     26  C   UNL     1       0.806  10.311  20.594  0.00  0.00    +0.000 C 
BRANCH  26  27
ATOM     27  C   UNL     1       0.660   9.423  21.823  0.00  0.00    +0.000 C 
BRANCH  27  28
ATOM     28  O   UNL     1       1.926   9.232  22.434  0.00  0.00    +0.000 OA
ATOM     29  H   UNL     1       2.045   8.277  22.569  0.00  0.00    +0.000 HD
ENDBRANCH  27  28
ENDBRANCH  26  27
ENDBRANCH  25  26
ENDBRANCH  24  25
ENDBRANCH  23  24
ENDBRANCH  22  23
ENDBRANCH  21  22
ENDBRANCH  20  21
ENDBRANCH  19  20
ENDBRANCH  14  19
TORSDOF 10
ENDMDL
MODEL 7
REMARK VINA RESULT:      -6.9      2.186      2.604
REMARK  Name = 
REMARK  11 active torsions:
REMARK  status: ('A' for Active; 'I' for Inactive)
REMARK    1  A    between atoms: C_1  and  C_2
REMARK    2  A    between atoms: N_14  and  O_15
REMARK    3  A    between atoms: O_15  and  C_16
REMARK    4  A    between atoms: C_16  and  C_17
REMARK    5  A    between atoms: C_17  and  C_18
REMARK    6  A    between atoms: C_18  and  C_19
REMARK    7  A    between atoms: C_19  and  C_20
REMARK    8  A    between atoms: C_20  and  C_21
REMARK    9  A    between atoms: C_21  and  C_22
REMARK   10  A    between atoms: C_22  and  C_23
REMARK   11  A    between atoms: C_23  and  O_24
REMARK                            x       y       z     vdW  Elec       q    Type
REMARK                         _______ _______ _______ _____ _____    ______ ____
ROOT
ATOM      1  C   UNL     1       6.719   6.770  16.686  0.00  0.00    +0.000 C 
ATOM      2  C   UNL     1       7.116   5.333  17.050  0.00  0.00    +0.000 C 
ATOM      3  C   UNL     1       7.004   5.051  18.552  0.00  0.00    +0.000 C 
ATOM      4  C   UNL     1       5.544   5.140  19.056  0.00  0.00    +0.000 C 
ATOM      5  C   UNL     1       4.527   4.272  18.274  0.00  0.00    +0.000 C 
ATOM      6  C   UNL     1       4.781   4.379  16.738  0.00  0.00    +0.000 C 
ATOM      7  C   UNL     1       6.256   4.300  16.327  0.00  0.00    +0.000 C 
ATOM      8  N   UNL     1       4.620   2.895  18.704  0.00  0.00    +0.000 N 
ATOM      9  C   UNL     1       3.699   2.007  18.273  0.00  0.00    +0.000 C 
ATOM     10  N   UNL     1       4.079   0.729  18.419  0.00  0.00    +0.000 N 
ATOM     11  N   UNL     1       2.543   2.314  17.779  0.00  0.00    +0.000 NA
ATOM     12  C   UNL     1       2.228   3.609  17.891  0.00  0.00    +0.000 C 
ATOM     13  N   UNL     1       1.090   3.998  17.428  0.00  0.00    +0.000 NA
ATOM     14  N   UNL     1       3.097   4.539  18.546  0.00  0.00    +0.000 N 
ATOM     15  H   UNL     1       5.543   2.560  18.955  0.00  0.00    +0.000 HD
ATOM     16  H   UNL     1       5.060   0.467  18.484  0.00  0.00    +0.000 HD
ATOM     17  H   UNL     1       3.494   0.043  17.965  0.00  0.00    +0.000 HD
ATOM     18  H   UNL     1       0.689   3.146  17.000  0.00  0.00    +0.000 HD
ENDROOT
BRANCH  14  19
ATOM     19  O   UNL     1       2.555   5.595  19.343  0.00  0.00    +0.000 OA
BRANCH  19  20
ATOM     20  C   UNL     1       1.997   6.612  18.463  0.00  0.00    +0.000 C 
BRANCH  20  21
ATOM     21  C   UNL     1       2.988   7.646  17.919  0.00  0.00    +0.000 C 
BRANCH  21  22
ATOM     22  C   UNL     1       2.326   9.015  17.915  0.00  0.00    +0.000 C 
BRANCH  22  23
ATOM     23  C   UNL     1       1.288   9.177  19.013  0.00  0.00    +0.000 C 
BRANCH  23  24
ATOM     24  C   UNL     1       0.246  10.227  18.626  0.00  0.00    +0.000 C 
BRANCH  24  25
ATOM     25  C   UNL     1      -0.694   9.656  17.571  0.00  0.00    +0.000 C 
BRANCH  25  26
ATOM     26  C   UNL     1      -2.151  10.000  17.849  0.00  0.00    +0.000 C 
BRANCH  26  27
ATOM     27  C   UNL     1      -2.613  11.137  16.948  0.00  0.00    +0.000 C 
BRANCH  27  28
ATOM     28  O   UNL     1      -3.040  12.237  17.737  0.00  0.00    +0.000 OA
ATOM     29  H   UNL     1      -3.591  11.885  18.456  0.00  0.00    +0.000 HD
ENDBRANCH  27  28
ENDBRANCH  26  27
ENDBRANCH  25  26
ENDBRANCH  24  25
ENDBRANCH  23  24
ENDBRANCH  22  23
ENDBRANCH  21  22
ENDBRANCH  20  21
ENDBRANCH  19  20
ENDBRANCH  14  19
TORSDOF 10
ENDMDL
MODEL 8
REMARK VINA RESULT:      -6.9      1.775      2.355
REMARK  Name = 
REMARK  11 active torsions:
REMARK  status: ('A' for Active; 'I' for Inactive)
REMARK    1  A    between atoms: C_1  and  C_2
REMARK    2  A    between atoms: N_14  and  O_15
REMARK    3  A    between atoms: O_15  and  C_16
REMARK    4  A    between atoms: C_16  and  C_17
REMARK    5  A    between atoms: C_17  and  C_18
REMARK    6  A    between atoms: C_18  and  C_19
REMARK    7  A    between atoms: C_19  and  C_20
REMARK    8  A    between atoms: C_20  and  C_21
REMARK    9  A    between atoms: C_21  and  C_22
REMARK   10  A    between atoms: C_22  and  C_23
REMARK   11  A    between atoms: C_23  and  O_24
REMARK                            x       y       z     vdW  Elec       q    Type
REMARK                         _______ _______ _______ _____ _____    ______ ____
ROOT
ATOM      1  C   UNL     1       6.714   6.983  17.093  0.00  0.00    +0.000 C 
ATOM      2  C   UNL     1       7.131   5.541  17.409  0.00  0.00    +0.000 C 
ATOM      3  C   UNL     1       6.940   5.181  18.887  0.00  0.00    +0.000 C 
ATOM      4  C   UNL     1       5.451   5.206  19.306  0.00  0.00    +0.000 C 
ATOM      5  C   UNL     1       4.508   4.351  18.423  0.00  0.00    +0.000 C 
ATOM      6  C   UNL     1       4.849   4.542  16.912  0.00  0.00    +0.000 C 
ATOM      7  C   UNL     1       6.346   4.523  16.586  0.00  0.00    +0.000 C 
ATOM      8  N   UNL     1       4.616   2.957  18.790  0.00  0.00    +0.000 N 
ATOM      9  C   UNL     1       3.749   2.068  18.262  0.00  0.00    +0.000 C 
ATOM     10  N   UNL     1       4.157   0.794  18.368  0.00  0.00    +0.000 N 
ATOM     11  N   UNL     1       2.615   2.368  17.715  0.00  0.00    +0.000 NA
ATOM     12  C   UNL     1       2.256   3.647  17.870  0.00  0.00    +0.000 C 
ATOM     13  N   UNL     1       1.136   4.029  17.359  0.00  0.00    +0.000 NA
ATOM     14  N   UNL     1       3.057   4.566  18.621  0.00  0.00    +0.000 N 
ATOM     15  H   UNL     1       5.533   2.634  19.079  0.00  0.00    +0.000 HD
ATOM     16  H   UNL     1       5.139   0.556  18.478  0.00  0.00    +0.000 HD
ATOM     17  H   UNL     1       3.620   0.117  17.847  0.00  0.00    +0.000 HD
ATOM     18  H   UNL     1       0.785   3.189  16.868  0.00  0.00    +0.000 HD
ENDROOT
BRANCH  14  19
ATOM     19  O   UNL     1       2.438   5.566  19.434  0.00  0.00    +0.000 OA
BRANCH  19  20
ATOM     20  C   UNL     1       2.354   6.806  18.676  0.00  0.00    +0.000 C 
BRANCH  20  21
ATOM     21  C   UNL     1       2.091   8.075  19.492  0.00  0.00    +0.000 C 
BRANCH  21  22
ATOM     22  C   UNL     1       1.395   7.697  20.790  0.00  0.00    +0.000 C 
BRANCH  22  23
ATOM     23  C   UNL     1       1.240   8.870  21.745  0.00  0.00    +0.000 C 
BRANCH  23  24
ATOM     24  C   UNL     1      -0.222   9.307  21.836  0.00  0.00    +0.000 C 
BRANCH  24  25
ATOM     25  C   UNL     1      -0.411  10.634  21.109  0.00  0.00    +0.000 C 
BRANCH  25  26
ATOM     26  C   UNL     1      -0.827  10.442  19.658  0.00  0.00    +0.000 C 
BRANCH  26  27
ATOM     27  C   UNL     1      -0.145  11.472  18.766  0.00  0.00    +0.000 C 
BRANCH  27  28
ATOM     28  O   UNL     1       0.819  10.834  17.941  0.00  0.00    +0.000 OA
ATOM     29  H   UNL     1       1.698  11.089  18.268  0.00  0.00    +0.000 HD
ENDBRANCH  27  28
ENDBRANCH  26  27
ENDBRANCH  25  26
ENDBRANCH  24  25
ENDBRANCH  23  24
ENDBRANCH  22  23
ENDBRANCH  21  22
ENDBRANCH  20  21
ENDBRANCH  19  20
ENDBRANCH  14  19
TORSDOF 10
ENDMDL
MODEL 9
REMARK VINA RESULT:      -6.8      1.879      2.316
REMARK  Name = 
REMARK  11 active torsions:
REMARK  status: ('A' for Active; 'I' for Inactive)
REMARK    1  A    between atoms: C_1  and  C_2
REMARK    2  A    between atoms: N_14  and  O_15
REMARK    3  A    between atoms: O_15  and  C_16
REMARK    4  A    between atoms: C_16  and  C_17
REMARK    5  A    between atoms: C_17  and  C_18
REMARK    6  A    between atoms: C_18  and  C_19
REMARK    7  A    between atoms: C_19  and  C_20
REMARK    8  A    between atoms: C_20  and  C_21
REMARK    9  A    between atoms: C_21  and  C_22
REMARK   10  A    between atoms: C_22  and  C_23
REMARK   11  A    between atoms: C_23  and  O_24
REMARK                            x       y       z     vdW  Elec       q    Type
REMARK                         _______ _______ _______ _____ _____    ______ ____
ROOT
ATOM      1  C   UNL     1       5.679   5.745  14.906  0.00  0.00    +0.000 C 
ATOM      2  C   UNL     1       6.458   4.694  15.709  0.00  0.00    +0.000 C 
ATOM      3  C   UNL     1       6.986   5.240  17.040  0.00  0.00    +0.000 C 
ATOM      4  C   UNL     1       5.842   5.629  18.007  0.00  0.00    +0.000 C 
ATOM      5  C   UNL     1       4.795   4.517  18.264  0.00  0.00    +0.000 C 
ATOM      6  C   UNL     1       4.417   3.800  16.930  0.00  0.00    +0.000 C 
ATOM      7  C   UNL     1       5.607   3.467  16.024  0.00  0.00    +0.000 C 
ATOM      8  N   UNL     1       5.312   3.563  19.219  0.00  0.00    +0.000 N 
ATOM      9  C   UNL     1       4.490   2.614  19.713  0.00  0.00    +0.000 C 
ATOM     10  N   UNL     1       5.139   1.586  20.280  0.00  0.00    +0.000 N 
ATOM     11  N   UNL     1       3.197   2.659  19.681  0.00  0.00    +0.000 NA
ATOM     12  C   UNL     1       2.702   3.834  19.275  0.00  0.00    +0.000 C 
ATOM     13  N   UNL     1       1.421   3.965  19.220  0.00  0.00    +0.000 NA
ATOM     14  N   UNL     1       3.555   4.938  18.954  0.00  0.00    +0.000 N 
ATOM     15  H   UNL     1       6.308   3.375  19.177  0.00  0.00    +0.000 HD
ATOM     16  H   UNL     1       6.100   1.362  20.036  0.00  0.00    +0.000 HD
ATOM     17  H   UNL     1       4.571   0.786  20.515  0.00  0.00    +0.000 HD
ATOM     18  H   UNL     1       1.062   3.029  19.478  0.00  0.00    +0.000 HD
ENDROOT
BRANCH  14  19
ATOM     19  O   UNL     1       3.163   6.272  19.284  0.00  0.00    +0.000 OA
BRANCH  19  20
ATOM     20  C   UNL     1       2.516   6.873  18.127  0.00  0.00    +0.000 C 
BRANCH  20  21
ATOM     21  C   UNL     1       2.732   8.379  17.944  0.00  0.00    +0.000 C 
BRANCH  21  22
ATOM     22  C   UNL     1       1.381   9.078  17.928  0.00  0.00    +0.000 C 
BRANCH  22  23
ATOM     23  C   UNL     1       1.143   9.939  19.158  0.00  0.00    +0.000 C 
BRANCH  23  24
ATOM     24  C   UNL     1       1.220  11.424  18.803  0.00  0.00    +0.000 C 
BRANCH  24  25
ATOM     25  C   UNL     1       0.242  12.212  19.668  0.00  0.00    +0.000 C 
BRANCH  25  26
ATOM     26  C   UNL     1      -0.784  12.969  18.836  0.00  0.00    +0.000 C 
BRANCH  26  27
ATOM     27  C   UNL     1      -1.775  12.002  18.202  0.00  0.00    +0.000 C 
BRANCH  27  28
ATOM     28  O   UNL     1      -1.749  12.140  16.789  0.00  0.00    +0.000 OA
ATOM     29  H   UNL     1      -1.044  11.561  16.452  0.00  0.00    +0.000 HD
ENDBRANCH  27  28
ENDBRANCH  26  27
ENDBRANCH  25  26
ENDBRANCH  24  25
ENDBRANCH  23  24
ENDBRANCH  22  23
ENDBRANCH  21  22
ENDBRANCH  20  21
ENDBRANCH  19  20
ENDBRANCH  14  19
TORSDOF 10
ENDMDL
