MODEL 1
REMARK VINA RESULT:      -7.6      0.000      0.000
REMARK  Name = 
REMARK  7 active torsions:
REMARK  status: ('A' for Active; 'I' for Inactive)
REMARK    1  A    between atoms: C_1  and  C_2
REMARK    2  A    between atoms: C_2  and  C_3
REMARK    3  A    between atoms: C_2  and  C_4
REMARK    4  A    between atoms: C_2  and  C_5
REMARK    5  A    between atoms: N_11  and  C_12
REMARK    6  A    between atoms: C_15  and  N_16
REMARK    7  A    between atoms: C_17  and  C_19
REMARK                            x       y       z     vdW  Elec       q    Type
REMARK                         _______ _______ _______ _____ _____    ______ ____
ROOT
ATOM      1  C   UNL     1       0.572   9.826  19.973  0.00  0.00    +0.000 A 
ATOM      2  C   UNL     1      -0.525  10.287  19.255  0.00  0.00    +0.000 A 
ATOM      3  C   UNL     1      -1.376  11.239  19.822  0.00  0.00    +0.000 A 
ATOM      4  C   UNL     1      -1.114  11.774  21.086  0.00  0.00    +0.000 A 
ATOM      5  C   UNL     1       0.017  11.341  21.783  0.00  0.00    +0.000 A 
ATOM      6  C   UNL     1       0.831  10.335  21.246  0.00  0.00    +0.000 A 
ENDROOT
BRANCH   1  13
ATOM      7  C   UNL     1       2.813   4.277  18.985  0.00  0.00    +0.000 A 
ATOM      8  C   UNL     1       3.232   5.248  18.109  0.00  0.00    +0.000 A 
ATOM      9  C   UNL     1       2.610   6.431  18.557  0.00  0.00    +0.000 A 
ATOM     10  N   UNL     1       2.687   7.656  17.930  0.00  0.00    +0.000 N 
ATOM     11  C   UNL     1       2.012   8.800  18.262  0.00  0.00    +0.000 C 
ATOM     12  O   UNL     1       2.041   9.746  17.476  0.00  0.00    +0.000 OA
ATOM     13  N   UNL     1       1.395   8.810  19.483  0.00  0.00    +0.000 N 
ATOM     14  N   UNL     1       1.917   6.198  19.679  0.00  0.00    +0.000 NA
ATOM     15  O   UNL     1       2.025   4.854  19.932  0.00  0.00    +0.000 OA
ATOM     16  H   UNL     1       3.190   7.713  17.059  0.00  0.00    +0.000 HD
ATOM     17  H   UNL     1       1.743   8.127  20.147  0.00  0.00    +0.000 HD
BRANCH   7  19
ATOM     18  C   UNL     1       1.725   2.117  19.550  0.00  0.00    +0.000 C 
ATOM     19  C   UNL     1       3.033   2.791  19.103  0.00  0.00    +0.000 C 
ATOM     20  C   UNL     1       4.137   2.517  20.140  0.00  0.00    +0.000 C 
ATOM     21  C   UNL     1       3.466   2.176  17.756  0.00  0.00    +0.000 C 
ENDBRANCH   7  19
ENDBRANCH   1  13
BRANCH   4  22
ATOM     22  N   UNL     1      -1.951  12.732  21.699  0.00  0.00    +0.000 N 
ATOM     23  C   UNL     1      -2.717  12.531  22.832  0.00  0.00    +0.000 C 
ATOM     24  O   UNL     1      -2.795  11.496  23.493  0.00  0.00    +0.000 OA
ATOM     25  H   UNL     1      -1.919  13.689  21.361  0.00  0.00    +0.000 HD
BRANCH  23  26
ATOM     26  C   UNL     1      -3.481  13.730  23.286  0.00  0.00    +0.000 A 
ATOM     27  C   UNL     1      -3.003  14.456  24.376  0.00  0.00    +0.000 A 
ATOM     28  C   UNL     1      -3.709  15.573  24.782  0.00  0.00    +0.000 A 
ATOM     29  C   UNL     1      -4.867  15.934  24.099  0.00  0.00    +0.000 A 
ATOM     30  C   UNL     1      -5.271  15.152  23.025  0.00  0.00    +0.000 A 
ATOM     31  N   UNL     1      -4.607  14.057  22.591  0.00  0.00    +0.000 NA
ENDBRANCH  23  26
ENDBRANCH   4  22
TORSDOF 4
ENDMDL
MODEL 2
REMARK VINA RESULT:      -7.6      3.763     10.888
REMARK  Name = 
REMARK  7 active torsions:
REMARK  status: ('A' for Active; 'I' for Inactive)
REMARK    1  A    between atoms: C_1  and  C_2
REMARK    2  A    between atoms: C_2  and  C_3
REMARK    3  A    between atoms: C_2  and  C_4
REMARK    4  A    between atoms: C_2  and  C_5
REMARK    5  A    between atoms: N_11  and  C_12
REMARK    6  A    between atoms: C_15  and  N_16
REMARK    7  A    between atoms: C_17  and  C_19
REMARK                            x       y       z     vdW  Elec       q    Type
REMARK                         _______ _______ _______ _____ _____    ______ ____
ROOT
ATOM      1  C   UNL     1       1.043  10.237  19.231  0.00  0.00    +0.000 A 
ATOM      2  C   UNL     1       1.080   9.421  20.356  0.00  0.00    +0.000 A 
ATOM      3  C   UNL     1       1.517   8.099  20.241  0.00  0.00    +0.000 A 
ATOM      4  C   UNL     1       1.965   7.594  19.017  0.00  0.00    +0.000 A 
ATOM      5  C   UNL     1       1.970   8.434  17.899  0.00  0.00    +0.000 A 
ATOM      6  C   UNL     1       1.466   9.737  17.998  0.00  0.00    +0.000 A 
ENDROOT
BRANCH   1  13
ATOM      7  C   UNL     1       0.639  16.245  18.507  0.00  0.00    +0.000 A 
ATOM      8  C   UNL     1      -0.543  15.602  18.781  0.00  0.00    +0.000 A 
ATOM      9  C   UNL     1      -0.189  14.246  18.934  0.00  0.00    +0.000 A 
ATOM     10  N   UNL     1      -1.075  13.213  19.147  0.00  0.00    +0.000 N 
ATOM     11  C   UNL     1      -0.793  11.874  19.187  0.00  0.00    +0.000 C 
ATOM     12  O   UNL     1      -1.730  11.077  19.184  0.00  0.00    +0.000 OA
ATOM     13  N   UNL     1       0.529  11.534  19.281  0.00  0.00    +0.000 N 
ATOM     14  N   UNL     1       1.138  14.095  18.830  0.00  0.00    +0.000 NA
ATOM     15  O   UNL     1       1.650  15.335  18.542  0.00  0.00    +0.000 OA
ATOM     16  H   UNL     1      -2.060  13.426  19.155  0.00  0.00    +0.000 HD
ATOM     17  H   UNL     1       1.140  12.268  19.623  0.00  0.00    +0.000 HD
BRANCH   7  19
ATOM     18  C   UNL     1       2.142  17.671  17.137  0.00  0.00    +0.000 C 
ATOM     19  C   UNL     1       1.022  17.668  18.192  0.00  0.00    +0.000 C 
ATOM     20  C   UNL     1       1.517  18.361  19.474  0.00  0.00    +0.000 C 
ATOM     21  C   UNL     1      -0.176  18.466  17.638  0.00  0.00    +0.000 C 
ENDBRANCH   7  19
ENDBRANCH   1  13
BRANCH   4  22
ATOM     22  N   UNL     1       2.408   6.263  18.855  0.00  0.00    +0.000 N 
ATOM     23  C   UNL     1       2.098   5.201  19.684  0.00  0.00    +0.000 C 
ATOM     24  O   UNL     1       1.389   5.234  20.689  0.00  0.00    +0.000 OA
ATOM     25  H   UNL     1       2.908   6.020  18.006  0.00  0.00    +0.000 HD
BRANCH  23  26
ATOM     26  C   UNL     1       2.674   3.892  19.256  0.00  0.00    +0.000 A 
ATOM     27  C   UNL     1       2.220   3.316  18.071  0.00  0.00    +0.000 A 
ATOM     28  C   UNL     1       2.767   2.110  17.674  0.00  0.00    +0.000 A 
ATOM     29  C   UNL     1       3.744   1.511  18.465  0.00  0.00    +0.000 A 
ATOM     30  C   UNL     1       4.135   2.155  19.632  0.00  0.00    +0.000 A 
ATOM     31  N   UNL     1       3.632   3.337  20.052  0.00  0.00    +0.000 NA
ENDBRANCH  23  26
ENDBRANCH   4  22
TORSDOF 4
ENDMDL
MODEL 3
REMARK VINA RESULT:      -7.6      0.958      1.445
REMARK  Name = 
REMARK  7 active torsions:
REMARK  status: ('A' for Active; 'I' for Inactive)
REMARK    1  A    between atoms: C_1  and  C_2
REMARK    2  A    between atoms: C_2  and  C_3
REMARK    3  A    between atoms: C_2  and  C_4
REMARK    4  A    between atoms: C_2  and  C_5
REMARK    5  A    between atoms: N_11  and  C_12
REMARK    6  A    between atoms: C_15  and  N_16
REMARK    7  A    between atoms: C_17  and  C_19
REMARK                            x       y       z     vdW  Elec       q    Type
REMARK                         _______ _______ _______ _____ _____    ______ ____
ROOT
ATOM      1  C   UNL     1       0.433  10.029  19.940  0.00  0.00    +0.000 A 
ATOM      2  C   UNL     1      -0.691  10.333  19.181  0.00  0.00    +0.000 A 
ATOM      3  C   UNL     1      -1.547  11.359  19.588  0.00  0.00    +0.000 A 
ATOM      4  C   UNL     1      -1.264  12.122  20.725  0.00  0.00    +0.000 A 
ATOM      5  C   UNL     1      -0.106  11.842  21.457  0.00  0.00    +0.000 A 
ATOM      6  C   UNL     1       0.714  10.768  21.090  0.00  0.00    +0.000 A 
ENDROOT
BRANCH   1  13
ATOM      7  C   UNL     1       2.659   4.388  19.787  0.00  0.00    +0.000 A 
ATOM      8  C   UNL     1       3.118   5.232  18.804  0.00  0.00    +0.000 A 
ATOM      9  C   UNL     1       2.491   6.467  19.068  0.00  0.00    +0.000 A 
ATOM     10  N   UNL     1       2.601   7.596  18.286  0.00  0.00    +0.000 N 
ATOM     11  C   UNL     1       1.925   8.777  18.436  0.00  0.00    +0.000 C 
ATOM     12  O   UNL     1       1.991   9.609  17.532  0.00  0.00    +0.000 OA
ATOM     13  N   UNL     1       1.265   8.953  19.621  0.00  0.00    +0.000 N 
ATOM     14  N   UNL     1       1.755   6.389  20.184  0.00  0.00    +0.000 NA
ATOM     15  O   UNL     1       1.842   5.091  20.619  0.00  0.00    +0.000 OA
ATOM     16  H   UNL     1       3.136   7.534  17.434  0.00  0.00    +0.000 HD
ATOM     17  H   UNL     1       1.582   8.363  20.383  0.00  0.00    +0.000 HD
BRANCH   7  19
ATOM     18  C   UNL     1       4.334   2.557  19.876  0.00  0.00    +0.000 C 
ATOM     19  C   UNL     1       2.861   2.931  20.110  0.00  0.00    +0.000 C 
ATOM     20  C   UNL     1       1.959   2.075  19.201  0.00  0.00    +0.000 C 
ATOM     21  C   UNL     1       2.503   2.624  21.579  0.00  0.00    +0.000 C 
ENDBRANCH   7  19
ENDBRANCH   1  13
BRANCH   4  22
ATOM     22  N   UNL     1      -2.104  13.164  21.176  0.00  0.00    +0.000 N 
ATOM     23  C   UNL     1      -3.060  13.059  22.169  0.00  0.00    +0.000 C 
ATOM     24  O   UNL     1      -3.334  12.054  22.824  0.00  0.00    +0.000 OA
ATOM     25  H   UNL     1      -1.935  14.104  20.833  0.00  0.00    +0.000 HD
BRANCH  23  26
ATOM     26  C   UNL     1      -3.782  14.330  22.471  0.00  0.00    +0.000 A 
ATOM     27  C   UNL     1      -3.564  15.436  21.650  0.00  0.00    +0.000 A 
ATOM     28  C   UNL     1      -4.247  16.606  21.929  0.00  0.00    +0.000 A 
ATOM     29  C   UNL     1      -5.121  16.645  23.012  0.00  0.00    +0.000 A 
ATOM     30  C   UNL     1      -5.275  15.496  23.776  0.00  0.00    +0.000 A 
ATOM     31  N   UNL     1      -4.634  14.330  23.535  0.00  0.00    +0.000 NA
ENDBRANCH  23  26
ENDBRANCH   4  22
TORSDOF 4
ENDMDL
MODEL 4
REMARK VINA RESULT:      -7.6      1.162      1.487
REMARK  Name = 
REMARK  7 active torsions:
REMARK  status: ('A' for Active; 'I' for Inactive)
REMARK    1  A    between atoms: C_1  and  C_2
REMARK    2  A    between atoms: C_2  and  C_3
REMARK    3  A    between atoms: C_2  and  C_4
REMARK    4  A    between atoms: C_2  and  C_5
REMARK    5  A    between atoms: N_11  and  C_12
REMARK    6  A    between atoms: C_15  and  N_16
REMARK    7  A    between atoms: C_17  and  C_19
REMARK                            x       y       z     vdW  Elec       q    Type
REMARK                         _______ _______ _______ _____ _____    ______ ____
ROOT
ATOM      1  C   UNL     1       0.292   9.829  21.238  0.00  0.00    +0.000 A 
ATOM      2  C   UNL     1      -0.286   9.661  22.491  0.00  0.00    +0.000 A 
ATOM      3  C   UNL     1      -1.002  10.711  23.071  0.00  0.00    +0.000 A 
ATOM      4  C   UNL     1      -1.190  11.916  22.389  0.00  0.00    +0.000 A 
ATOM      5  C   UNL     1      -0.646  12.062  21.110  0.00  0.00    +0.000 A 
ATOM      6  C   UNL     1       0.132  11.037  20.556  0.00  0.00    +0.000 A 
ENDROOT
BRANCH   1  13
ATOM      7  C   UNL     1       2.609   4.359  20.011  0.00  0.00    +0.000 A 
ATOM      8  C   UNL     1       2.893   5.341  19.093  0.00  0.00    +0.000 A 
ATOM      9  C   UNL     1       2.282   6.503  19.607  0.00  0.00    +0.000 A 
ATOM     10  N   UNL     1       2.245   7.727  18.975  0.00  0.00    +0.000 N 
ATOM     11  C   UNL     1       1.569   8.847  19.379  0.00  0.00    +0.000 C 
ATOM     12  O   UNL     1       1.477   9.790  18.594  0.00  0.00    +0.000 OA
ATOM     13  N   UNL     1       1.093   8.841  20.661  0.00  0.00    +0.000 N 
ATOM     14  N   UNL     1       1.727   6.250  20.799  0.00  0.00    +0.000 NA
ATOM     15  O   UNL     1       1.911   4.912  21.040  0.00  0.00    +0.000 OA
ATOM     16  H   UNL     1       2.646   7.798  18.053  0.00  0.00    +0.000 HD
ATOM     17  H   UNL     1       1.536   8.173  21.282  0.00  0.00    +0.000 HD
BRANCH   7  19
ATOM     18  C   UNL     1       2.000   2.128  19.107  0.00  0.00    +0.000 C 
ATOM     19  C   UNL     1       2.894   2.883  20.105  0.00  0.00    +0.000 C 
ATOM     20  C   UNL     1       2.600   2.394  21.535  0.00  0.00    +0.000 C 
ATOM     21  C   UNL     1       4.368   2.570  19.777  0.00  0.00    +0.000 C 
ENDBRANCH   7  19
ENDBRANCH   1  13
BRANCH   4  22
ATOM     22  N   UNL     1      -1.901  13.005  22.940  0.00  0.00    +0.000 N 
ATOM     23  C   UNL     1      -3.277  13.125  23.000  0.00  0.00    +0.000 C 
ATOM     24  O   UNL     1      -4.105  12.313  22.591  0.00  0.00    +0.000 OA
ATOM     25  H   UNL     1      -1.381  13.720  23.439  0.00  0.00    +0.000 HD
BRANCH  23  26
ATOM     26  C   UNL     1      -3.762  14.367  23.671  0.00  0.00    +0.000 A 
ATOM     27  C   UNL     1      -2.886  15.068  24.498  0.00  0.00    +0.000 A 
ATOM     28  C   UNL     1      -3.339  16.224  25.106  0.00  0.00    +0.000 A 
ATOM     29  C   UNL     1      -4.646  16.648  24.879  0.00  0.00    +0.000 A 
ATOM     30  C   UNL     1      -5.450  15.886  24.041  0.00  0.00    +0.000 A 
ATOM     31  N   UNL     1      -5.045  14.755  23.421  0.00  0.00    +0.000 NA
ENDBRANCH  23  26
ENDBRANCH   4  22
TORSDOF 4
ENDMDL
MODEL 5
REMARK VINA RESULT:      -7.5      1.243      1.721
REMARK  Name = 
REMARK  7 active torsions:
REMARK  status: ('A' for Active; 'I' for Inactive)
REMARK    1  A    between atoms: C_1  and  C_2
REMARK    2  A    between atoms: C_2  and  C_3
REMARK    3  A    between atoms: C_2  and  C_4
REMARK    4  A    between atoms: C_2  and  C_5
REMARK    5  A    between atoms: N_11  and  C_12
REMARK    6  A    between atoms: C_15  and  N_16
REMARK    7  A    between atoms: C_17  and  C_19
REMARK                            x       y       z     vdW  Elec       q    Type
REMARK                         _______ _______ _______ _____ _____    ______ ____
ROOT
ATOM      1  C   UNL     1       0.265   9.850  21.217  0.00  0.00    +0.000 A 
ATOM      2  C   UNL     1      -0.275   9.706  22.489  0.00  0.00    +0.000 A 
ATOM      3  C   UNL     1      -0.991  10.760  23.063  0.00  0.00    +0.000 A 
ATOM      4  C   UNL     1      -1.216  11.945  22.356  0.00  0.00    +0.000 A 
ATOM      5  C   UNL     1      -0.711  12.065  21.058  0.00  0.00    +0.000 A 
ATOM      6  C   UNL     1       0.067  11.038  20.510  0.00  0.00    +0.000 A 
ENDROOT
BRANCH   1  13
ATOM      7  C   UNL     1       2.569   4.373  20.001  0.00  0.00    +0.000 A 
ATOM      8  C   UNL     1       2.858   5.353  19.082  0.00  0.00    +0.000 A 
ATOM      9  C   UNL     1       2.249   6.517  19.594  0.00  0.00    +0.000 A 
ATOM     10  N   UNL     1       2.216   7.740  18.961  0.00  0.00    +0.000 N 
ATOM     11  C   UNL     1       1.543   8.863  19.361  0.00  0.00    +0.000 C 
ATOM     12  O   UNL     1       1.455   9.805  18.575  0.00  0.00    +0.000 OA
ATOM     13  N   UNL     1       1.064   8.859  20.642  0.00  0.00    +0.000 N 
ATOM     14  N   UNL     1       1.690   6.267  20.785  0.00  0.00    +0.000 NA
ATOM     15  O   UNL     1       1.870   4.929  21.027  0.00  0.00    +0.000 OA
ATOM     16  H   UNL     1       2.620   7.809  18.040  0.00  0.00    +0.000 HD
ATOM     17  H   UNL     1       1.504   8.191  21.266  0.00  0.00    +0.000 HD
BRANCH   7  19
ATOM     18  C   UNL     1       2.608   2.424  21.540  0.00  0.00    +0.000 C 
ATOM     19  C   UNL     1       2.849   2.896  20.096  0.00  0.00    +0.000 C 
ATOM     20  C   UNL     1       4.313   2.625  19.702  0.00  0.00    +0.000 C 
ATOM     21  C   UNL     1       1.934   2.085  19.156  0.00  0.00    +0.000 C 
ENDBRANCH   7  19
ENDBRANCH   1  13
BRANCH   4  22
ATOM     22  N   UNL     1      -1.928  13.036  22.900  0.00  0.00    +0.000 N 
ATOM     23  C   UNL     1      -3.303  13.134  23.003  0.00  0.00    +0.000 C 
ATOM     24  O   UNL     1      -4.129  12.295  22.648  0.00  0.00    +0.000 OA
ATOM     25  H   UNL     1      -1.405  13.775  23.358  0.00  0.00    +0.000 HD
BRANCH  23  26
ATOM     26  C   UNL     1      -3.789  14.387  23.654  0.00  0.00    +0.000 A 
ATOM     27  C   UNL     1      -5.108  14.784  23.441  0.00  0.00    +0.000 A 
ATOM     28  C   UNL     1      -5.554  15.939  24.058  0.00  0.00    +0.000 A 
ATOM     29  C   UNL     1      -4.680  16.664  24.864  0.00  0.00    +0.000 A 
ATOM     30  C   UNL     1      -3.382  16.194  25.019  0.00  0.00    +0.000 A 
ATOM     31  N   UNL     1      -2.907  15.068  24.440  0.00  0.00    +0.000 NA
ENDBRANCH  23  26
ENDBRANCH   4  22
TORSDOF 4
ENDMDL
MODEL 6
REMARK VINA RESULT:      -7.5      1.924     10.787
REMARK  Name = 
REMARK  7 active torsions:
REMARK  status: ('A' for Active; 'I' for Inactive)
REMARK    1  A    between atoms: C_1  and  C_2
REMARK    2  A    between atoms: C_2  and  C_3
REMARK    3  A    between atoms: C_2  and  C_4
REMARK    4  A    between atoms: C_2  and  C_5
REMARK    5  A    between atoms: N_11  and  C_12
REMARK    6  A    between atoms: C_15  and  N_16
REMARK    7  A    between atoms: C_17  and  C_19
REMARK                            x       y       z     vdW  Elec       q    Type
REMARK                         _______ _______ _______ _____ _____    ______ ____
ROOT
ATOM      1  C   UNL     1      -0.199  10.812  20.799  0.00  0.00    +0.000 A 
ATOM      2  C   UNL     1       0.257   9.855  21.697  0.00  0.00    +0.000 A 
ATOM      3  C   UNL     1       1.045   8.795  21.240  0.00  0.00    +0.000 A 
ATOM      4  C   UNL     1       1.423   8.707  19.898  0.00  0.00    +0.000 A 
ATOM      5  C   UNL     1       0.999   9.699  19.009  0.00  0.00    +0.000 A 
ATOM      6  C   UNL     1       0.152  10.723  19.451  0.00  0.00    +0.000 A 
ENDROOT
BRANCH   1  13
ATOM      7  C   UNL     1      -5.221  13.613  22.730  0.00  0.00    +0.000 A 
ATOM      8  C   UNL     1      -4.064  14.348  22.818  0.00  0.00    +0.000 A 
ATOM      9  C   UNL     1      -3.062  13.507  22.291  0.00  0.00    +0.000 A 
ATOM     10  N   UNL     1      -1.718  13.805  22.247  0.00  0.00    +0.000 N 
ATOM     11  C   UNL     1      -0.699  12.979  21.852  0.00  0.00    +0.000 C 
ATOM     12  O   UNL     1       0.459  13.334  22.067  0.00  0.00    +0.000 OA
ATOM     13  N   UNL     1      -1.063  11.837  21.194  0.00  0.00    +0.000 N 
ATOM     14  N   UNL     1      -3.599  12.364  21.845  0.00  0.00    +0.000 NA
ATOM     15  O   UNL     1      -4.938  12.421  22.139  0.00  0.00    +0.000 OA
ATOM     16  H   UNL     1      -1.409  14.671  22.659  0.00  0.00    +0.000 HD
ATOM     17  H   UNL     1      -1.992  11.851  20.786  0.00  0.00    +0.000 HD
BRANCH   7  19
ATOM     18  C   UNL     1      -7.094  12.736  24.106  0.00  0.00    +0.000 C 
ATOM     19  C   UNL     1      -6.654  13.843  23.133  0.00  0.00    +0.000 C 
ATOM     20  C   UNL     1      -7.549  13.816  21.881  0.00  0.00    +0.000 C 
ATOM     21  C   UNL     1      -6.833  15.208  23.830  0.00  0.00    +0.000 C 
ENDBRANCH   7  19
ENDBRANCH   1  13
BRANCH   4  22
ATOM     22  N   UNL     1       2.212   7.650  19.393  0.00  0.00    +0.000 N 
ATOM     23  C   UNL     1       2.196   6.343  19.843  0.00  0.00    +0.000 C 
ATOM     24  O   UNL     1       1.497   5.884  20.745  0.00  0.00    +0.000 OA
ATOM     25  H   UNL     1       2.765   7.815  18.558  0.00  0.00    +0.000 HD
BRANCH  23  26
ATOM     26  C   UNL     1       3.108   5.421  19.103  0.00  0.00    +0.000 A 
ATOM     27  C   UNL     1       2.596   4.687  18.035  0.00  0.00    +0.000 A 
ATOM     28  C   UNL     1       3.450   3.845  17.347  0.00  0.00    +0.000 A 
ATOM     29  C   UNL     1       4.783   3.755  17.739  0.00  0.00    +0.000 A 
ATOM     30  C   UNL     1       5.207   4.523  18.816  0.00  0.00    +0.000 A 
ATOM     31  N   UNL     1       4.408   5.363  19.512  0.00  0.00    +0.000 NA
ENDBRANCH  23  26
ENDBRANCH   4  22
TORSDOF 4
ENDMDL
MODEL 7
REMARK VINA RESULT:      -7.4      2.223     10.855
REMARK  Name = 
REMARK  7 active torsions:
REMARK  status: ('A' for Active; 'I' for Inactive)
REMARK    1  A    between atoms: C_1  and  C_2
REMARK    2  A    between atoms: C_2  and  C_3
REMARK    3  A    between atoms: C_2  and  C_4
REMARK    4  A    between atoms: C_2  and  C_5
REMARK    5  A    between atoms: N_11  and  C_12
REMARK    6  A    between atoms: C_15  and  N_16
REMARK    7  A    between atoms: C_17  and  C_19
REMARK                            x       y       z     vdW  Elec       q    Type
REMARK                         _______ _______ _______ _____ _____    ______ ____
ROOT
ATOM      1  C   UNL     1       0.139  10.010  20.624  0.00  0.00    +0.000 A 
ATOM      2  C   UNL     1       0.284  10.298  19.272  0.00  0.00    +0.000 A 
ATOM      3  C   UNL     1       1.171   9.549  18.494  0.00  0.00    +0.000 A 
ATOM      4  C   UNL     1       1.881   8.478  19.045  0.00  0.00    +0.000 A 
ATOM      5  C   UNL     1       1.695   8.164  20.394  0.00  0.00    +0.000 A 
ATOM      6  C   UNL     1       0.861   8.958  21.191  0.00  0.00    +0.000 A 
ENDROOT
BRANCH   1  13
ATOM      7  C   UNL     1      -4.580  13.296  22.554  0.00  0.00    +0.000 A 
ATOM      8  C   UNL     1      -3.727  12.854  23.536  0.00  0.00    +0.000 A 
ATOM      9  C   UNL     1      -2.716  12.155  22.846  0.00  0.00    +0.000 A 
ATOM     10  N   UNL     1      -1.676  11.472  23.439  0.00  0.00    +0.000 N 
ATOM     11  C   UNL     1      -0.741  10.687  22.820  0.00  0.00    +0.000 C 
ATOM     12  O   UNL     1      -0.007   9.988  23.518  0.00  0.00    +0.000 OA
ATOM     13  N   UNL     1      -0.666  10.790  21.458  0.00  0.00    +0.000 N 
ATOM     14  N   UNL     1      -2.911  12.235  21.523  0.00  0.00    +0.000 NA
ATOM     15  O   UNL     1      -4.082  12.925  21.343  0.00  0.00    +0.000 OA
ATOM     16  H   UNL     1      -1.651  11.426  24.445  0.00  0.00    +0.000 HD
ATOM     17  H   UNL     1      -1.067  11.635  21.067  0.00  0.00    +0.000 HD
BRANCH   7  19
ATOM     18  C   UNL     1      -5.598  15.546  22.823  0.00  0.00    +0.000 C 
ATOM     19  C   UNL     1      -5.879  14.059  22.545  0.00  0.00    +0.000 C 
ATOM     20  C   UNL     1      -6.811  13.497  23.634  0.00  0.00    +0.000 C 
ATOM     21  C   UNL     1      -6.594  13.942  21.184  0.00  0.00    +0.000 C 
ENDBRANCH   7  19
ENDBRANCH   1  13
BRANCH   4  22
ATOM     22  N   UNL     1       2.792   7.700  18.297  0.00  0.00    +0.000 N 
ATOM     23  C   UNL     1       2.862   6.319  18.292  0.00  0.00    +0.000 C 
ATOM     24  O   UNL     1       2.149   5.544  18.928  0.00  0.00    +0.000 OA
ATOM     25  H   UNL     1       3.382   8.167  17.616  0.00  0.00    +0.000 HD
BRANCH  23  26
ATOM     26  C   UNL     1       3.899   5.754  17.379  0.00  0.00    +0.000 A 
ATOM     27  C   UNL     1       4.806   6.624  16.776  0.00  0.00    +0.000 A 
ATOM     28  C   UNL     1       5.772   6.091  15.942  0.00  0.00    +0.000 A 
ATOM     29  C   UNL     1       5.807   4.715  15.729  0.00  0.00    +0.000 A 
ATOM     30  C   UNL     1       4.862   3.924  16.370  0.00  0.00    +0.000 A 
ATOM     31  N   UNL     1       3.907   4.403  17.199  0.00  0.00    +0.000 NA
ENDBRANCH  23  26
ENDBRANCH   4  22
TORSDOF 4
ENDMDL
MODEL 8
REMARK VINA RESULT:      -7.4      2.071     10.865
REMARK  Name = 
REMARK  7 active torsions:
REMARK  status: ('A' for Active; 'I' for Inactive)
REMARK    1  A    between atoms: C_1  and  C_2
REMARK    2  A    between atoms: C_2  and  C_3
REMARK    3  A    between atoms: C_2  and  C_4
REMARK    4  A    between atoms: C_2  and  C_5
REMARK    5  A    between atoms: N_11  and  C_12
REMARK    6  A    between atoms: C_15  and  N_16
REMARK    7  A    between atoms: C_17  and  C_19
REMARK                            x       y       z     vdW  Elec       q    Type
REMARK                         _______ _______ _______ _____ _____    ______ ____
ROOT
ATOM      1  C   UNL     1       0.072  10.062  20.620  0.00  0.00    +0.000 A 
ATOM      2  C   UNL     1       0.264  10.377  19.280  0.00  0.00    +0.000 A 
ATOM      3  C   UNL     1       1.146   9.617  18.507  0.00  0.00    +0.000 A 
ATOM      4  C   UNL     1       1.804   8.509  19.049  0.00  0.00    +0.000 A 
ATOM      5  C   UNL     1       1.570   8.169  20.385  0.00  0.00    +0.000 A 
ATOM      6  C   UNL     1       0.742   8.973  21.179  0.00  0.00    +0.000 A 
ENDROOT
BRANCH   1  13
ATOM      7  C   UNL     1      -4.671  13.295  22.579  0.00  0.00    +0.000 A 
ATOM      8  C   UNL     1      -3.780  12.906  23.550  0.00  0.00    +0.000 A 
ATOM      9  C   UNL     1      -2.771  12.209  22.853  0.00  0.00    +0.000 A 
ATOM     10  N   UNL     1      -1.699  11.571  23.438  0.00  0.00    +0.000 N 
ATOM     11  C   UNL     1      -0.762  10.789  22.817  0.00  0.00    +0.000 C 
ATOM     12  O   UNL     1       0.008  10.131  23.516  0.00  0.00    +0.000 OA
ATOM     13  N   UNL     1      -0.728  10.849  21.451  0.00  0.00    +0.000 N 
ATOM     14  N   UNL     1      -3.006  12.241  21.535  0.00  0.00    +0.000 NA
ATOM     15  O   UNL     1      -4.198  12.897  21.367  0.00  0.00    +0.000 OA
ATOM     16  H   UNL     1      -1.644  11.559  24.444  0.00  0.00    +0.000 HD
ATOM     17  H   UNL     1      -1.161  11.672  21.045  0.00  0.00    +0.000 HD
BRANCH   7  19
ATOM     18  C   UNL     1      -6.841  13.532  23.764  0.00  0.00    +0.000 C 
ATOM     19  C   UNL     1      -5.988  14.027  22.584  0.00  0.00    +0.000 C 
ATOM     20  C   UNL     1      -6.729  13.756  21.261  0.00  0.00    +0.000 C 
ATOM     21  C   UNL     1      -5.788  15.549  22.728  0.00  0.00    +0.000 C 
ENDBRANCH   7  19
ENDBRANCH   1  13
BRANCH   4  22
ATOM     22  N   UNL     1       2.707   7.717  18.307  0.00  0.00    +0.000 N 
ATOM     23  C   UNL     1       2.819   6.341  18.372  0.00  0.00    +0.000 C 
ATOM     24  O   UNL     1       2.155   5.581  19.076  0.00  0.00    +0.000 OA
ATOM     25  H   UNL     1       3.256   8.164  17.579  0.00  0.00    +0.000 HD
BRANCH  23  26
ATOM     26  C   UNL     1       3.836   5.757  17.448  0.00  0.00    +0.000 A 
ATOM     27  C   UNL     1       3.880   4.372  17.291  0.00  0.00    +0.000 A 
ATOM     28  C   UNL     1       4.816   3.840  16.423  0.00  0.00    +0.000 A 
ATOM     29  C   UNL     1       5.679   4.693  15.742  0.00  0.00    +0.000 A 
ATOM     30  C   UNL     1       5.565   6.060  15.961  0.00  0.00    +0.000 A 
ATOM     31  N   UNL     1       4.660   6.623  16.793  0.00  0.00    +0.000 NA
ENDBRANCH  23  26
ENDBRANCH   4  22
TORSDOF 4
ENDMDL
MODEL 9
REMARK VINA RESULT:      -7.4      0.763      1.101
REMARK  Name = 
REMARK  7 active torsions:
REMARK  status: ('A' for Active; 'I' for Inactive)
REMARK    1  A    between atoms: C_1  and  C_2
REMARK    2  A    between atoms: C_2  and  C_3
REMARK    3  A    between atoms: C_2  and  C_4
REMARK    4  A    between atoms: C_2  and  C_5
REMARK    5  A    between atoms: N_11  and  C_12
REMARK    6  A    between atoms: C_15  and  N_16
REMARK    7  A    between atoms: C_17  and  C_19
REMARK                            x       y       z     vdW  Elec       q    Type
REMARK                         _______ _______ _______ _____ _____    ______ ____
ROOT
ATOM      1  C   UNL     1       0.530  10.008  19.780  0.00  0.00    +0.000 A 
ATOM      2  C   UNL     1      -0.648  10.309  19.106  0.00  0.00    +0.000 A 
ATOM      3  C   UNL     1      -1.498  11.300  19.602  0.00  0.00    +0.000 A 
ATOM      4  C   UNL     1      -1.160  12.031  20.744  0.00  0.00    +0.000 A 
ATOM      5  C   UNL     1       0.048  11.755  21.391  0.00  0.00    +0.000 A 
ATOM      6  C   UNL     1       0.867  10.714  20.936  0.00  0.00    +0.000 A 
ENDROOT
BRANCH   1  13
ATOM      7  C   UNL     1       2.727   4.396  19.095  0.00  0.00    +0.000 A 
ATOM      8  C   UNL     1       3.217   5.333  18.218  0.00  0.00    +0.000 A 
ATOM      9  C   UNL     1       2.589   6.539  18.593  0.00  0.00    +0.000 A 
ATOM     10  N   UNL     1       2.727   7.743  17.937  0.00  0.00    +0.000 N 
ATOM     11  C   UNL     1       2.053   8.907  18.192  0.00  0.00    +0.000 C 
ATOM     12  O   UNL     1       2.147   9.829  17.382  0.00  0.00    +0.000 OA
ATOM     13  N   UNL     1       1.363   8.964  19.372  0.00  0.00    +0.000 N 
ATOM     14  N   UNL     1       1.825   6.351  19.676  0.00  0.00    +0.000 NA
ATOM     15  O   UNL     1       1.893   5.014  19.975  0.00  0.00    +0.000 OA
ATOM     16  H   UNL     1       3.283   7.765  17.097  0.00  0.00    +0.000 HD
ATOM     17  H   UNL     1       1.657   8.295  20.076  0.00  0.00    +0.000 HD
BRANCH   7  19
ATOM     18  C   UNL     1       2.781   2.218  17.903  0.00  0.00    +0.000 C 
ATOM     19  C   UNL     1       2.912   2.911  19.269  0.00  0.00    +0.000 C 
ATOM     20  C   UNL     1       1.836   2.370  20.229  0.00  0.00    +0.000 C 
ATOM     21  C   UNL     1       4.299   2.580  19.856  0.00  0.00    +0.000 C 
ENDBRANCH   7  19
ENDBRANCH   1  13
BRANCH   4  22
ATOM     22  N   UNL     1      -1.993  13.035  21.284  0.00  0.00    +0.000 N 
ATOM     23  C   UNL     1      -2.859  12.882  22.350  0.00  0.00    +0.000 C 
ATOM     24  O   UNL     1      -3.045  11.857  23.005  0.00  0.00    +0.000 OA
ATOM     25  H   UNL     1      -1.884  13.986  20.946  0.00  0.00    +0.000 HD
BRANCH  23  26
ATOM     26  C   UNL     1      -3.594  14.122  22.736  0.00  0.00    +0.000 A 
ATOM     27  C   UNL     1      -4.764  14.002  23.485  0.00  0.00    +0.000 A 
ATOM     28  C   UNL     1      -5.433  15.156  23.850  0.00  0.00    +0.000 A 
ATOM     29  C   UNL     1      -4.924  16.392  23.459  0.00  0.00    +0.000 A 
ATOM     30  C   UNL     1      -3.753  16.417  22.713  0.00  0.00    +0.000 A 
ATOM     31  N   UNL     1      -3.064  15.315  22.341  0.00  0.00    +0.000 NA
ENDBRANCH  23  26
ENDBRANCH   4  22
TORSDOF 4
ENDMDL
