MODEL 1
REMARK VINA RESULT:      -6.6      0.000      0.000
REMARK  Name = 
REMARK  13 active torsions:
REMARK  status: ('A' for Active; 'I' for Inactive)
REMARK    1  A    between atoms: C_1  and  C_2
REMARK    2  A    between atoms: C_2  and  C_3
REMARK    3  A    between atoms: C_3  and  N_4
REMARK    4  A    between atoms: C_5  and  S_6
REMARK    5  A    between atoms: S_6  and  C_7
REMARK    6  A    between atoms: C_7  and  C_8
REMARK    7  A    between atoms: N_10  and  C_11
REMARK    8  A    between atoms: C_12  and  C_13
REMARK    9  A    between atoms: C_17  and  C_18
REMARK   10  A    between atoms: C_18  and  C_19
REMARK   11  A    between atoms: C_22  and  C_23
REMARK   12  A    between atoms: C_23  and  C_24
REMARK   13  A    between atoms: C_23  and  C_25
REMARK                            x       y       z     vdW  Elec       q    Type
REMARK                         _______ _______ _______ _____ _____    ______ ____
ROOT
ATOM      1  C   UNL     1       2.794   4.435  21.078  0.00  0.00    +0.000 C 
ENDROOT
BRANCH   1   2
ATOM      2  C   UNL     1       1.947   5.498  20.380  0.00  0.00    +0.000 C 
ATOM      3  O   UNL     1       0.841   5.223  19.916  0.00  0.00    +0.000 OA
ATOM      4  N   UNL     1       2.529   6.761  20.373  0.00  0.00    +0.000 N 
ATOM      5  H   UNL     1       3.542   6.733  20.405  0.00  0.00    +0.000 HD
BRANCH   4   6
ATOM      6  C   UNL     1       1.943   7.908  19.779  0.00  0.00    +0.000 A 
ATOM      7  C   UNL     1       2.136   8.222  18.411  0.00  0.00    +0.000 A 
ATOM      8  C   UNL     1       2.876   7.346  17.432  0.00  0.00    +0.000 C 
ATOM      9  C   UNL     1       1.559   9.388  17.883  0.00  0.00    +0.000 A 
ATOM     10  C   UNL     1       0.771  10.221  18.667  0.00  0.00    +0.000 A 
ATOM     11  C   UNL     1       0.535   9.883  19.996  0.00  0.00    +0.000 A 
ATOM     12  C   UNL     1       1.093   8.721  20.565  0.00  0.00    +0.000 A 
BRANCH  12  13
ATOM     13  C   UNL     1       0.766   8.455  22.019  0.00  0.00    +0.000 C 
ATOM     14  C   UNL     1      -0.456   9.217  22.514  0.00  0.00    +0.000 C 
ENDBRANCH  12  13
ENDBRANCH   4   6
ENDBRANCH   1   2
BRANCH   1  15
ATOM     15  S   UNL     1       2.757   2.852  20.168  0.00  0.00    +0.000 S 
BRANCH  15  17
ATOM     16  N   UNL     1       4.554   3.811  18.297  0.00  0.00    +0.000 N 
ATOM     17  C   UNL     1       3.287   3.358  18.594  0.00  0.00    +0.000 A 
ATOM     18  N   UNL     1       2.552   3.357  17.511  0.00  0.00    +0.000 NA
ATOM     19  N   UNL     1       3.323   3.818  16.480  0.00  0.00    +0.000 NA
ATOM     20  C   UNL     1       4.528   4.105  16.940  0.00  0.00    +0.000 A 
BRANCH  20  21
ATOM     21  C   UNL     1       5.660   4.629  16.093  0.00  0.00    +0.000 C 
ATOM     22  C   UNL     1       5.861   3.740  14.861  0.00  0.00    +0.000 C 
ATOM     23  C   UNL     1       5.384   6.062  15.609  0.00  0.00    +0.000 C 
ENDBRANCH  20  21
BRANCH  16  24
ATOM     24  C   UNL     1       5.639   4.038  19.231  0.00  0.00    +0.000 C 
BRANCH  24  26
ATOM     25  C   UNL     1       7.614   5.691  19.099  0.00  0.00    +0.000 C 
ATOM     26  C   UNL     1       6.127   5.486  19.351  0.00  0.00    +0.000 C 
ENDBRANCH  24  26
ENDBRANCH  16  24
ENDBRANCH  15  17
ENDBRANCH   1  15
TORSDOF 8
ENDMDL
MODEL 2
REMARK VINA RESULT:      -6.5      1.209      2.256
REMARK  Name = 
REMARK  13 active torsions:
REMARK  status: ('A' for Active; 'I' for Inactive)
REMARK    1  A    between atoms: C_1  and  C_2
REMARK    2  A    between atoms: C_2  and  C_3
REMARK    3  A    between atoms: C_3  and  N_4
REMARK    4  A    between atoms: C_5  and  S_6
REMARK    5  A    between atoms: S_6  and  C_7
REMARK    6  A    between atoms: C_7  and  C_8
REMARK    7  A    between atoms: N_10  and  C_11
REMARK    8  A    between atoms: C_12  and  C_13
REMARK    9  A    between atoms: C_17  and  C_18
REMARK   10  A    between atoms: C_18  and  C_19
REMARK   11  A    between atoms: C_22  and  C_23
REMARK   12  A    between atoms: C_23  and  C_24
REMARK   13  A    between atoms: C_23  and  C_25
REMARK                            x       y       z     vdW  Elec       q    Type
REMARK                         _______ _______ _______ _____ _____    ______ ____
ROOT
ATOM      1  C   UNL     1       2.459   4.312  21.603  0.00  0.00    +0.000 C 
ENDROOT
BRANCH   1   2
ATOM      2  C   UNL     1       1.777   5.306  20.664  0.00  0.00    +0.000 C 
ATOM      3  O   UNL     1       0.772   4.991  20.028  0.00  0.00    +0.000 OA
ATOM      4  N   UNL     1       2.374   6.562  20.651  0.00  0.00    +0.000 N 
ATOM      5  H   UNL     1       3.362   6.536  20.875  0.00  0.00    +0.000 HD
BRANCH   4   6
ATOM      6  C   UNL     1       1.930   7.649  19.856  0.00  0.00    +0.000 A 
ATOM      7  C   UNL     1       2.425   7.868  18.547  0.00  0.00    +0.000 A 
ATOM      8  C   UNL     1       3.372   6.940  17.829  0.00  0.00    +0.000 C 
ATOM      9  C   UNL     1       1.976   8.979  17.816  0.00  0.00    +0.000 A 
ATOM     10  C   UNL     1       1.026   9.849  18.338  0.00  0.00    +0.000 A 
ATOM     11  C   UNL     1       0.498   9.603  19.601  0.00  0.00    +0.000 A 
ATOM     12  C   UNL     1       0.920   8.498  20.367  0.00  0.00    +0.000 A 
BRANCH  12  13
ATOM     13  C   UNL     1       0.274   8.330  21.727  0.00  0.00    +0.000 C 
ATOM     14  C   UNL     1       0.686   9.401  22.728  0.00  0.00    +0.000 C 
ENDBRANCH  12  13
ENDBRANCH   4   6
ENDBRANCH   1   2
BRANCH   1  15
ATOM     15  S   UNL     1       3.028   2.829  20.701  0.00  0.00    +0.000 S 
BRANCH  15  17
ATOM     16  N   UNL     1       4.415   3.201  18.338  0.00  0.00    +0.000 N 
ATOM     17  C   UNL     1       4.248   3.510  19.671  0.00  0.00    +0.000 A 
ATOM     18  N   UNL     1       5.137   4.398  20.034  0.00  0.00    +0.000 NA
ATOM     19  N   UNL     1       5.913   4.686  18.945  0.00  0.00    +0.000 NA
ATOM     20  C   UNL     1       5.496   3.965  17.919  0.00  0.00    +0.000 A 
BRANCH  20  21
ATOM     21  C   UNL     1       6.102   4.020  16.539  0.00  0.00    +0.000 C 
ATOM     22  C   UNL     1       5.199   4.819  15.592  0.00  0.00    +0.000 C 
ATOM     23  C   UNL     1       7.486   4.687  16.559  0.00  0.00    +0.000 C 
ENDBRANCH  20  21
BRANCH  16  24
ATOM     24  C   UNL     1       3.687   2.206  17.576  0.00  0.00    +0.000 C 
BRANCH  24  26
ATOM     25  C   UNL     1       1.721   3.831  17.199  0.00  0.00    +0.000 C 
ATOM     26  C   UNL     1       2.170   2.406  17.490  0.00  0.00    +0.000 C 
ENDBRANCH  24  26
ENDBRANCH  16  24
ENDBRANCH  15  17
ENDBRANCH   1  15
TORSDOF 8
ENDMDL
MODEL 3
REMARK VINA RESULT:      -6.4      2.912      4.356
REMARK  Name = 
REMARK  13 active torsions:
REMARK  status: ('A' for Active; 'I' for Inactive)
REMARK    1  A    between atoms: C_1  and  C_2
REMARK    2  A    between atoms: C_2  and  C_3
REMARK    3  A    between atoms: C_3  and  N_4
REMARK    4  A    between atoms: C_5  and  S_6
REMARK    5  A    between atoms: S_6  and  C_7
REMARK    6  A    between atoms: C_7  and  C_8
REMARK    7  A    between atoms: N_10  and  C_11
REMARK    8  A    between atoms: C_12  and  C_13
REMARK    9  A    between atoms: C_17  and  C_18
REMARK   10  A    between atoms: C_18  and  C_19
REMARK   11  A    between atoms: C_22  and  C_23
REMARK   12  A    between atoms: C_23  and  C_24
REMARK   13  A    between atoms: C_23  and  C_25
REMARK                            x       y       z     vdW  Elec       q    Type
REMARK                         _______ _______ _______ _____ _____    ______ ____
ROOT
ATOM      1  C   UNL     1       2.186   8.781  18.053  0.00  0.00    +0.000 C 
ENDROOT
BRANCH   1   2
ATOM      2  C   UNL     1       1.061   9.446  18.845  0.00  0.00    +0.000 C 
ATOM      3  O   UNL     1       0.831   9.126  20.010  0.00  0.00    +0.000 OA
ATOM      4  N   UNL     1       0.390  10.438  18.137  0.00  0.00    +0.000 N 
ATOM      5  H   UNL     1       0.408  10.294  17.135  0.00  0.00    +0.000 HD
BRANCH   4   6
ATOM      6  C   UNL     1      -0.695  11.192  18.653  0.00  0.00    +0.000 A 
ATOM      7  C   UNL     1      -0.499  12.241  19.585  0.00  0.00    +0.000 A 
ATOM      8  C   UNL     1       0.851  12.733  20.043  0.00  0.00    +0.000 C 
ATOM      9  C   UNL     1      -1.612  12.934  20.088  0.00  0.00    +0.000 A 
ATOM     10  C   UNL     1      -2.899  12.634  19.662  0.00  0.00    +0.000 A 
ATOM     11  C   UNL     1      -3.087  11.642  18.705  0.00  0.00    +0.000 A 
ATOM     12  C   UNL     1      -1.998  10.925  18.172  0.00  0.00    +0.000 A 
BRANCH  12  13
ATOM     13  C   UNL     1      -2.323   9.870  17.136  0.00  0.00    +0.000 C 
ATOM     14  C   UNL     1      -2.688  10.450  15.776  0.00  0.00    +0.000 C 
ENDBRANCH  12  13
ENDBRANCH   4   6
ENDBRANCH   1   2
BRANCH   1  15
ATOM     15  S   UNL     1       2.546   7.107  18.687  0.00  0.00    +0.000 S 
BRANCH  15  17
ATOM     16  N   UNL     1       4.545   5.442  17.752  0.00  0.00    +0.000 N 
ATOM     17  C   UNL     1       3.854   6.629  17.651  0.00  0.00    +0.000 A 
ATOM     18  N   UNL     1       4.325   7.332  16.653  0.00  0.00    +0.000 NA
ATOM     19  N   UNL     1       5.343   6.620  16.081  0.00  0.00    +0.000 NA
ATOM     20  C   UNL     1       5.494   5.484  16.738  0.00  0.00    +0.000 A 
BRANCH  20  21
ATOM     21  C   UNL     1       6.514   4.429  16.391  0.00  0.00    +0.000 C 
ATOM     22  C   UNL     1       7.015   4.623  14.956  0.00  0.00    +0.000 C 
ATOM     23  C   UNL     1       7.727   4.488  17.334  0.00  0.00    +0.000 C 
ENDBRANCH  20  21
BRANCH  16  24
ATOM     24  C   UNL     1       4.386   4.424  18.772  0.00  0.00    +0.000 C 
BRANCH  24  26
ATOM     25  C   UNL     1       2.603   3.344  17.254  0.00  0.00    +0.000 C 
ATOM     26  C   UNL     1       3.654   3.150  18.338  0.00  0.00    +0.000 C 
ENDBRANCH  24  26
ENDBRANCH  16  24
ENDBRANCH  15  17
ENDBRANCH   1  15
TORSDOF 8
ENDMDL
MODEL 4
REMARK VINA RESULT:      -6.3      2.662      4.649
REMARK  Name = 
REMARK  13 active torsions:
REMARK  status: ('A' for Active; 'I' for Inactive)
REMARK    1  A    between atoms: C_1  and  C_2
REMARK    2  A    between atoms: C_2  and  C_3
REMARK    3  A    between atoms: C_3  and  N_4
REMARK    4  A    between atoms: C_5  and  S_6
REMARK    5  A    between atoms: S_6  and  C_7
REMARK    6  A    between atoms: C_7  and  C_8
REMARK    7  A    between atoms: N_10  and  C_11
REMARK    8  A    between atoms: C_12  and  C_13
REMARK    9  A    between atoms: C_17  and  C_18
REMARK   10  A    between atoms: C_18  and  C_19
REMARK   11  A    between atoms: C_22  and  C_23
REMARK   12  A    between atoms: C_23  and  C_24
REMARK   13  A    between atoms: C_23  and  C_25
REMARK                            x       y       z     vdW  Elec       q    Type
REMARK                         _______ _______ _______ _____ _____    ______ ____
ROOT
ATOM      1  C   UNL     1       1.514   8.573  17.556  0.00  0.00    +0.000 C 
ENDROOT
BRANCH   1   2
ATOM      2  C   UNL     1       1.231   9.857  18.336  0.00  0.00    +0.000 C 
ATOM      3  O   UNL     1       2.003  10.813  18.284  0.00  0.00    +0.000 OA
ATOM      4  N   UNL     1       0.032   9.830  19.040  0.00  0.00    +0.000 N 
ATOM      5  H   UNL     1      -0.251   8.896  19.310  0.00  0.00    +0.000 HD
BRANCH   4   6
ATOM      6  C   UNL     1      -0.446  10.897  19.844  0.00  0.00    +0.000 A 
ATOM      7  C   UNL     1      -1.241  11.939  19.306  0.00  0.00    +0.000 A 
ATOM      8  C   UNL     1      -1.745  11.979  17.886  0.00  0.00    +0.000 C 
ATOM      9  C   UNL     1      -1.660  12.988  20.140  0.00  0.00    +0.000 A 
ATOM     10  C   UNL     1      -1.340  13.005  21.492  0.00  0.00    +0.000 A 
ATOM     11  C   UNL     1      -0.607  11.953  22.032  0.00  0.00    +0.000 A 
ATOM     12  C   UNL     1      -0.168  10.880  21.231  0.00  0.00    +0.000 A 
BRANCH  12  13
ATOM     13  C   UNL     1       0.621   9.792  21.929  0.00  0.00    +0.000 C 
ATOM     14  C   UNL     1       0.056   9.414  23.291  0.00  0.00    +0.000 C 
ENDBRANCH  12  13
ENDBRANCH   4   6
ENDBRANCH   1   2
BRANCH   1  15
ATOM     15  S   UNL     1       3.095   7.818  18.070  0.00  0.00    +0.000 S 
BRANCH  15  17
ATOM     16  N   UNL     1       2.594   5.192  18.778  0.00  0.00    +0.000 N 
ATOM     17  C   UNL     1       2.537   6.533  19.094  0.00  0.00    +0.000 A 
ATOM     18  N   UNL     1       2.009   6.685  20.281  0.00  0.00    +0.000 NA
ATOM     19  N   UNL     1       1.702   5.444  20.767  0.00  0.00    +0.000 NA
ATOM     20  C   UNL     1       2.040   4.536  19.868  0.00  0.00    +0.000 A 
BRANCH  20  21
ATOM     21  C   UNL     1       1.865   3.049  20.053  0.00  0.00    +0.000 C 
ATOM     22  C   UNL     1       1.515   2.731  21.511  0.00  0.00    +0.000 C 
ATOM     23  C   UNL     1       0.741   2.501  19.160  0.00  0.00    +0.000 C 
ENDBRANCH  20  21
BRANCH  16  24
ATOM     24  C   UNL     1       3.035   4.611  17.525  0.00  0.00    +0.000 C 
BRANCH  24  26
ATOM     25  C   UNL     1       5.192   4.446  16.122  0.00  0.00    +0.000 C 
ATOM     26  C   UNL     1       4.509   4.199  17.460  0.00  0.00    +0.000 C 
ENDBRANCH  24  26
ENDBRANCH  16  24
ENDBRANCH  15  17
ENDBRANCH   1  15
TORSDOF 8
ENDMDL
MODEL 5
REMARK VINA RESULT:      -6.2      5.570      7.282
REMARK  Name = 
REMARK  13 active torsions:
REMARK  status: ('A' for Active; 'I' for Inactive)
REMARK    1  A    between atoms: C_1  and  C_2
REMARK    2  A    between atoms: C_2  and  C_3
REMARK    3  A    between atoms: C_3  and  N_4
REMARK    4  A    between atoms: C_5  and  S_6
REMARK    5  A    between atoms: S_6  and  C_7
REMARK    6  A    between atoms: C_7  and  C_8
REMARK    7  A    between atoms: N_10  and  C_11
REMARK    8  A    between atoms: C_12  and  C_13
REMARK    9  A    between atoms: C_17  and  C_18
REMARK   10  A    between atoms: C_18  and  C_19
REMARK   11  A    between atoms: C_22  and  C_23
REMARK   12  A    between atoms: C_23  and  C_24
REMARK   13  A    between atoms: C_23  and  C_25
REMARK                            x       y       z     vdW  Elec       q    Type
REMARK                         _______ _______ _______ _____ _____    ______ ____
ROOT
ATOM      1  C   UNL     1       8.553   8.133  18.763  0.00  0.00    +0.000 C 
ENDROOT
BRANCH   1   2
ATOM      2  C   UNL     1       8.786   9.643  18.804  0.00  0.00    +0.000 C 
ATOM      3  O   UNL     1       8.224  10.392  18.007  0.00  0.00    +0.000 OA
ATOM      4  N   UNL     1       9.632  10.050  19.829  0.00  0.00    +0.000 N 
ATOM      5  H   UNL     1      10.299   9.338  20.103  0.00  0.00    +0.000 HD
BRANCH   4   6
ATOM      6  C   UNL     1      10.007  11.397  20.068  0.00  0.00    +0.000 A 
ATOM      7  C   UNL     1      10.908  12.084  19.216  0.00  0.00    +0.000 A 
ATOM      8  C   UNL     1      11.473  11.516  17.939  0.00  0.00    +0.000 C 
ATOM      9  C   UNL     1      11.270  13.406  19.519  0.00  0.00    +0.000 A 
ATOM     10  C   UNL     1      10.733  14.067  20.616  0.00  0.00    +0.000 A 
ATOM     11  C   UNL     1       9.806  13.412  21.420  0.00  0.00    +0.000 A 
ATOM     12  C   UNL     1       9.414  12.086  21.152  0.00  0.00    +0.000 A 
BRANCH  12  13
ATOM     13  C   UNL     1       8.397  11.476  22.094  0.00  0.00    +0.000 C 
ATOM     14  C   UNL     1       8.154  12.311  23.344  0.00  0.00    +0.000 C 
ENDBRANCH  12  13
ENDBRANCH   4   6
ENDBRANCH   1   2
BRANCH   1  15
ATOM     15  S   UNL     1       7.551   7.653  17.314  0.00  0.00    +0.000 S 
BRANCH  15  17
ATOM     16  N   UNL     1       5.778   5.533  17.229  0.00  0.00    +0.000 N 
ATOM     17  C   UNL     1       6.676   6.294  17.946  0.00  0.00    +0.000 A 
ATOM     18  N   UNL     1       6.775   5.830  19.165  0.00  0.00    +0.000 NA
ATOM     19  N   UNL     1       5.935   4.756  19.276  0.00  0.00    +0.000 NA
ATOM     20  C   UNL     1       5.321   4.571  18.120  0.00  0.00    +0.000 A 
BRANCH  20  21
ATOM     21  C   UNL     1       4.325   3.470  17.853  0.00  0.00    +0.000 C 
ATOM     22  C   UNL     1       4.204   2.553  19.074  0.00  0.00    +0.000 C 
ATOM     23  C   UNL     1       2.932   4.037  17.539  0.00  0.00    +0.000 C 
ENDBRANCH  20  21
BRANCH  16  24
ATOM     24  C   UNL     1       5.327   5.766  15.871  0.00  0.00    +0.000 C 
BRANCH  24  26
ATOM     25  C   UNL     1       5.531   3.977  14.025  0.00  0.00    +0.000 C 
ATOM     26  C   UNL     1       6.181   5.136  14.765  0.00  0.00    +0.000 C 
ENDBRANCH  24  26
ENDBRANCH  16  24
ENDBRANCH  15  17
ENDBRANCH   1  15
TORSDOF 8
ENDMDL
MODEL 6
REMARK VINA RESULT:      -6.2      3.252      8.369
REMARK  Name = 
REMARK  13 active torsions:
REMARK  status: ('A' for Active; 'I' for Inactive)
REMARK    1  A    between atoms: C_1  and  C_2
REMARK    2  A    between atoms: C_2  and  C_3
REMARK    3  A    between atoms: C_3  and  N_4
REMARK    4  A    between atoms: C_5  and  S_6
REMARK    5  A    between atoms: S_6  and  C_7
REMARK    6  A    between atoms: C_7  and  C_8
REMARK    7  A    between atoms: N_10  and  C_11
REMARK    8  A    between atoms: C_12  and  C_13
REMARK    9  A    between atoms: C_17  and  C_18
REMARK   10  A    between atoms: C_18  and  C_19
REMARK   11  A    between atoms: C_22  and  C_23
REMARK   12  A    between atoms: C_23  and  C_24
REMARK   13  A    between atoms: C_23  and  C_25
REMARK                            x       y       z     vdW  Elec       q    Type
REMARK                         _______ _______ _______ _____ _____    ______ ____
ROOT
ATOM      1  C   UNL     1       1.747   8.031  20.578  0.00  0.00    +0.000 C 
ENDROOT
BRANCH   1   2
ATOM      2  C   UNL     1       2.081   6.969  19.531  0.00  0.00    +0.000 C 
ATOM      3  O   UNL     1       1.904   7.183  18.332  0.00  0.00    +0.000 OA
ATOM      4  N   UNL     1       2.624   5.807  20.067  0.00  0.00    +0.000 N 
ATOM      5  H   UNL     1       2.327   5.631  21.020  0.00  0.00    +0.000 HD
BRANCH   4   6
ATOM      6  C   UNL     1       3.007   4.677  19.301  0.00  0.00    +0.000 A 
ATOM      7  C   UNL     1       4.169   4.684  18.489  0.00  0.00    +0.000 A 
ATOM      8  C   UNL     1       5.159   5.819  18.429  0.00  0.00    +0.000 C 
ATOM      9  C   UNL     1       4.483   3.549  17.726  0.00  0.00    +0.000 A 
ATOM     10  C   UNL     1       3.697   2.404  17.779  0.00  0.00    +0.000 A 
ATOM     11  C   UNL     1       2.589   2.377  18.619  0.00  0.00    +0.000 A 
ATOM     12  C   UNL     1       2.238   3.493  19.403  0.00  0.00    +0.000 A 
BRANCH  12  13
ATOM     13  C   UNL     1       1.013   3.348  20.280  0.00  0.00    +0.000 C 
ATOM     14  C   UNL     1       1.322   2.797  21.666  0.00  0.00    +0.000 C 
ENDBRANCH  12  13
ENDBRANCH   4   6
ENDBRANCH   1   2
BRANCH   1  15
ATOM     15  S   UNL     1       1.190   9.584  19.795  0.00  0.00    +0.000 S 
BRANCH  15  17
ATOM     16  N   UNL     1      -0.540  11.388  20.980  0.00  0.00    +0.000 N 
ATOM     17  C   UNL     1       0.342  10.337  21.110  0.00  0.00    +0.000 A 
ATOM     18  N   UNL     1       0.433   9.990  22.368  0.00  0.00    +0.000 NA
ATOM     19  N   UNL     1      -0.384  10.813  23.092  0.00  0.00    +0.000 NA
ATOM     20  C   UNL     1      -0.969  11.667  22.270  0.00  0.00    +0.000 A 
BRANCH  20  21
ATOM     21  C   UNL     1      -1.953  12.725  22.702  0.00  0.00    +0.000 C 
ATOM     22  C   UNL     1      -3.041  12.111  23.590  0.00  0.00    +0.000 C 
ATOM     23  C   UNL     1      -1.262  13.845  23.496  0.00  0.00    +0.000 C 
ENDBRANCH  20  21
BRANCH  16  24
ATOM     24  C   UNL     1      -0.856  12.115  19.766  0.00  0.00    +0.000 C 
BRANCH  24  26
ATOM     25  C   UNL     1      -0.539  14.664  19.542  0.00  0.00    +0.000 C 
ATOM     26  C   UNL     1       0.079  13.279  19.420  0.00  0.00    +0.000 C 
ENDBRANCH  24  26
ENDBRANCH  16  24
ENDBRANCH  15  17
ENDBRANCH   1  15
TORSDOF 8
ENDMDL
MODEL 7
REMARK VINA RESULT:      -6.2      2.696      4.320
REMARK  Name = 
REMARK  13 active torsions:
REMARK  status: ('A' for Active; 'I' for Inactive)
REMARK    1  A    between atoms: C_1  and  C_2
REMARK    2  A    between atoms: C_2  and  C_3
REMARK    3  A    between atoms: C_3  and  N_4
REMARK    4  A    between atoms: C_5  and  S_6
REMARK    5  A    between atoms: S_6  and  C_7
REMARK    6  A    between atoms: C_7  and  C_8
REMARK    7  A    between atoms: N_10  and  C_11
REMARK    8  A    between atoms: C_12  and  C_13
REMARK    9  A    between atoms: C_17  and  C_18
REMARK   10  A    between atoms: C_18  and  C_19
REMARK   11  A    between atoms: C_22  and  C_23
REMARK   12  A    between atoms: C_23  and  C_24
REMARK   13  A    between atoms: C_23  and  C_25
REMARK                            x       y       z     vdW  Elec       q    Type
REMARK                         _______ _______ _______ _____ _____    ______ ____
ROOT
ATOM      1  C   UNL     1       2.062   8.670  18.162  0.00  0.00    +0.000 C 
ENDROOT
BRANCH   1   2
ATOM      2  C   UNL     1       1.283   9.928  18.544  0.00  0.00    +0.000 C 
ATOM      3  O   UNL     1       1.720  11.048  18.283  0.00  0.00    +0.000 OA
ATOM      4  N   UNL     1       0.061   9.665  19.154  0.00  0.00    +0.000 N 
ATOM      5  H   UNL     1       0.044   8.781  19.649  0.00  0.00    +0.000 HD
BRANCH   4   6
ATOM      6  C   UNL     1      -0.838  10.664  19.606  0.00  0.00    +0.000 A 
ATOM      7  C   UNL     1      -1.841  11.203  18.763  0.00  0.00    +0.000 A 
ATOM      8  C   UNL     1      -2.130  10.717  17.366  0.00  0.00    +0.000 C 
ATOM      9  C   UNL     1      -2.683  12.215  19.253  0.00  0.00    +0.000 A 
ATOM     10  C   UNL     1      -2.575  12.672  20.560  0.00  0.00    +0.000 A 
ATOM     11  C   UNL     1      -1.627  12.104  21.405  0.00  0.00    +0.000 A 
ATOM     12  C   UNL     1      -0.764  11.086  20.955  0.00  0.00    +0.000 A 
BRANCH  12  13
ATOM     13  C   UNL     1       0.226  10.542  21.963  0.00  0.00    +0.000 C 
ATOM     14  C   UNL     1      -0.421   9.695  23.051  0.00  0.00    +0.000 C 
ENDBRANCH  12  13
ENDBRANCH   4   6
ENDBRANCH   1   2
BRANCH   1  15
ATOM     15  S   UNL     1       2.225   7.532  19.581  0.00  0.00    +0.000 S 
BRANCH  15  17
ATOM     16  N   UNL     1       2.699   4.879  18.959  0.00  0.00    +0.000 N 
ATOM     17  C   UNL     1       3.069   6.202  18.849  0.00  0.00    +0.000 A 
ATOM     18  N   UNL     1       4.140   6.302  18.105  0.00  0.00    +0.000 NA
ATOM     19  N   UNL     1       4.501   5.042  17.716  0.00  0.00    +0.000 NA
ATOM     20  C   UNL     1       3.648   4.174  18.230  0.00  0.00    +0.000 A 
BRANCH  20  21
ATOM     21  C   UNL     1       3.714   2.683  18.010  0.00  0.00    +0.000 C 
ATOM     22  C   UNL     1       4.262   1.984  19.259  0.00  0.00    +0.000 C 
ATOM     23  C   UNL     1       2.327   2.098  17.702  0.00  0.00    +0.000 C 
ENDBRANCH  20  21
BRANCH  16  24
ATOM     24  C   UNL     1       1.618   4.340  19.760  0.00  0.00    +0.000 C 
BRANCH  24  26
ATOM     25  C   UNL     1       1.604   2.635  21.694  0.00  0.00    +0.000 C 
ATOM     26  C   UNL     1       1.955   4.039  21.224  0.00  0.00    +0.000 C 
ENDBRANCH  24  26
ENDBRANCH  16  24
ENDBRANCH  15  17
ENDBRANCH   1  15
TORSDOF 8
ENDMDL
MODEL 8
REMARK VINA RESULT:      -6.1      3.226      7.773
REMARK  Name = 
REMARK  13 active torsions:
REMARK  status: ('A' for Active; 'I' for Inactive)
REMARK    1  A    between atoms: C_1  and  C_2
REMARK    2  A    between atoms: C_2  and  C_3
REMARK    3  A    between atoms: C_3  and  N_4
REMARK    4  A    between atoms: C_5  and  S_6
REMARK    5  A    between atoms: S_6  and  C_7
REMARK    6  A    between atoms: C_7  and  C_8
REMARK    7  A    between atoms: N_10  and  C_11
REMARK    8  A    between atoms: C_12  and  C_13
REMARK    9  A    between atoms: C_17  and  C_18
REMARK   10  A    between atoms: C_18  and  C_19
REMARK   11  A    between atoms: C_22  and  C_23
REMARK   12  A    between atoms: C_23  and  C_24
REMARK   13  A    between atoms: C_23  and  C_25
REMARK                            x       y       z     vdW  Elec       q    Type
REMARK                         _______ _______ _______ _____ _____    ______ ____
ROOT
ATOM      1  C   UNL     1       1.939   8.406  20.827  0.00  0.00    +0.000 C 
ENDROOT
BRANCH   1   2
ATOM      2  C   UNL     1       2.041   7.458  19.634  0.00  0.00    +0.000 C 
ATOM      3  O   UNL     1       1.704   7.819  18.507  0.00  0.00    +0.000 OA
ATOM      4  N   UNL     1       2.575   6.214  19.952  0.00  0.00    +0.000 N 
ATOM      5  H   UNL     1       2.411   5.944  20.915  0.00  0.00    +0.000 HD
BRANCH   4   6
ATOM      6  C   UNL     1       2.762   5.162  19.019  0.00  0.00    +0.000 A 
ATOM      7  C   UNL     1       3.773   5.215  18.027  0.00  0.00    +0.000 A 
ATOM      8  C   UNL     1       4.802   6.311  17.918  0.00  0.00    +0.000 C 
ATOM      9  C   UNL     1       3.892   4.161  17.108  0.00  0.00    +0.000 A 
ATOM     10  C   UNL     1       3.062   3.049  17.174  0.00  0.00    +0.000 A 
ATOM     11  C   UNL     1       2.107   2.971  18.183  0.00  0.00    +0.000 A 
ATOM     12  C   UNL     1       1.955   4.006  19.127  0.00  0.00    +0.000 A 
BRANCH  12  13
ATOM     13  C   UNL     1       0.884   3.811  20.179  0.00  0.00    +0.000 C 
ATOM     14  C   UNL     1       1.323   2.918  21.332  0.00  0.00    +0.000 C 
ENDBRANCH  12  13
ENDBRANCH   4   6
ENDBRANCH   1   2
BRANCH   1  15
ATOM     15  S   UNL     1       0.198   8.713  21.286  0.00  0.00    +0.000 S 
BRANCH  15  17
ATOM     16  N   UNL     1      -0.146  11.123  19.975  0.00  0.00    +0.000 N 
ATOM     17  C   UNL     1       0.113  10.441  21.144  0.00  0.00    +0.000 A 
ATOM     18  N   UNL     1       0.273  11.291  22.126  0.00  0.00    +0.000 NA
ATOM     19  N   UNL     1       0.129  12.552  21.617  0.00  0.00    +0.000 NA
ATOM     20  C   UNL     1      -0.114  12.467  20.321  0.00  0.00    +0.000 A 
BRANCH  20  21
ATOM     21  C   UNL     1      -0.342  13.654  19.419  0.00  0.00    +0.000 C 
ATOM     22  C   UNL     1      -1.077  14.766  20.176  0.00  0.00    +0.000 C 
ATOM     23  C   UNL     1       0.985  14.226  18.896  0.00  0.00    +0.000 C 
ENDBRANCH  20  21
BRANCH  16  24
ATOM     24  C   UNL     1      -0.301  10.555  18.650  0.00  0.00    +0.000 C 
BRANCH  24  26
ATOM     25  C   UNL     1      -2.305  11.324  17.220  0.00  0.00    +0.000 C 
ATOM     26  C   UNL     1      -1.742  10.300  18.196  0.00  0.00    +0.000 C 
ENDBRANCH  24  26
ENDBRANCH  16  24
ENDBRANCH  15  17
ENDBRANCH   1  15
TORSDOF 8
ENDMDL
MODEL 9
REMARK VINA RESULT:      -6.1      2.650      4.358
REMARK  Name = 
REMARK  13 active torsions:
REMARK  status: ('A' for Active; 'I' for Inactive)
REMARK    1  A    between atoms: C_1  and  C_2
REMARK    2  A    between atoms: C_2  and  C_3
REMARK    3  A    between atoms: C_3  and  N_4
REMARK    4  A    between atoms: C_5  and  S_6
REMARK    5  A    between atoms: S_6  and  C_7
REMARK    6  A    between atoms: C_7  and  C_8
REMARK    7  A    between atoms: N_10  and  C_11
REMARK    8  A    between atoms: C_12  and  C_13
REMARK    9  A    between atoms: C_17  and  C_18
REMARK   10  A    between atoms: C_18  and  C_19
REMARK   11  A    between atoms: C_22  and  C_23
REMARK   12  A    between atoms: C_23  and  C_24
REMARK   13  A    between atoms: C_23  and  C_25
REMARK                            x       y       z     vdW  Elec       q    Type
REMARK                         _______ _______ _______ _____ _____    ______ ____
ROOT
ATOM      1  C   UNL     1       1.710   8.921  18.007  0.00  0.00    +0.000 C 
ENDROOT
BRANCH   1   2
ATOM      2  C   UNL     1       1.233  10.006  18.972  0.00  0.00    +0.000 C 
ATOM      3  O   UNL     1       1.838  11.072  19.077  0.00  0.00    +0.000 OA
ATOM      4  N   UNL     1       0.065   9.676  19.650  0.00  0.00    +0.000 N 
ATOM      5  H   UNL     1      -0.059   8.677  19.769  0.00  0.00    +0.000 HD
BRANCH   4   6
ATOM      6  C   UNL     1      -0.569  10.514  20.603  0.00  0.00    +0.000 A 
ATOM      7  C   UNL     1      -0.377  10.338  21.996  0.00  0.00    +0.000 A 
ATOM      8  C   UNL     1       0.576   9.341  22.606  0.00  0.00    +0.000 C 
ATOM      9  C   UNL     1      -1.055  11.175  22.897  0.00  0.00    +0.000 A 
ATOM     10  C   UNL     1      -1.883  12.196  22.448  0.00  0.00    +0.000 A 
ATOM     11  C   UNL     1      -2.028  12.404  21.080  0.00  0.00    +0.000 A 
ATOM     12  C   UNL     1      -1.364  11.589  20.142  0.00  0.00    +0.000 A 
BRANCH  12  13
ATOM     13  C   UNL     1      -1.595  11.911  18.680  0.00  0.00    +0.000 C 
ATOM     14  C   UNL     1      -0.761  13.082  18.179  0.00  0.00    +0.000 C 
ENDBRANCH  12  13
ENDBRANCH   4   6
ENDBRANCH   1   2
BRANCH   1  15
ATOM     15  S   UNL     1       2.308   7.448  18.906  0.00  0.00    +0.000 S 
BRANCH  15  17
ATOM     16  N   UNL     1       3.910   5.540  17.705  0.00  0.00    +0.000 N 
ATOM     17  C   UNL     1       3.521   6.858  17.813  0.00  0.00    +0.000 A 
ATOM     18  N   UNL     1       4.196   7.589  16.964  0.00  0.00    +0.000 NA
ATOM     19  N   UNL     1       5.049   6.764  16.284  0.00  0.00    +0.000 NA
ATOM     20  C   UNL     1       4.895   5.529  16.726  0.00  0.00    +0.000 A 
BRANCH  20  21
ATOM     21  C   UNL     1       5.657   4.337  16.205  0.00  0.00    +0.000 C 
ATOM     22  C   UNL     1       5.578   4.281  14.675  0.00  0.00    +0.000 C 
ATOM     23  C   UNL     1       7.139   4.399  16.606  0.00  0.00    +0.000 C 
ENDBRANCH  20  21
BRANCH  16  24
ATOM     24  C   UNL     1       3.463   4.430  18.523  0.00  0.00    +0.000 C 
BRANCH  24  26
ATOM     25  C   UNL     1       2.775   2.068  17.751  0.00  0.00    +0.000 C 
ATOM     26  C   UNL     1       2.388   3.532  17.902  0.00  0.00    +0.000 C 
ENDBRANCH  24  26
ENDBRANCH  16  24
ENDBRANCH  15  17
ENDBRANCH   1  15
TORSDOF 8
ENDMDL
