MODEL 1
REMARK VINA RESULT:      -8.7      0.000      0.000
REMARK  Name = 
REMARK  4 active torsions:
REMARK  status: ('A' for Active; 'I' for Inactive)
REMARK    1  A    between atoms: C_2  and  C_5
REMARK    2  A    between atoms: N_3  and  O_4
REMARK    3  A    between atoms: C_9  and  O_10
REMARK    4  A    between atoms: O_10  and  C_11
REMARK                            x       y       z     vdW  Elec       q    Type
REMARK                         _______ _______ _______ _____ _____    ______ ____
ROOT
ATOM      1  C   UNL     1       6.560   4.469  16.224  0.00  0.00    +0.000 A 
ATOM      2  C   UNL     1       7.399   5.061  17.181  0.00  0.00    +0.000 A 
ATOM      3  C   UNL     1       7.025   4.948  18.532  0.00  0.00    +0.000 A 
ATOM      4  N   UNL     1       5.857   4.377  18.968  0.00  0.00    +0.000 NA
ATOM      5  C   UNL     1       5.099   3.818  18.029  0.00  0.00    +0.000 A 
ATOM      6  C   UNL     1       5.358   3.875  16.652  0.00  0.00    +0.000 A 
ENDROOT
BRANCH   1   8
ATOM      7  N   UNL     1       6.307   3.672  13.891  0.00  0.00    +0.000 N 
ATOM      8  C   UNL     1       6.888   4.562  14.758  0.00  0.00    +0.000 C 
ATOM      9  N   UNL     1       7.690   5.503  14.370  0.00  0.00    +0.000 NA
ATOM     10  H   UNL     1       6.498   3.975  12.948  0.00  0.00    +0.000 HD
ATOM     11  H   UNL     1       5.321   3.499  14.032  0.00  0.00    +0.000 HD
BRANCH   9  12
ATOM     12  O   UNL     1       7.877   5.447  12.959  0.00  0.00    +0.000 OA
ATOM     13  H   UNL     1       7.373   6.218  12.660  0.00  0.00    +0.000 HD
ENDBRANCH   9  12
ENDBRANCH   1   8
BRANCH   5  14
ATOM     14  O   UNL     1       3.788   3.409  18.343  0.00  0.00    +0.000 OA
BRANCH  14  15
ATOM     15  C   UNL     1       2.619   4.256  18.211  0.00  0.00    +0.000 A 
ATOM     16  C   UNL     1       1.555   3.350  18.360  0.00  0.00    +0.000 A 
ATOM     17  C   UNL     1       0.940   3.307  19.603  0.00  0.00    +0.000 A 
ATOM     18  C   UNL     1       1.041   4.413  20.448  0.00  0.00    +0.000 A 
ATOM     19  C   UNL     1       1.821   5.488  20.107  0.00  0.00    +0.000 A 
ATOM     20  C   UNL     1       1.783   6.694  20.808  0.00  0.00    +0.000 A 
ATOM     21  N   UNL     1       1.887   7.893  20.218  0.00  0.00    +0.000 NA
ATOM     22  C   UNL     1       2.078   7.856  18.876  0.00  0.00    +0.000 A 
ATOM     23  C   UNL     1       2.416   6.707  18.177  0.00  0.00    +0.000 A 
ATOM     24  C   UNL     1       2.460   5.480  18.852  0.00  0.00    +0.000 A 
ENDBRANCH  14  15
ENDBRANCH   5  14
TORSDOF 4
ENDMDL
MODEL 2
REMARK VINA RESULT:      -8.2      1.693      2.613
REMARK  Name = 
REMARK  4 active torsions:
REMARK  status: ('A' for Active; 'I' for Inactive)
REMARK    1  A    between atoms: C_2  and  C_5
REMARK    2  A    between atoms: N_3  and  O_4
REMARK    3  A    between atoms: C_9  and  O_10
REMARK    4  A    between atoms: O_10  and  C_11
REMARK                            x       y       z     vdW  Elec       q    Type
REMARK                         _______ _______ _______ _____ _____    ______ ____
ROOT
ATOM      1  C   UNL     1       6.426   4.913  16.062  0.00  0.00    +0.000 A 
ATOM      2  C   UNL     1       7.389   5.049  17.074  0.00  0.00    +0.000 A 
ATOM      3  C   UNL     1       6.930   5.286  18.382  0.00  0.00    +0.000 A 
ATOM      4  N   UNL     1       5.615   5.479  18.718  0.00  0.00    +0.000 NA
ATOM      5  C   UNL     1       4.736   5.329  17.731  0.00  0.00    +0.000 A 
ATOM      6  C   UNL     1       5.070   5.106  16.389  0.00  0.00    +0.000 A 
ENDROOT
BRANCH   1   8
ATOM      7  N   UNL     1       6.293   3.619  13.952  0.00  0.00    +0.000 N 
ATOM      8  C   UNL     1       6.843   4.673  14.636  0.00  0.00    +0.000 C 
ATOM      9  N   UNL     1       7.690   5.496  14.101  0.00  0.00    +0.000 NA
ATOM     10  H   UNL     1       6.547   3.702  12.980  0.00  0.00    +0.000 HD
ATOM     11  H   UNL     1       5.297   3.492  14.066  0.00  0.00    +0.000 HD
BRANCH   9  12
ATOM     12  O   UNL     1       7.959   5.125  12.752  0.00  0.00    +0.000 OA
ATOM     13  H   UNL     1       8.881   4.833  12.805  0.00  0.00    +0.000 HD
ENDBRANCH   9  12
ENDBRANCH   1   8
BRANCH   5  14
ATOM     14  O   UNL     1       3.397   5.723  17.924  0.00  0.00    +0.000 OA
BRANCH  14  15
ATOM     15  C   UNL     1       2.383   4.887  18.535  0.00  0.00    +0.000 A 
ATOM     16  C   UNL     1       1.862   4.174  17.440  0.00  0.00    +0.000 A 
ATOM     17  C   UNL     1       2.318   2.875  17.267  0.00  0.00    +0.000 A 
ATOM     18  C   UNL     1       2.845   2.190  18.363  0.00  0.00    +0.000 A 
ATOM     19  C   UNL     1       3.011   2.818  19.570  0.00  0.00    +0.000 A 
ATOM     20  C   UNL     1       3.326   2.124  20.739  0.00  0.00    +0.000 A 
ATOM     21  N   UNL     1       2.829   2.443  21.942  0.00  0.00    +0.000 NA
ATOM     22  C   UNL     1       2.019   3.529  21.957  0.00  0.00    +0.000 A 
ATOM     23  C   UNL     1       1.906   4.421  20.902  0.00  0.00    +0.000 A 
ATOM     24  C   UNL     1       2.569   4.149  19.698  0.00  0.00    +0.000 A 
ENDBRANCH  14  15
ENDBRANCH   5  14
TORSDOF 4
ENDMDL
MODEL 3
REMARK VINA RESULT:      -8.1      1.008      1.301
REMARK  Name = 
REMARK  4 active torsions:
REMARK  status: ('A' for Active; 'I' for Inactive)
REMARK    1  A    between atoms: C_2  and  C_5
REMARK    2  A    between atoms: N_3  and  O_4
REMARK    3  A    between atoms: C_9  and  O_10
REMARK    4  A    between atoms: O_10  and  C_11
REMARK                            x       y       z     vdW  Elec       q    Type
REMARK                         _______ _______ _______ _____ _____    ______ ____
ROOT
ATOM      1  C   UNL     1       6.689   4.785  16.749  0.00  0.00    +0.000 A 
ATOM      2  C   UNL     1       7.608   5.544  17.489  0.00  0.00    +0.000 A 
ATOM      3  C   UNL     1       7.371   5.689  18.868  0.00  0.00    +0.000 A 
ATOM      4  N   UNL     1       6.262   5.213  19.518  0.00  0.00    +0.000 NA
ATOM      5  C   UNL     1       5.425   4.488  18.781  0.00  0.00    +0.000 A 
ATOM      6  C   UNL     1       5.544   4.285  17.399  0.00  0.00    +0.000 A 
ENDROOT
BRANCH   1   8
ATOM      7  N   UNL     1       7.772   5.390  14.603  0.00  0.00    +0.000 N 
ATOM      8  C   UNL     1       6.869   4.599  15.266  0.00  0.00    +0.000 C 
ATOM      9  N   UNL     1       6.178   3.673  14.679  0.00  0.00    +0.000 NA
ATOM     10  H   UNL     1       7.888   5.027  13.669  0.00  0.00    +0.000 HD
ATOM     11  H   UNL     1       8.662   5.524  15.062  0.00  0.00    +0.000 HD
BRANCH   9  12
ATOM     12  O   UNL     1       6.482   3.631  13.288  0.00  0.00    +0.000 OA
ATOM     13  H   UNL     1       6.910   4.489  13.151  0.00  0.00    +0.000 HD
ENDBRANCH   9  12
ENDBRANCH   1   8
BRANCH   5  14
ATOM     14  O   UNL     1       4.158   4.149  19.296  0.00  0.00    +0.000 OA
BRANCH  14  15
ATOM     15  C   UNL     1       2.915   4.754  18.859  0.00  0.00    +0.000 A 
ATOM     16  C   UNL     1       1.941   3.888  19.388  0.00  0.00    +0.000 A 
ATOM     17  C   UNL     1       1.311   4.296  20.556  0.00  0.00    +0.000 A 
ATOM     18  C   UNL     1       1.290   5.654  20.876  0.00  0.00    +0.000 A 
ATOM     19  C   UNL     1       1.968   6.566  20.110  0.00  0.00    +0.000 A 
ATOM     20  C   UNL     1       1.800   7.943  20.262  0.00  0.00    +0.000 A 
ATOM     21  N   UNL     1       1.797   8.803  19.233  0.00  0.00    +0.000 NA
ATOM     22  C   UNL     1       2.014   8.243  18.018  0.00  0.00    +0.000 A 
ATOM     23  C   UNL     1       2.475   6.948  17.838  0.00  0.00    +0.000 A 
ATOM     24  C   UNL     1       2.626   6.110  18.951  0.00  0.00    +0.000 A 
ENDBRANCH  14  15
ENDBRANCH   5  14
TORSDOF 4
ENDMDL
MODEL 4
REMARK VINA RESULT:      -8.0      2.504      4.225
REMARK  Name = 
REMARK  4 active torsions:
REMARK  status: ('A' for Active; 'I' for Inactive)
REMARK    1  A    between atoms: C_2  and  C_5
REMARK    2  A    between atoms: N_3  and  O_4
REMARK    3  A    between atoms: C_9  and  O_10
REMARK    4  A    between atoms: O_10  and  C_11
REMARK                            x       y       z     vdW  Elec       q    Type
REMARK                         _______ _______ _______ _____ _____    ______ ____
ROOT
ATOM      1  C   UNL     1       6.175   3.827  12.682  0.00  0.00    +0.000 A 
ATOM      2  C   UNL     1       7.327   4.425  12.150  0.00  0.00    +0.000 A 
ATOM      3  C   UNL     1       8.108   5.215  13.014  0.00  0.00    +0.000 A 
ATOM      4  N   UNL     1       7.772   5.508  14.310  0.00  0.00    +0.000 NA
ATOM      5  C   UNL     1       6.680   4.909  14.777  0.00  0.00    +0.000 A 
ATOM      6  C   UNL     1       5.815   4.114  14.013  0.00  0.00    +0.000 A 
ENDROOT
BRANCH   1   8
ATOM      7  N   UNL     1       5.687   1.712  11.484  0.00  0.00    +0.000 N 
ATOM      8  C   UNL     1       5.282   2.980  11.814  0.00  0.00    +0.000 C 
ATOM      9  N   UNL     1       4.147   3.479  11.436  0.00  0.00    +0.000 NA
ATOM     10  H   UNL     1       4.913   1.234  11.050  0.00  0.00    +0.000 HD
ATOM     11  H   UNL     1       6.084   1.167  12.236  0.00  0.00    +0.000 HD
BRANCH   9  12
ATOM     12  O   UNL     1       3.433   2.541  10.636  0.00  0.00    +0.000 OA
ATOM     13  H   UNL     1       3.670   1.701  11.053  0.00  0.00    +0.000 HD
ENDBRANCH   9  12
ENDBRANCH   1   8
BRANCH   5  14
ATOM     14  O   UNL     1       6.134   5.317  16.009  0.00  0.00    +0.000 OA
BRANCH  14  15
ATOM     15  C   UNL     1       5.593   4.407  17.000  0.00  0.00    +0.000 A 
ATOM     16  C   UNL     1       6.507   4.519  18.063  0.00  0.00    +0.000 A 
ATOM     17  C   UNL     1       6.134   5.328  19.126  0.00  0.00    +0.000 A 
ATOM     18  C   UNL     1       4.779   5.587  19.338  0.00  0.00    +0.000 A 
ATOM     19  C   UNL     1       3.832   5.139  18.453  0.00  0.00    +0.000 A 
ATOM     20  C   UNL     1       2.466   5.184  18.732  0.00  0.00    +0.000 A 
ATOM     21  N   UNL     1       1.606   4.223  18.363  0.00  0.00    +0.000 NA
ATOM     22  C   UNL     1       2.153   3.209  17.650  0.00  0.00    +0.000 A 
ATOM     23  C   UNL     1       3.423   3.253  17.096  0.00  0.00    +0.000 A 
ATOM     24  C   UNL     1       4.253   4.350  17.365  0.00  0.00    +0.000 A 
ENDBRANCH  14  15
ENDBRANCH   5  14
TORSDOF 4
ENDMDL
MODEL 5
REMARK VINA RESULT:      -7.9      1.905      2.852
REMARK  Name = 
REMARK  4 active torsions:
REMARK  status: ('A' for Active; 'I' for Inactive)
REMARK    1  A    between atoms: C_2  and  C_5
REMARK    2  A    between atoms: N_3  and  O_4
REMARK    3  A    between atoms: C_9  and  O_10
REMARK    4  A    between atoms: O_10  and  C_11
REMARK                            x       y       z     vdW  Elec       q    Type
REMARK                         _______ _______ _______ _____ _____    ______ ____
ROOT
ATOM      1  C   UNL     1       6.174   5.019  15.800  0.00  0.00    +0.000 A 
ATOM      2  C   UNL     1       7.033   5.537  16.780  0.00  0.00    +0.000 A 
ATOM      3  C   UNL     1       6.489   5.802  18.050  0.00  0.00    +0.000 A 
ATOM      4  N   UNL     1       5.161   5.671  18.366  0.00  0.00    +0.000 NA
ATOM      5  C   UNL     1       4.385   5.165  17.411  0.00  0.00    +0.000 A 
ATOM      6  C   UNL     1       4.807   4.874  16.107  0.00  0.00    +0.000 A 
ENDROOT
BRANCH   1   8
ATOM      7  N   UNL     1       7.854   5.305  14.001  0.00  0.00    +0.000 N 
ATOM      8  C   UNL     1       6.682   4.724  14.415  0.00  0.00    +0.000 C 
ATOM      9  N   UNL     1       6.001   3.906  13.676  0.00  0.00    +0.000 NA
ATOM     10  H   UNL     1       8.131   4.877  13.131  0.00  0.00    +0.000 HD
ATOM     11  H   UNL     1       8.609   5.301  14.673  0.00  0.00    +0.000 HD
BRANCH   9  12
ATOM     12  O   UNL     1       6.632   3.736  12.409  0.00  0.00    +0.000 OA
ATOM     13  H   UNL     1       5.936   4.021  11.800  0.00  0.00    +0.000 HD
ENDBRANCH   9  12
ENDBRANCH   1   8
BRANCH   5  14
ATOM     14  O   UNL     1       2.985   5.202  17.559  0.00  0.00    +0.000 OA
BRANCH  14  15
ATOM     15  C   UNL     1       2.202   4.137  18.155  0.00  0.00    +0.000 A 
ATOM     16  C   UNL     1       2.249   3.126  17.178  0.00  0.00    +0.000 A 
ATOM     17  C   UNL     1       3.152   2.094  17.390  0.00  0.00    +0.000 A 
ATOM     18  C   UNL     1       3.591   1.834  18.689  0.00  0.00    +0.000 A 
ATOM     19  C   UNL     1       3.224   2.646  19.730  0.00  0.00    +0.000 A 
ATOM     20  C   UNL     1       3.456   2.307  21.064  0.00  0.00    +0.000 A 
ATOM     21  N   UNL     1       2.595   2.580  22.055  0.00  0.00    +0.000 NA
ATOM     22  C   UNL     1       1.485   3.259  21.677  0.00  0.00    +0.000 A 
ATOM     23  C   UNL     1       1.339   3.874  20.443  0.00  0.00    +0.000 A 
ATOM     24  C   UNL     1       2.334   3.707  19.470  0.00  0.00    +0.000 A 
ENDBRANCH  14  15
ENDBRANCH   5  14
TORSDOF 4
ENDMDL
MODEL 6
REMARK VINA RESULT:      -7.8      2.722      4.019
REMARK  Name = 
REMARK  4 active torsions:
REMARK  status: ('A' for Active; 'I' for Inactive)
REMARK    1  A    between atoms: C_2  and  C_5
REMARK    2  A    between atoms: N_3  and  O_4
REMARK    3  A    between atoms: C_9  and  O_10
REMARK    4  A    between atoms: O_10  and  C_11
REMARK                            x       y       z     vdW  Elec       q    Type
REMARK                         _______ _______ _______ _____ _____    ______ ____
ROOT
ATOM      1  C   UNL     1       6.404   5.381  18.034  0.00  0.00    +0.000 A 
ATOM      2  C   UNL     1       6.833   4.803  16.830  0.00  0.00    +0.000 A 
ATOM      3  C   UNL     1       5.858   4.534  15.852  0.00  0.00    +0.000 A 
ATOM      4  N   UNL     1       4.512   4.718  16.031  0.00  0.00    +0.000 NA
ATOM      5  C   UNL     1       4.150   5.280  17.181  0.00  0.00    +0.000 A 
ATOM      6  C   UNL     1       5.024   5.580  18.235  0.00  0.00    +0.000 A 
ENDROOT
BRANCH   1   8
ATOM      7  N   UNL     1       8.268   6.723  18.966  0.00  0.00    +0.000 N 
ATOM      8  C   UNL     1       7.389   5.683  19.131  0.00  0.00    +0.000 C 
ATOM      9  N   UNL     1       7.345   4.961  20.206  0.00  0.00    +0.000 NA
ATOM     10  H   UNL     1       8.731   6.891  19.846  0.00  0.00    +0.000 HD
ATOM     11  H   UNL     1       7.878   7.573  18.584  0.00  0.00    +0.000 HD
BRANCH   9  12
ATOM     12  O   UNL     1       8.334   5.392  21.137  0.00  0.00    +0.000 OA
ATOM     13  H   UNL     1       9.010   4.706  21.043  0.00  0.00    +0.000 HD
ENDBRANCH   9  12
ENDBRANCH   1   8
BRANCH   5  14
ATOM     14  O   UNL     1       2.791   5.303  17.549  0.00  0.00    +0.000 OA
BRANCH  14  15
ATOM     15  C   UNL     1       2.089   4.179  18.137  0.00  0.00    +0.000 A 
ATOM     16  C   UNL     1       2.203   3.184  17.150  0.00  0.00    +0.000 A 
ATOM     17  C   UNL     1       3.178   2.217  17.348  0.00  0.00    +0.000 A 
ATOM     18  C   UNL     1       3.641   1.976  18.642  0.00  0.00    +0.000 A 
ATOM     19  C   UNL     1       3.222   2.750  19.693  0.00  0.00    +0.000 A 
ATOM     20  C   UNL     1       3.484   2.414  21.022  0.00  0.00    +0.000 A 
ATOM     21  N   UNL     1       2.612   2.616  22.019  0.00  0.00    +0.000 NA
ATOM     22  C   UNL     1       1.454   3.218  21.654  0.00  0.00    +0.000 A 
ATOM     23  C   UNL     1       1.259   3.833  20.427  0.00  0.00    +0.000 A 
ATOM     24  C   UNL     1       2.258   3.747  19.448  0.00  0.00    +0.000 A 
ENDBRANCH  14  15
ENDBRANCH   5  14
TORSDOF 4
ENDMDL
MODEL 7
REMARK VINA RESULT:      -7.8      1.760      2.831
REMARK  Name = 
REMARK  4 active torsions:
REMARK  status: ('A' for Active; 'I' for Inactive)
REMARK    1  A    between atoms: C_2  and  C_5
REMARK    2  A    between atoms: N_3  and  O_4
REMARK    3  A    between atoms: C_9  and  O_10
REMARK    4  A    between atoms: O_10  and  C_11
REMARK                            x       y       z     vdW  Elec       q    Type
REMARK                         _______ _______ _______ _____ _____    ______ ____
ROOT
ATOM      1  C   UNL     1       6.490   4.889  16.656  0.00  0.00    +0.000 A 
ATOM      2  C   UNL     1       7.512   4.744  17.606  0.00  0.00    +0.000 A 
ATOM      3  C   UNL     1       7.202   5.043  18.945  0.00  0.00    +0.000 A 
ATOM      4  N   UNL     1       6.000   5.548  19.368  0.00  0.00    +0.000 NA
ATOM      5  C   UNL     1       5.057   5.656  18.437  0.00  0.00    +0.000 A 
ATOM      6  C   UNL     1       5.247   5.403  17.071  0.00  0.00    +0.000 A 
ENDROOT
BRANCH   1   8
ATOM      7  N   UNL     1       7.675   5.361  14.530  0.00  0.00    +0.000 N 
ATOM      8  C   UNL     1       6.751   4.601  15.202  0.00  0.00    +0.000 C 
ATOM      9  N   UNL     1       6.108   3.621  14.648  0.00  0.00    +0.000 NA
ATOM     10  H   UNL     1       7.847   4.934  13.633  0.00  0.00    +0.000 HD
ATOM     11  H   UNL     1       8.537   5.544  15.025  0.00  0.00    +0.000 HD
BRANCH   9  12
ATOM     12  O   UNL     1       6.486   3.486  13.281  0.00  0.00    +0.000 OA
ATOM     13  H   UNL     1       6.774   4.385  13.064  0.00  0.00    +0.000 HD
ENDBRANCH   9  12
ENDBRANCH   1   8
BRANCH   5  14
ATOM     14  O   UNL     1       3.874   6.367  18.722  0.00  0.00    +0.000 OA
BRANCH  14  15
ATOM     15  C   UNL     1       2.658   5.755  19.219  0.00  0.00    +0.000 A 
ATOM     16  C   UNL     1       1.800   5.807  18.106  0.00  0.00    +0.000 A 
ATOM     17  C   UNL     1       1.660   4.640  17.369  0.00  0.00    +0.000 A 
ATOM     18  C   UNL     1       1.944   3.416  17.978  0.00  0.00    +0.000 A 
ATOM     19  C   UNL     1       2.453   3.366  19.249  0.00  0.00    +0.000 A 
ATOM     20  C   UNL     1       2.547   2.177  19.973  0.00  0.00    +0.000 A 
ATOM     21  N   UNL     1       2.327   2.097  21.293  0.00  0.00    +0.000 NA
ATOM     22  C   UNL     1       2.045   3.277  21.898  0.00  0.00    +0.000 A 
ATOM     23  C   UNL     1       2.226   4.514  21.298  0.00  0.00    +0.000 A 
ATOM     24  C   UNL     1       2.616   4.575  19.953  0.00  0.00    +0.000 A 
ENDBRANCH  14  15
ENDBRANCH   5  14
TORSDOF 4
ENDMDL
MODEL 8
REMARK VINA RESULT:      -7.7      1.993      2.581
REMARK  Name = 
REMARK  4 active torsions:
REMARK  status: ('A' for Active; 'I' for Inactive)
REMARK    1  A    between atoms: C_2  and  C_5
REMARK    2  A    between atoms: N_3  and  O_4
REMARK    3  A    between atoms: C_9  and  O_10
REMARK    4  A    between atoms: O_10  and  C_11
REMARK                            x       y       z     vdW  Elec       q    Type
REMARK                         _______ _______ _______ _____ _____    ______ ____
ROOT
ATOM      1  C   UNL     1       6.798   5.845  17.189  0.00  0.00    +0.000 A 
ATOM      2  C   UNL     1       7.353   5.127  16.119  0.00  0.00    +0.000 A 
ATOM      3  C   UNL     1       6.570   4.109  15.543  0.00  0.00    +0.000 A 
ATOM      4  N   UNL     1       5.344   3.716  16.012  0.00  0.00    +0.000 NA
ATOM      5  C   UNL     1       4.851   4.432  17.019  0.00  0.00    +0.000 A 
ATOM      6  C   UNL     1       5.538   5.458  17.683  0.00  0.00    +0.000 A 
ENDROOT
BRANCH   1   8
ATOM      7  N   UNL     1       8.248   6.654  19.029  0.00  0.00    +0.000 N 
ATOM      8  C   UNL     1       7.582   6.938  17.864  0.00  0.00    +0.000 C 
ATOM      9  N   UNL     1       7.618   8.103  17.297  0.00  0.00    +0.000 NA
ATOM     10  H   UNL     1       8.847   7.435  19.252  0.00  0.00    +0.000 HD
ATOM     11  H   UNL     1       8.756   5.781  19.045  0.00  0.00    +0.000 HD
BRANCH   9  12
ATOM     12  O   UNL     1       8.410   9.006  18.064  0.00  0.00    +0.000 OA
ATOM     13  H   UNL     1       7.754   9.660  18.342  0.00  0.00    +0.000 HD
ENDBRANCH   9  12
ENDBRANCH   1   8
BRANCH   5  14
ATOM     14  O   UNL     1       3.713   3.972  17.710  0.00  0.00    +0.000 OA
BRANCH  14  15
ATOM     15  C   UNL     1       2.487   4.732  17.853  0.00  0.00    +0.000 A 
ATOM     16  C   UNL     1       1.518   3.732  18.052  0.00  0.00    +0.000 A 
ATOM     17  C   UNL     1       1.110   3.509  19.359  0.00  0.00    +0.000 A 
ATOM     18  C   UNL     1       1.272   4.525  20.302  0.00  0.00    +0.000 A 
ATOM     19  C   UNL     1       1.919   5.688  19.977  0.00  0.00    +0.000 A 
ATOM     20  C   UNL     1       1.915   6.807  20.811  0.00  0.00    +0.000 A 
ATOM     21  N   UNL     1       1.848   8.066  20.355  0.00  0.00    +0.000 NA
ATOM     22  C   UNL     1       1.829   8.186  19.005  0.00  0.00    +0.000 A 
ATOM     23  C   UNL     1       2.125   7.148  18.135  0.00  0.00    +0.000 A 
ATOM     24  C   UNL     1       2.352   5.864  18.648  0.00  0.00    +0.000 A 
ENDBRANCH  14  15
ENDBRANCH   5  14
TORSDOF 4
ENDMDL
MODEL 9
REMARK VINA RESULT:      -7.7      3.493      6.792
REMARK  Name = 
REMARK  4 active torsions:
REMARK  status: ('A' for Active; 'I' for Inactive)
REMARK    1  A    between atoms: C_2  and  C_5
REMARK    2  A    between atoms: N_3  and  O_4
REMARK    3  A    between atoms: C_9  and  O_10
REMARK    4  A    between atoms: O_10  and  C_11
REMARK                            x       y       z     vdW  Elec       q    Type
REMARK                         _______ _______ _______ _____ _____    ______ ____
ROOT
ATOM      1  C   UNL     1       1.205   8.851  20.241  0.00  0.00    +0.000 A 
ATOM      2  C   UNL     1       1.252   9.915  19.328  0.00  0.00    +0.000 A 
ATOM      3  C   UNL     1       1.819   9.665  18.065  0.00  0.00    +0.000 A 
ATOM      4  N   UNL     1       2.405   8.481  17.700  0.00  0.00    +0.000 NA
ATOM      5  C   UNL     1       2.326   7.496  18.591  0.00  0.00    +0.000 A 
ATOM      6  C   UNL     1       1.799   7.625  19.883  0.00  0.00    +0.000 A 
ENDROOT
BRANCH   1   8
ATOM      7  N   UNL     1      -0.632   8.571  21.881  0.00  0.00    +0.000 N 
ATOM      8  C   UNL     1       0.626   9.047  21.616  0.00  0.00    +0.000 C 
ATOM      9  N   UNL     1       1.358   9.638  22.508  0.00  0.00    +0.000 NA
ATOM     10  H   UNL     1      -0.795   8.634  22.874  0.00  0.00    +0.000 HD
ATOM     11  H   UNL     1      -0.835   7.645  21.530  0.00  0.00    +0.000 HD
BRANCH   9  12
ATOM     12  O   UNL     1       0.660   9.726  23.747  0.00  0.00    +0.000 OA
ATOM     13  H   UNL     1       0.307   8.830  23.842  0.00  0.00    +0.000 HD
ENDBRANCH   9  12
ENDBRANCH   1   8
BRANCH   5  14
ATOM     14  O   UNL     1       3.085   6.324  18.403  0.00  0.00    +0.000 OA
BRANCH  14  15
ATOM     15  C   UNL     1       2.531   4.985  18.422  0.00  0.00    +0.000 A 
ATOM     16  C   UNL     1       3.197   4.352  17.358  0.00  0.00    +0.000 A 
ATOM     17  C   UNL     1       4.264   3.529  17.690  0.00  0.00    +0.000 A 
ATOM     18  C   UNL     1       4.330   2.992  18.977  0.00  0.00    +0.000 A 
ATOM     19  C   UNL     1       3.419   3.351  19.935  0.00  0.00    +0.000 A 
ATOM     20  C   UNL     1       3.314   2.685  21.157  0.00  0.00    +0.000 A 
ATOM     21  N   UNL     1       2.146   2.451  21.771  0.00  0.00    +0.000 NA
ATOM     22  C   UNL     1       1.057   2.951  21.139  0.00  0.00    +0.000 A 
ATOM     23  C   UNL     1       1.121   3.862  20.096  0.00  0.00    +0.000 A 
ATOM     24  C   UNL     1       2.370   4.218  19.571  0.00  0.00    +0.000 A 
ENDBRANCH  14  15
ENDBRANCH   5  14
TORSDOF 4
ENDMDL
