MODEL 1
REMARK VINA RESULT:      -8.2      0.000      0.000
REMARK  Name = 
REMARK  7 active torsions:
REMARK  status: ('A' for Active; 'I' for Inactive)
REMARK    1  A    between atoms: C_2  and  C_3
REMARK    2  A    between atoms: C_3  and  O_4
REMARK    3  A    between atoms: O_4  and  C_5
REMARK    4  A    between atoms: C_5  and  C_7
REMARK    5  A    between atoms: N_12  and  C_13
REMARK    6  A    between atoms: C_17  and  S_18
REMARK    7  A    between atoms: S_18  and  N_21
REMARK                            x       y       z     vdW  Elec       q    Type
REMARK                         _______ _______ _______ _____ _____    ______ ____
ROOT
ATOM      1  C   UNL     1       2.484   7.230  18.802  0.00  0.00    +0.000 A 
ATOM      2  C   UNL     1       2.407   8.035  17.661  0.00  0.00    +0.000 A 
ATOM      3  C   UNL     1       1.817   9.303  17.712  0.00  0.00    +0.000 A 
ATOM      4  C   UNL     1       1.309   9.792  18.910  0.00  0.00    +0.000 A 
ATOM      5  C   UNL     1       1.388   9.001  20.057  0.00  0.00    +0.000 A 
ATOM      6  C   UNL     1       1.938   7.708  19.998  0.00  0.00    +0.000 A 
ENDROOT
BRANCH   1   9
ATOM      7  O   UNL     1       5.200   6.416  17.972  0.00  0.00    +0.000 OA
ATOM      8  C   UNL     1       4.347   5.622  18.363  0.00  0.00    +0.000 C 
ATOM      9  N   UNL     1       3.066   5.941  18.794  0.00  0.00    +0.000 N 
ATOM     10  H   UNL     1       2.529   5.193  19.221  0.00  0.00    +0.000 HD
BRANCH   8  11
ATOM     11  C   UNL     1       4.631   4.120  18.326  0.00  0.00    +0.000 C 
BRANCH  11  12
ATOM     12  O   UNL     1       5.160   3.576  19.531  0.00  0.00    +0.000 OA
BRANCH  12  13
ATOM     13  C   UNL     1       4.549   2.425  19.946  0.00  0.00    +0.000 C 
ATOM     14  O   UNL     1       5.152   1.446  20.365  0.00  0.00    +0.000 OA
BRANCH  13  15
ATOM     15  C   UNL     1       3.113   2.568  19.817  0.00  0.00    +0.000 A 
ATOM     16  C   UNL     1       2.279   2.189  18.778  0.00  0.00    +0.000 A 
ATOM     17  C   UNL     1       0.915   2.512  19.026  0.00  0.00    +0.000 A 
ATOM     18  C   UNL     1       0.744   3.120  20.248  0.00  0.00    +0.000 A 
ATOM     19  S   UNL     1       2.223   3.299  21.087  0.00  0.00    +0.000 S 
ENDBRANCH  13  15
ENDBRANCH  12  13
ENDBRANCH  11  12
ENDBRANCH   8  11
ENDBRANCH   1   9
BRANCH   5  20
ATOM     20  S   UNL     1       0.655   9.580  21.568  0.00  0.00    +0.000 S 
ATOM     21  O   UNL     1      -0.611   8.892  21.729  0.00  0.00    +0.000 OA
ATOM     22  O   UNL     1       1.649   9.525  22.620  0.00  0.00    +0.000 OA
BRANCH  20  23
ATOM     23  N   UNL     1       0.243  11.174  21.294  0.00  0.00    +0.000 N 
ATOM     24  C   UNL     1      -0.898  11.832  21.779  0.00  0.00    +0.000 C 
ATOM     25  N   UNL     1      -1.467  11.357  22.816  0.00  0.00    +0.000 NA
ATOM     26  C   UNL     1      -2.620  11.901  23.512  0.00  0.00    +0.000 C 
ATOM     27  C   UNL     1      -3.634  12.603  22.631  0.00  0.00    +0.000 C 
ATOM     28  C   UNL     1      -3.234  14.040  22.308  0.00  0.00    +0.000 C 
ATOM     29  C   UNL     1      -1.796  14.207  21.823  0.00  0.00    +0.000 C 
ATOM     30  C   UNL     1      -1.316  13.045  20.971  0.00  0.00    +0.000 C 
ATOM     31  H   UNL     1       0.802  11.575  20.546  0.00  0.00    +0.000 HD
ENDBRANCH  20  23
ENDBRANCH   5  20
TORSDOF 7
ENDMDL
MODEL 2
REMARK VINA RESULT:      -8.1      2.468      9.450
REMARK  Name = 
REMARK  7 active torsions:
REMARK  status: ('A' for Active; 'I' for Inactive)
REMARK    1  A    between atoms: C_2  and  C_3
REMARK    2  A    between atoms: C_3  and  O_4
REMARK    3  A    between atoms: O_4  and  C_5
REMARK    4  A    between atoms: C_5  and  C_7
REMARK    5  A    between atoms: N_12  and  C_13
REMARK    6  A    between atoms: C_17  and  S_18
REMARK    7  A    between atoms: S_18  and  N_21
REMARK                            x       y       z     vdW  Elec       q    Type
REMARK                         _______ _______ _______ _____ _____    ______ ____
ROOT
ATOM      1  C   UNL     1       1.803   7.947  20.281  0.00  0.00    +0.000 A 
ATOM      2  C   UNL     1       1.926   8.647  19.077  0.00  0.00    +0.000 A 
ATOM      3  C   UNL     1       2.236   7.984  17.885  0.00  0.00    +0.000 A 
ATOM      4  C   UNL     1       2.414   6.605  17.876  0.00  0.00    +0.000 A 
ATOM      5  C   UNL     1       2.286   5.894  19.070  0.00  0.00    +0.000 A 
ATOM      6  C   UNL     1       2.019   6.565  20.276  0.00  0.00    +0.000 A 
ENDROOT
BRANCH   1   9
ATOM      7  O   UNL     1      -0.785   8.113  21.696  0.00  0.00    +0.000 OA
ATOM      8  C   UNL     1       0.245   8.642  22.108  0.00  0.00    +0.000 C 
ATOM      9  N   UNL     1       1.496   8.578  21.509  0.00  0.00    +0.000 N 
ATOM     10  H   UNL     1       2.277   8.945  22.043  0.00  0.00    +0.000 HD
BRANCH   8  11
ATOM     11  C   UNL     1       0.200   9.532  23.351  0.00  0.00    +0.000 C 
BRANCH  11  12
ATOM     12  O   UNL     1      -0.799  10.546  23.331  0.00  0.00    +0.000 OA
BRANCH  12  13
ATOM     13  C   UNL     1      -0.609  11.505  22.374  0.00  0.00    +0.000 C 
ATOM     14  O   UNL     1       0.486  11.804  21.917  0.00  0.00    +0.000 OA
BRANCH  13  15
ATOM     15  C   UNL     1      -1.888  12.075  22.003  0.00  0.00    +0.000 A 
ATOM     16  C   UNL     1      -2.365  12.429  20.752  0.00  0.00    +0.000 A 
ATOM     17  C   UNL     1      -3.682  12.970  20.802  0.00  0.00    +0.000 A 
ATOM     18  C   UNL     1      -4.175  13.004  22.086  0.00  0.00    +0.000 A 
ATOM     19  S   UNL     1      -3.055  12.390  23.220  0.00  0.00    +0.000 S 
ENDBRANCH  13  15
ENDBRANCH  12  13
ENDBRANCH  11  12
ENDBRANCH   8  11
ENDBRANCH   1   9
BRANCH   5  20
ATOM     20  S   UNL     1       2.605   4.147  19.083  0.00  0.00    +0.000 S 
ATOM     21  O   UNL     1       3.628   3.899  20.080  0.00  0.00    +0.000 OA
ATOM     22  O   UNL     1       1.342   3.441  19.149  0.00  0.00    +0.000 OA
BRANCH  20  23
ATOM     23  N   UNL     1       3.339   3.806  17.623  0.00  0.00    +0.000 N 
ATOM     24  C   UNL     1       4.615   4.229  17.217  0.00  0.00    +0.000 C 
ATOM     25  N   UNL     1       5.458   4.541  18.120  0.00  0.00    +0.000 NA
ATOM     26  C   UNL     1       6.838   4.952  17.930  0.00  0.00    +0.000 C 
ATOM     27  C   UNL     1       7.108   5.740  16.663  0.00  0.00    +0.000 C 
ATOM     28  C   UNL     1       7.275   4.843  15.440  0.00  0.00    +0.000 C 
ATOM     29  C   UNL     1       6.186   3.786  15.271  0.00  0.00    +0.000 C 
ATOM     30  C   UNL     1       4.816   4.267  15.715  0.00  0.00    +0.000 C 
ATOM     31  H   UNL     1       2.672   3.433  16.954  0.00  0.00    +0.000 HD
ENDBRANCH  20  23
ENDBRANCH   5  20
TORSDOF 7
ENDMDL
MODEL 3
REMARK VINA RESULT:      -8.0      2.498      9.252
REMARK  Name = 
REMARK  7 active torsions:
REMARK  status: ('A' for Active; 'I' for Inactive)
REMARK    1  A    between atoms: C_2  and  C_3
REMARK    2  A    between atoms: C_3  and  O_4
REMARK    3  A    between atoms: O_4  and  C_5
REMARK    4  A    between atoms: C_5  and  C_7
REMARK    5  A    between atoms: N_12  and  C_13
REMARK    6  A    between atoms: C_17  and  S_18
REMARK    7  A    between atoms: S_18  and  N_21
REMARK                            x       y       z     vdW  Elec       q    Type
REMARK                         _______ _______ _______ _____ _____    ______ ____
ROOT
ATOM      1  C   UNL     1       1.643   8.091  20.314  0.00  0.00    +0.000 A 
ATOM      2  C   UNL     1       1.834   8.786  19.116  0.00  0.00    +0.000 A 
ATOM      3  C   UNL     1       2.216   8.118  17.948  0.00  0.00    +0.000 A 
ATOM      4  C   UNL     1       2.398   6.739  17.957  0.00  0.00    +0.000 A 
ATOM      5  C   UNL     1       2.202   6.034  19.145  0.00  0.00    +0.000 A 
ATOM      6  C   UNL     1       1.863   6.710  20.330  0.00  0.00    +0.000 A 
ENDROOT
BRANCH   1   9
ATOM      7  O   UNL     1      -0.983   8.108  21.666  0.00  0.00    +0.000 OA
ATOM      8  C   UNL     1      -0.003   8.718  22.087  0.00  0.00    +0.000 C 
ATOM      9  N   UNL     1       1.263   8.728  21.519  0.00  0.00    +0.000 N 
ATOM     10  H   UNL     1       2.003   9.162  22.061  0.00  0.00    +0.000 HD
BRANCH   8  11
ATOM     11  C   UNL     1      -0.141   9.631  23.307  0.00  0.00    +0.000 C 
BRANCH  11  12
ATOM     12  O   UNL     1      -0.042  11.024  23.031  0.00  0.00    +0.000 OA
BRANCH  12  13
ATOM     13  C   UNL     1      -1.167  11.570  22.476  0.00  0.00    +0.000 C 
ATOM     14  O   UNL     1      -2.220  11.723  23.080  0.00  0.00    +0.000 OA
BRANCH  13  15
ATOM     15  C   UNL     1      -0.896  11.934  21.100  0.00  0.00    +0.000 A 
ATOM     16  C   UNL     1       0.314  12.017  20.432  0.00  0.00    +0.000 A 
ATOM     17  C   UNL     1       0.163  12.421  19.074  0.00  0.00    +0.000 A 
ATOM     18  C   UNL     1      -1.156  12.626  18.743  0.00  0.00    +0.000 A 
ATOM     19  S   UNL     1      -2.201  12.334  20.062  0.00  0.00    +0.000 S 
ENDBRANCH  13  15
ENDBRANCH  12  13
ENDBRANCH  11  12
ENDBRANCH   8  11
ENDBRANCH   1   9
BRANCH   5  20
ATOM     20  S   UNL     1       2.524   4.288  19.186  0.00  0.00    +0.000 S 
ATOM     21  O   UNL     1       3.531   4.055  20.205  0.00  0.00    +0.000 OA
ATOM     22  O   UNL     1       1.262   3.580  19.239  0.00  0.00    +0.000 OA
BRANCH  20  23
ATOM     23  N   UNL     1       3.285   3.930  17.745  0.00  0.00    +0.000 N 
ATOM     24  C   UNL     1       4.573   4.338  17.361  0.00  0.00    +0.000 C 
ATOM     25  N   UNL     1       5.400   4.650  18.280  0.00  0.00    +0.000 NA
ATOM     26  C   UNL     1       6.787   5.047  18.115  0.00  0.00    +0.000 C 
ATOM     27  C   UNL     1       7.090   5.824  16.849  0.00  0.00    +0.000 C 
ATOM     28  C   UNL     1       7.274   4.917  15.636  0.00  0.00    +0.000 C 
ATOM     29  C   UNL     1       6.180   3.868  15.452  0.00  0.00    +0.000 C 
ATOM     30  C   UNL     1       4.805   4.365  15.863  0.00  0.00    +0.000 C 
ATOM     31  H   UNL     1       2.629   3.559  17.064  0.00  0.00    +0.000 HD
ENDBRANCH  20  23
ENDBRANCH   5  20
TORSDOF 7
ENDMDL
MODEL 4
REMARK VINA RESULT:      -8.0      2.030      2.755
REMARK  Name = 
REMARK  7 active torsions:
REMARK  status: ('A' for Active; 'I' for Inactive)
REMARK    1  A    between atoms: C_2  and  C_3
REMARK    2  A    between atoms: C_3  and  O_4
REMARK    3  A    between atoms: O_4  and  C_5
REMARK    4  A    between atoms: C_5  and  C_7
REMARK    5  A    between atoms: N_12  and  C_13
REMARK    6  A    between atoms: C_17  and  S_18
REMARK    7  A    between atoms: S_18  and  N_21
REMARK                            x       y       z     vdW  Elec       q    Type
REMARK                         _______ _______ _______ _____ _____    ______ ____
ROOT
ATOM      1  C   UNL     1       2.317   7.012  19.599  0.00  0.00    +0.000 A 
ATOM      2  C   UNL     1       2.580   7.349  18.268  0.00  0.00    +0.000 A 
ATOM      3  C   UNL     1       2.149   8.568  17.734  0.00  0.00    +0.000 A 
ATOM      4  C   UNL     1       1.459   9.477  18.529  0.00  0.00    +0.000 A 
ATOM      5  C   UNL     1       1.197   9.154  19.861  0.00  0.00    +0.000 A 
ATOM      6  C   UNL     1       1.590   7.911  20.387  0.00  0.00    +0.000 A 
ENDROOT
BRANCH   1   9
ATOM      7  O   UNL     1       0.701   4.636  20.283  0.00  0.00    +0.000 OA
ATOM      8  C   UNL     1       1.908   4.716  20.500  0.00  0.00    +0.000 C 
ATOM      9  N   UNL     1       2.729   5.788  20.178  0.00  0.00    +0.000 N 
ATOM     10  H   UNL     1       3.728   5.648  20.289  0.00  0.00    +0.000 HD
BRANCH   8  11
ATOM     11  C   UNL     1       2.622   3.597  21.260  0.00  0.00    +0.000 C 
BRANCH  11  12
ATOM     12  O   UNL     1       2.962   2.458  20.477  0.00  0.00    +0.000 OA
BRANCH  12  13
ATOM     13  C   UNL     1       4.271   2.414  20.085  0.00  0.00    +0.000 C 
ATOM     14  O   UNL     1       5.140   1.787  20.676  0.00  0.00    +0.000 OA
BRANCH  13  15
ATOM     15  C   UNL     1       4.440   3.203  18.881  0.00  0.00    +0.000 A 
ATOM     16  C   UNL     1       3.762   3.127  17.675  0.00  0.00    +0.000 A 
ATOM     17  C   UNL     1       4.230   4.079  16.724  0.00  0.00    +0.000 A 
ATOM     18  C   UNL     1       5.242   4.860  17.233  0.00  0.00    +0.000 A 
ATOM     19  S   UNL     1       5.624   4.442  18.846  0.00  0.00    +0.000 S 
ENDBRANCH  13  15
ENDBRANCH  12  13
ENDBRANCH  11  12
ENDBRANCH   8  11
ENDBRANCH   1   9
BRANCH   5  20
ATOM     20  S   UNL     1       0.235  10.268  20.854  0.00  0.00    +0.000 S 
ATOM     21  O   UNL     1      -0.984  10.560  20.124  0.00  0.00    +0.000 OA
ATOM     22  O   UNL     1       0.164   9.749  22.204  0.00  0.00    +0.000 OA
BRANCH  20  23
ATOM     23  N   UNL     1       1.077  11.709  20.871  0.00  0.00    +0.000 N 
ATOM     24  C   UNL     1       0.632  12.925  21.414  0.00  0.00    +0.000 C 
ATOM     25  N   UNL     1      -0.274  12.885  22.311  0.00  0.00    +0.000 NA
ATOM     26  C   UNL     1      -0.840  14.006  23.039  0.00  0.00    +0.000 C 
ATOM     27  C   UNL     1      -0.931  15.303  22.258  0.00  0.00    +0.000 C 
ATOM     28  C   UNL     1       0.390  16.067  22.238  0.00  0.00    +0.000 C 
ATOM     29  C   UNL     1       1.609  15.225  21.868  0.00  0.00    +0.000 C 
ATOM     30  C   UNL     1       1.301  14.156  20.835  0.00  0.00    +0.000 C 
ATOM     31  H   UNL     1       1.876  11.676  20.245  0.00  0.00    +0.000 HD
ENDBRANCH  20  23
ENDBRANCH   5  20
TORSDOF 7
ENDMDL
MODEL 5
REMARK VINA RESULT:      -8.0      6.059     10.104
REMARK  Name = 
REMARK  7 active torsions:
REMARK  status: ('A' for Active; 'I' for Inactive)
REMARK    1  A    between atoms: C_2  and  C_3
REMARK    2  A    between atoms: C_3  and  O_4
REMARK    3  A    between atoms: O_4  and  C_5
REMARK    4  A    between atoms: C_5  and  C_7
REMARK    5  A    between atoms: N_12  and  C_13
REMARK    6  A    between atoms: C_17  and  S_18
REMARK    7  A    between atoms: S_18  and  N_21
REMARK                            x       y       z     vdW  Elec       q    Type
REMARK                         _______ _______ _______ _____ _____    ______ ____
ROOT
ATOM      1  C   UNL     1       7.928   8.015  17.896  0.00  0.00    +0.000 A 
ATOM      2  C   UNL     1       8.421   7.304  18.995  0.00  0.00    +0.000 A 
ATOM      3  C   UNL     1       8.032   5.981  19.231  0.00  0.00    +0.000 A 
ATOM      4  C   UNL     1       7.155   5.342  18.361  0.00  0.00    +0.000 A 
ATOM      5  C   UNL     1       6.663   6.039  17.257  0.00  0.00    +0.000 A 
ATOM      6  C   UNL     1       7.017   7.383  17.044  0.00  0.00    +0.000 A 
ENDROOT
BRANCH   1   9
ATOM      7  O   UNL     1       9.304   9.965  19.637  0.00  0.00    +0.000 OA
ATOM      8  C   UNL     1       8.914  10.230  18.502  0.00  0.00    +0.000 C 
ATOM      9  N   UNL     1       8.290   9.355  17.624  0.00  0.00    +0.000 N 
ATOM     10  H   UNL     1       8.158   9.680  16.672  0.00  0.00    +0.000 HD
BRANCH   8  11
ATOM     11  C   UNL     1       9.030  11.660  17.972  0.00  0.00    +0.000 C 
BRANCH  11  12
ATOM     12  O   UNL     1       9.203  12.661  18.971  0.00  0.00    +0.000 OA
BRANCH  12  13
ATOM     13  C   UNL     1       9.141  13.943  18.501  0.00  0.00    +0.000 C 
ATOM     14  O   UNL     1      10.102  14.554  18.055  0.00  0.00    +0.000 OA
BRANCH  13  15
ATOM     15  C   UNL     1       7.780  14.429  18.610  0.00  0.00    +0.000 A 
ATOM     16  C   UNL     1       6.809  14.558  17.630  0.00  0.00    +0.000 A 
ATOM     17  C   UNL     1       5.588  15.088  18.136  0.00  0.00    +0.000 A 
ATOM     18  C   UNL     1       5.658  15.340  19.487  0.00  0.00    +0.000 A 
ATOM     19  S   UNL     1       7.188  14.941  20.135  0.00  0.00    +0.000 S 
ENDBRANCH  13  15
ENDBRANCH  12  13
ENDBRANCH  11  12
ENDBRANCH   8  11
ENDBRANCH   1   9
BRANCH   5  20
ATOM     20  S   UNL     1       5.470   5.261  16.197  0.00  0.00    +0.000 S 
ATOM     21  O   UNL     1       5.321   6.098  15.021  0.00  0.00    +0.000 OA
ATOM     22  O   UNL     1       5.814   3.862  16.052  0.00  0.00    +0.000 OA
BRANCH  20  23
ATOM     23  N   UNL     1       4.007   5.379  16.992  0.00  0.00    +0.000 N 
ATOM     24  C   UNL     1       3.406   4.383  17.778  0.00  0.00    +0.000 C 
ATOM     25  N   UNL     1       4.157   3.482  18.278  0.00  0.00    +0.000 NA
ATOM     26  C   UNL     1       3.760   2.395  19.156  0.00  0.00    +0.000 C 
ATOM     27  C   UNL     1       2.368   1.845  18.914  0.00  0.00    +0.000 C 
ATOM     28  C   UNL     1       1.282   2.689  19.574  0.00  0.00    +0.000 C 
ATOM     29  C   UNL     1       1.391   4.189  19.311  0.00  0.00    +0.000 C 
ATOM     30  C   UNL     1       1.903   4.513  17.919  0.00  0.00    +0.000 C 
ATOM     31  H   UNL     1       3.476   6.183  16.670  0.00  0.00    +0.000 HD
ENDBRANCH  20  23
ENDBRANCH   5  20
TORSDOF 7
ENDMDL
MODEL 6
REMARK VINA RESULT:      -8.0      2.658      3.437
REMARK  Name = 
REMARK  7 active torsions:
REMARK  status: ('A' for Active; 'I' for Inactive)
REMARK    1  A    between atoms: C_2  and  C_3
REMARK    2  A    between atoms: C_3  and  O_4
REMARK    3  A    between atoms: O_4  and  C_5
REMARK    4  A    between atoms: C_5  and  C_7
REMARK    5  A    between atoms: N_12  and  C_13
REMARK    6  A    between atoms: C_17  and  S_18
REMARK    7  A    between atoms: S_18  and  N_21
REMARK                            x       y       z     vdW  Elec       q    Type
REMARK                         _______ _______ _______ _____ _____    ______ ____
ROOT
ATOM      1  C   UNL     1       2.232   7.102  19.761  0.00  0.00    +0.000 A 
ATOM      2  C   UNL     1       2.424   7.280  18.387  0.00  0.00    +0.000 A 
ATOM      3  C   UNL     1       2.001   8.448  17.745  0.00  0.00    +0.000 A 
ATOM      4  C   UNL     1       1.393   9.466  18.471  0.00  0.00    +0.000 A 
ATOM      5  C   UNL     1       1.203   9.303  19.844  0.00  0.00    +0.000 A 
ATOM      6  C   UNL     1       1.586   8.110  20.483  0.00  0.00    +0.000 A 
ENDROOT
BRANCH   1   9
ATOM      7  O   UNL     1       0.752   4.583  20.192  0.00  0.00    +0.000 OA
ATOM      8  C   UNL     1       1.878   4.789  20.638  0.00  0.00    +0.000 C 
ATOM      9  N   UNL     1       2.639   5.934  20.448  0.00  0.00    +0.000 N 
ATOM     10  H   UNL     1       3.604   5.898  20.758  0.00  0.00    +0.000 HD
BRANCH   8  11
ATOM     11  C   UNL     1       2.533   3.758  21.560  0.00  0.00    +0.000 C 
BRANCH  11  12
ATOM     12  O   UNL     1       2.824   2.504  20.951  0.00  0.00    +0.000 OA
BRANCH  12  13
ATOM     13  C   UNL     1       4.117   2.369  20.529  0.00  0.00    +0.000 C 
ATOM     14  O   UNL     1       4.978   1.761  21.151  0.00  0.00    +0.000 OA
BRANCH  13  15
ATOM     15  C   UNL     1       4.280   3.039  19.254  0.00  0.00    +0.000 A 
ATOM     16  C   UNL     1       5.154   4.052  18.897  0.00  0.00    +0.000 A 
ATOM     17  C   UNL     1       5.000   4.452  17.538  0.00  0.00    +0.000 A 
ATOM     18  C   UNL     1       4.023   3.728  16.896  0.00  0.00    +0.000 A 
ATOM     19  S   UNL     1       3.296   2.576  17.928  0.00  0.00    +0.000 S 
ENDBRANCH  13  15
ENDBRANCH  12  13
ENDBRANCH  11  12
ENDBRANCH   8  11
ENDBRANCH   1   9
BRANCH   5  20
ATOM     20  S   UNL     1       0.341  10.557  20.760  0.00  0.00    +0.000 S 
ATOM     21  O   UNL     1      -1.060  10.183  20.798  0.00  0.00    +0.000 OA
ATOM     22  O   UNL     1       1.057  10.812  21.993  0.00  0.00    +0.000 OA
BRANCH  20  23
ATOM     23  N   UNL     1       0.391  11.930  19.812  0.00  0.00    +0.000 N 
ATOM     24  C   UNL     1       1.146  13.087  20.064  0.00  0.00    +0.000 C 
ATOM     25  N   UNL     1       2.172  12.980  20.814  0.00  0.00    +0.000 NA
ATOM     26  C   UNL     1       3.117  14.026  21.163  0.00  0.00    +0.000 C 
ATOM     27  C   UNL     1       2.528  15.418  21.273  0.00  0.00    +0.000 C 
ATOM     28  C   UNL     1       2.377  16.099  19.916  0.00  0.00    +0.000 C 
ATOM     29  C   UNL     1       1.705  15.243  18.844  0.00  0.00    +0.000 C 
ATOM     30  C   UNL     1       0.616  14.342  19.400  0.00  0.00    +0.000 C 
ATOM     31  H   UNL     1      -0.362  11.934  19.130  0.00  0.00    +0.000 HD
ENDBRANCH  20  23
ENDBRANCH   5  20
TORSDOF 7
ENDMDL
MODEL 7
REMARK VINA RESULT:      -8.0      6.450     10.511
REMARK  Name = 
REMARK  7 active torsions:
REMARK  status: ('A' for Active; 'I' for Inactive)
REMARK    1  A    between atoms: C_2  and  C_3
REMARK    2  A    between atoms: C_3  and  O_4
REMARK    3  A    between atoms: O_4  and  C_5
REMARK    4  A    between atoms: C_5  and  C_7
REMARK    5  A    between atoms: N_12  and  C_13
REMARK    6  A    between atoms: C_17  and  S_18
REMARK    7  A    between atoms: S_18  and  N_21
REMARK                            x       y       z     vdW  Elec       q    Type
REMARK                         _______ _______ _______ _____ _____    ______ ____
ROOT
ATOM      1  C   UNL     1       7.883   7.979  17.908  0.00  0.00    +0.000 A 
ATOM      2  C   UNL     1       8.407   7.260  18.988  0.00  0.00    +0.000 A 
ATOM      3  C   UNL     1       8.054   5.924  19.203  0.00  0.00    +0.000 A 
ATOM      4  C   UNL     1       7.183   5.279  18.331  0.00  0.00    +0.000 A 
ATOM      5  C   UNL     1       6.661   5.984  17.246  0.00  0.00    +0.000 A 
ATOM      6  C   UNL     1       6.978   7.340  17.054  0.00  0.00    +0.000 A 
ENDROOT
BRANCH   1   9
ATOM      7  O   UNL     1       9.378   9.882  19.602  0.00  0.00    +0.000 OA
ATOM      8  C   UNL     1       8.894  10.183  18.513  0.00  0.00    +0.000 C 
ATOM      9  N   UNL     1       8.208   9.332  17.657  0.00  0.00    +0.000 N 
ATOM     10  H   UNL     1       7.995   9.690  16.732  0.00  0.00    +0.000 HD
BRANCH   8  11
ATOM     11  C   UNL     1       8.951  11.633  18.030  0.00  0.00    +0.000 C 
BRANCH  11  12
ATOM     12  O   UNL     1       9.849  12.473  18.748  0.00  0.00    +0.000 OA
BRANCH  12  13
ATOM     13  C   UNL     1       9.238  13.422  19.519  0.00  0.00    +0.000 C 
ATOM     14  O   UNL     1       8.732  13.193  20.610  0.00  0.00    +0.000 OA
BRANCH  13  15
ATOM     15  C   UNL     1       9.304  14.704  18.847  0.00  0.00    +0.000 A 
ATOM     16  C   UNL     1      10.142  15.122  17.826  0.00  0.00    +0.000 A 
ATOM     17  C   UNL     1       9.900  16.471  17.437  0.00  0.00    +0.000 A 
ATOM     18  C   UNL     1       8.882  17.041  18.165  0.00  0.00    +0.000 A 
ATOM     19  S   UNL     1       8.225  15.954  19.309  0.00  0.00    +0.000 S 
ENDBRANCH  13  15
ENDBRANCH  12  13
ENDBRANCH  11  12
ENDBRANCH   8  11
ENDBRANCH   1   9
BRANCH   5  20
ATOM     20  S   UNL     1       5.475   5.196  16.185  0.00  0.00    +0.000 S 
ATOM     21  O   UNL     1       5.343   6.016  14.995  0.00  0.00    +0.000 OA
ATOM     22  O   UNL     1       5.813   3.794  16.064  0.00  0.00    +0.000 OA
BRANCH  20  23
ATOM     23  N   UNL     1       4.004   5.333  16.962  0.00  0.00    +0.000 N 
ATOM     24  C   UNL     1       3.390   4.352  17.757  0.00  0.00    +0.000 C 
ATOM     25  N   UNL     1       4.131   3.454  18.279  0.00  0.00    +0.000 NA
ATOM     26  C   UNL     1       3.719   2.383  19.168  0.00  0.00    +0.000 C 
ATOM     27  C   UNL     1       2.327   1.837  18.919  0.00  0.00    +0.000 C 
ATOM     28  C   UNL     1       1.238   2.695  19.556  0.00  0.00    +0.000 C 
ATOM     29  C   UNL     1       1.358   4.191  19.272  0.00  0.00    +0.000 C 
ATOM     30  C   UNL     1       1.886   4.491  17.880  0.00  0.00    +0.000 C 
ATOM     31  H   UNL     1       3.481   6.135  16.623  0.00  0.00    +0.000 HD
ENDBRANCH  20  23
ENDBRANCH   5  20
TORSDOF 7
ENDMDL
MODEL 8
REMARK VINA RESULT:      -7.9      3.090      9.310
REMARK  Name = 
REMARK  7 active torsions:
REMARK  status: ('A' for Active; 'I' for Inactive)
REMARK    1  A    between atoms: C_2  and  C_3
REMARK    2  A    between atoms: C_3  and  O_4
REMARK    3  A    between atoms: O_4  and  C_5
REMARK    4  A    between atoms: C_5  and  C_7
REMARK    5  A    between atoms: N_12  and  C_13
REMARK    6  A    between atoms: C_17  and  S_18
REMARK    7  A    between atoms: S_18  and  N_21
REMARK                            x       y       z     vdW  Elec       q    Type
REMARK                         _______ _______ _______ _____ _____    ______ ____
ROOT
ATOM      1  C   UNL     1       1.929   5.603  20.496  0.00  0.00    +0.000 A 
ATOM      2  C   UNL     1       0.688   4.959  20.473  0.00  0.00    +0.000 A 
ATOM      3  C   UNL     1       0.595   3.580  20.256  0.00  0.00    +0.000 A 
ATOM      4  C   UNL     1       1.746   2.820  20.074  0.00  0.00    +0.000 A 
ATOM      5  C   UNL     1       2.990   3.451  20.103  0.00  0.00    +0.000 A 
ATOM      6  C   UNL     1       3.082   4.843  20.275  0.00  0.00    +0.000 A 
ENDROOT
BRANCH   1   9
ATOM      7  O   UNL     1      -0.100   7.570  21.356  0.00  0.00    +0.000 OA
ATOM      8  C   UNL     1       1.060   7.871  21.086  0.00  0.00    +0.000 C 
ATOM      9  N   UNL     1       2.068   6.995  20.706  0.00  0.00    +0.000 N 
ATOM     10  H   UNL     1       3.008   7.374  20.656  0.00  0.00    +0.000 HD
BRANCH   8  11
ATOM     11  C   UNL     1       1.482   9.342  21.075  0.00  0.00    +0.000 C 
BRANCH  11  12
ATOM     12  O   UNL     1       1.092  10.072  19.917  0.00  0.00    +0.000 OA
BRANCH  12  13
ATOM     13  C   UNL     1       0.139  11.026  20.147  0.00  0.00    +0.000 C 
ATOM     14  O   UNL     1       0.175  11.815  21.082  0.00  0.00    +0.000 OA
BRANCH  13  15
ATOM     15  C   UNL     1      -0.878  10.948  19.118  0.00  0.00    +0.000 A 
ATOM     16  C   UNL     1      -0.946  10.125  18.007  0.00  0.00    +0.000 A 
ATOM     17  C   UNL     1      -2.112  10.359  17.223  0.00  0.00    +0.000 A 
ATOM     18  C   UNL     1      -2.904  11.347  17.762  0.00  0.00    +0.000 A 
ATOM     19  S   UNL     1      -2.241  11.985  19.202  0.00  0.00    +0.000 S 
ENDBRANCH  13  15
ENDBRANCH  12  13
ENDBRANCH  11  12
ENDBRANCH   8  11
ENDBRANCH   1   9
BRANCH   5  20
ATOM     20  S   UNL     1       4.455   2.503  19.776  0.00  0.00    +0.000 S 
ATOM     21  O   UNL     1       4.959   2.028  21.050  0.00  0.00    +0.000 OA
ATOM     22  O   UNL     1       4.176   1.562  18.711  0.00  0.00    +0.000 OA
BRANCH  20  23
ATOM     23  N   UNL     1       5.599   3.597  19.246  0.00  0.00    +0.000 N 
ATOM     24  C   UNL     1       5.799   4.013  17.920  0.00  0.00    +0.000 C 
ATOM     25  N   UNL     1       4.828   3.895  17.102  0.00  0.00    +0.000 NA
ATOM     26  C   UNL     1       4.797   4.304  15.709  0.00  0.00    +0.000 C 
ATOM     27  C   UNL     1       6.119   4.193  14.975  0.00  0.00    +0.000 C 
ATOM     28  C   UNL     1       7.036   5.384  15.236  0.00  0.00    +0.000 C 
ATOM     29  C   UNL     1       7.195   5.755  16.709  0.00  0.00    +0.000 C 
ATOM     30  C   UNL     1       7.188   4.548  17.631  0.00  0.00    +0.000 C 
ATOM     31  H   UNL     1       6.296   3.778  19.963  0.00  0.00    +0.000 HD
ENDBRANCH  20  23
ENDBRANCH   5  20
TORSDOF 7
ENDMDL
MODEL 9
REMARK VINA RESULT:      -7.9      2.645      9.819
REMARK  Name = 
REMARK  7 active torsions:
REMARK  status: ('A' for Active; 'I' for Inactive)
REMARK    1  A    between atoms: C_2  and  C_3
REMARK    2  A    between atoms: C_3  and  O_4
REMARK    3  A    between atoms: O_4  and  C_5
REMARK    4  A    between atoms: C_5  and  C_7
REMARK    5  A    between atoms: N_12  and  C_13
REMARK    6  A    between atoms: C_17  and  S_18
REMARK    7  A    between atoms: S_18  and  N_21
REMARK                            x       y       z     vdW  Elec       q    Type
REMARK                         _______ _______ _______ _____ _____    ______ ____
ROOT
ATOM      1  C   UNL     1       1.077   9.361  20.163  0.00  0.00    +0.000 A 
ATOM      2  C   UNL     1       1.316   9.905  18.897  0.00  0.00    +0.000 A 
ATOM      3  C   UNL     1       1.899   9.140  17.882  0.00  0.00    +0.000 A 
ATOM      4  C   UNL     1       2.238   7.811  18.112  0.00  0.00    +0.000 A 
ATOM      5  C   UNL     1       1.997   7.255  19.370  0.00  0.00    +0.000 A 
ATOM      6  C   UNL     1       1.454   8.036  20.405  0.00  0.00    +0.000 A 
ENDROOT
BRANCH   1   9
ATOM      7  O   UNL     1      -0.797   8.458  22.260  0.00  0.00    +0.000 OA
ATOM      8  C   UNL     1      -0.404   9.618  22.160  0.00  0.00    +0.000 C 
ATOM      9  N   UNL     1       0.496  10.101  21.220  0.00  0.00    +0.000 N 
ATOM     10  H   UNL     1       0.832  11.048  21.354  0.00  0.00    +0.000 HD
BRANCH   8  11
ATOM     11  C   UNL     1      -0.978  10.698  23.079  0.00  0.00    +0.000 C 
BRANCH  11  12
ATOM     12  O   UNL     1      -1.793  11.670  22.431  0.00  0.00    +0.000 OA
BRANCH  12  13
ATOM     13  C   UNL     1      -2.124  12.740  23.215  0.00  0.00    +0.000 C 
ATOM     14  O   UNL     1      -1.311  13.546  23.649  0.00  0.00    +0.000 OA
BRANCH  13  15
ATOM     15  C   UNL     1      -3.558  12.759  23.424  0.00  0.00    +0.000 A 
ATOM     16  C   UNL     1      -4.284  12.499  24.574  0.00  0.00    +0.000 A 
ATOM     17  C   UNL     1      -5.689  12.614  24.370  0.00  0.00    +0.000 A 
ATOM     18  C   UNL     1      -5.994  12.966  23.076  0.00  0.00    +0.000 A 
ATOM     19  S   UNL     1      -4.593  13.154  22.115  0.00  0.00    +0.000 S 
ENDBRANCH  13  15
ENDBRANCH  12  13
ENDBRANCH  11  12
ENDBRANCH   8  11
ENDBRANCH   1   9
BRANCH   5  20
ATOM     20  S   UNL     1       2.515   5.589  19.699  0.00  0.00    +0.000 S 
ATOM     21  O   UNL     1       2.183   5.295  21.081  0.00  0.00    +0.000 OA
ATOM     22  O   UNL     1       2.031   4.730  18.639  0.00  0.00    +0.000 OA
BRANCH  20  23
ATOM     23  N   UNL     1       4.184   5.612  19.657  0.00  0.00    +0.000 N 
ATOM     24  C   UNL     1       4.991   5.306  18.550  0.00  0.00    +0.000 C 
ATOM     25  N   UNL     1       4.477   5.408  17.387  0.00  0.00    +0.000 NA
ATOM     26  C   UNL     1       5.137   5.191  16.112  0.00  0.00    +0.000 C 
ATOM     27  C   UNL     1       6.218   4.128  16.118  0.00  0.00    +0.000 C 
ATOM     28  C   UNL     1       7.551   4.652  16.645  0.00  0.00    +0.000 C 
ATOM     29  C   UNL     1       7.458   5.423  17.960  0.00  0.00    +0.000 C 
ATOM     30  C   UNL     1       6.400   4.871  18.899  0.00  0.00    +0.000 C 
ATOM     31  H   UNL     1       4.575   5.663  20.593  0.00  0.00    +0.000 HD
ENDBRANCH  20  23
ENDBRANCH   5  20
TORSDOF 7
ENDMDL
