MODEL 1
REMARK VINA RESULT:      -6.1      0.000      0.000
REMARK  Name = 
REMARK  9 active torsions:
REMARK  status: ('A' for Active; 'I' for Inactive)
REMARK    1  A    between atoms: C_1  and  O_2
REMARK    2  A    between atoms: O_2  and  C_3
REMARK    3  A    between atoms: C_3  and  C_4
REMARK    4  A    between atoms: C_4  and  C_5
REMARK    5  A    between atoms: C_4  and  N_6
REMARK    6  A    between atoms: C_7  and  C_9
REMARK    7  A    between atoms: C_9  and  C_10
REMARK    8  A    between atoms: C_10  and  S_11
REMARK    9  A    between atoms: S_11  and  C_12
REMARK                            x       y       z     vdW  Elec       q    Type
REMARK                         _______ _______ _______ _____ _____    ______ ____
ROOT
ATOM      1  C   UNL     1       4.167   2.400  19.655  0.00  0.00    +0.000 C 
ENDROOT
BRANCH   1   3
ATOM      2  N   UNL     1       5.284   3.593  17.852  0.00  0.00    +0.000 N 
ATOM      3  C   UNL     1       4.845   3.662  19.158  0.00  0.00    +0.000 C 
ATOM      4  O   UNL     1       5.009   4.648  19.867  0.00  0.00    +0.000 OA
ATOM      5  H   UNL     1       5.239   2.709  17.361  0.00  0.00    +0.000 HD
BRANCH   2   6
ATOM      6  C   UNL     1       5.960   4.719  17.207  0.00  0.00    +0.000 C 
ATOM      7  C   UNL     1       5.399   4.924  15.799  0.00  0.00    +0.000 C 
BRANCH   6   8
ATOM      8  C   UNL     1       7.490   4.533  17.177  0.00  0.00    +0.000 C 
BRANCH   8  10
ATOM      9  C   UNL     1       7.953   6.116  18.873  0.00  0.00    +0.000 C 
ATOM     10  O   UNL     1       8.024   4.751  18.486  0.00  0.00    +0.000 OA
ENDBRANCH   8  10
ENDBRANCH   6   8
ENDBRANCH   2   6
ENDBRANCH   1   3
BRANCH   1  11
ATOM     11  C   UNL     1       3.278   1.826  18.556  0.00  0.00    +0.000 C 
BRANCH  11  12
ATOM     12  S   UNL     1       1.546   2.370  18.779  0.00  0.00    +0.000 S 
BRANCH  12  13
ATOM     13  C   UNL     1       1.730   4.113  19.150  0.00  0.00    +0.000 A 
ATOM     14  C   UNL     1       2.040   4.976  18.087  0.00  0.00    +0.000 A 
ATOM     15  C   UNL     1       2.180   6.351  18.298  0.00  0.00    +0.000 A 
ATOM     16  C   UNL     1       2.003   6.868  19.574  0.00  0.00    +0.000 A 
ATOM     17  F   UNL     1       2.136   8.185  19.779  0.00  0.00    +0.000 F 
ATOM     18  C   UNL     1       1.681   6.037  20.637  0.00  0.00    +0.000 A 
ATOM     19  C   UNL     1       1.540   4.661  20.425  0.00  0.00    +0.000 A 
ENDBRANCH  12  13
ENDBRANCH  11  12
ENDBRANCH   1  11
TORSDOF 7
ENDMDL
MODEL 2
REMARK VINA RESULT:      -5.9      4.144      5.426
REMARK  Name = 
REMARK  9 active torsions:
REMARK  status: ('A' for Active; 'I' for Inactive)
REMARK    1  A    between atoms: C_1  and  O_2
REMARK    2  A    between atoms: O_2  and  C_3
REMARK    3  A    between atoms: C_3  and  C_4
REMARK    4  A    between atoms: C_4  and  C_5
REMARK    5  A    between atoms: C_4  and  N_6
REMARK    6  A    between atoms: C_7  and  C_9
REMARK    7  A    between atoms: C_9  and  C_10
REMARK    8  A    between atoms: C_10  and  S_11
REMARK    9  A    between atoms: S_11  and  C_12
REMARK                            x       y       z     vdW  Elec       q    Type
REMARK                         _______ _______ _______ _____ _____    ______ ____
ROOT
ATOM      1  C   UNL     1       6.164   3.914  15.927  0.00  0.00    +0.000 C 
ENDROOT
BRANCH   1   3
ATOM      2  N   UNL     1       5.891   3.186  13.621  0.00  0.00    +0.000 N 
ATOM      3  C   UNL     1       6.346   4.192  14.448  0.00  0.00    +0.000 C 
ATOM      4  O   UNL     1       6.878   5.214  14.027  0.00  0.00    +0.000 OA
ATOM      5  H   UNL     1       5.584   2.312  14.028  0.00  0.00    +0.000 HD
BRANCH   2   6
ATOM      6  C   UNL     1       5.986   3.286  12.164  0.00  0.00    +0.000 C 
ATOM      7  C   UNL     1       4.585   3.323  11.553  0.00  0.00    +0.000 C 
BRANCH   6   8
ATOM      8  C   UNL     1       6.828   2.143  11.562  0.00  0.00    +0.000 C 
BRANCH   8  10
ATOM      9  C   UNL     1       6.206  -0.130  11.361  0.00  0.00    +0.000 C 
ATOM     10  O   UNL     1       5.966   1.199  10.921  0.00  0.00    +0.000 OA
ENDBRANCH   8  10
ENDBRANCH   6   8
ENDBRANCH   2   6
ENDBRANCH   1   3
BRANCH   1  11
ATOM     11  C   UNL     1       6.687   5.094  16.742  0.00  0.00    +0.000 C 
BRANCH  11  12
ATOM     12  S   UNL     1       5.300   6.049  17.455  0.00  0.00    +0.000 S 
BRANCH  12  13
ATOM     13  C   UNL     1       4.211   4.762  18.060  0.00  0.00    +0.000 A 
ATOM     14  C   UNL     1       4.675   3.959  19.115  0.00  0.00    +0.000 A 
ATOM     15  C   UNL     1       3.873   2.947  19.651  0.00  0.00    +0.000 A 
ATOM     16  C   UNL     1       2.600   2.741  19.139  0.00  0.00    +0.000 A 
ATOM     17  F   UNL     1       1.829   1.773  19.652  0.00  0.00    +0.000 F 
ATOM     18  C   UNL     1       2.113   3.531  18.108  0.00  0.00    +0.000 A 
ATOM     19  C   UNL     1       2.916   4.545  17.572  0.00  0.00    +0.000 A 
ENDBRANCH  12  13
ENDBRANCH  11  12
ENDBRANCH   1  11
TORSDOF 7
ENDMDL
MODEL 3
REMARK VINA RESULT:      -5.8      3.161      4.396
REMARK  Name = 
REMARK  9 active torsions:
REMARK  status: ('A' for Active; 'I' for Inactive)
REMARK    1  A    between atoms: C_1  and  O_2
REMARK    2  A    between atoms: O_2  and  C_3
REMARK    3  A    between atoms: C_3  and  C_4
REMARK    4  A    between atoms: C_4  and  C_5
REMARK    5  A    between atoms: C_4  and  N_6
REMARK    6  A    between atoms: C_7  and  C_9
REMARK    7  A    between atoms: C_9  and  C_10
REMARK    8  A    between atoms: C_10  and  S_11
REMARK    9  A    between atoms: S_11  and  C_12
REMARK                            x       y       z     vdW  Elec       q    Type
REMARK                         _______ _______ _______ _____ _____    ______ ____
ROOT
ATOM      1  C   UNL     1       4.963   6.758  16.687  0.00  0.00    +0.000 C 
ENDROOT
BRANCH   1   3
ATOM      2  N   UNL     1       5.943   5.541  14.822  0.00  0.00    +0.000 N 
ATOM      3  C   UNL     1       6.046   5.834  16.166  0.00  0.00    +0.000 C 
ATOM      4  O   UNL     1       6.922   5.369  16.886  0.00  0.00    +0.000 OA
ATOM      5  H   UNL     1       5.125   5.846  14.310  0.00  0.00    +0.000 HD
BRANCH   2   6
ATOM      6  C   UNL     1       6.903   4.665  14.149  0.00  0.00    +0.000 C 
ATOM      7  C   UNL     1       7.660   5.450  13.077  0.00  0.00    +0.000 C 
BRANCH   6   8
ATOM      8  C   UNL     1       6.225   3.416  13.553  0.00  0.00    +0.000 C 
BRANCH   8  10
ATOM      9  C   UNL     1       4.733   3.262  11.724  0.00  0.00    +0.000 C 
ATOM     10  O   UNL     1       6.050   3.591  12.145  0.00  0.00    +0.000 OA
ENDBRANCH   8  10
ENDBRANCH   6   8
ENDBRANCH   2   6
ENDBRANCH   1   3
BRANCH   1  11
ATOM     11  C   UNL     1       4.242   6.096  17.858  0.00  0.00    +0.000 C 
BRANCH  11  12
ATOM     12  S   UNL     1       3.699   4.408  17.411  0.00  0.00    +0.000 S 
BRANCH  12  13
ATOM     13  C   UNL     1       2.916   3.838  18.918  0.00  0.00    +0.000 A 
ATOM     14  C   UNL     1       1.560   4.153  19.105  0.00  0.00    +0.000 A 
ATOM     15  C   UNL     1       0.878   3.725  20.249  0.00  0.00    +0.000 A 
ATOM     16  C   UNL     1       1.549   2.975  21.205  0.00  0.00    +0.000 A 
ATOM     17  F   UNL     1       0.897   2.563  22.300  0.00  0.00    +0.000 F 
ATOM     18  C   UNL     1       2.883   2.638  21.034  0.00  0.00    +0.000 A 
ATOM     19  C   UNL     1       3.566   3.065  19.888  0.00  0.00    +0.000 A 
ENDBRANCH  12  13
ENDBRANCH  11  12
ENDBRANCH   1  11
TORSDOF 7
ENDMDL
MODEL 4
REMARK VINA RESULT:      -5.7      3.394      6.155
REMARK  Name = 
REMARK  9 active torsions:
REMARK  status: ('A' for Active; 'I' for Inactive)
REMARK    1  A    between atoms: C_1  and  O_2
REMARK    2  A    between atoms: O_2  and  C_3
REMARK    3  A    between atoms: C_3  and  C_4
REMARK    4  A    between atoms: C_4  and  C_5
REMARK    5  A    between atoms: C_4  and  N_6
REMARK    6  A    between atoms: C_7  and  C_9
REMARK    7  A    between atoms: C_9  and  C_10
REMARK    8  A    between atoms: C_10  and  S_11
REMARK    9  A    between atoms: S_11  and  C_12
REMARK                            x       y       z     vdW  Elec       q    Type
REMARK                         _______ _______ _______ _____ _____    ______ ____
ROOT
ATOM      1  C   UNL     1       6.544   5.410  19.396  0.00  0.00    +0.000 C 
ENDROOT
BRANCH   1   3
ATOM      2  N   UNL     1       4.114   5.300  19.459  0.00  0.00    +0.000 N 
ATOM      3  C   UNL     1       5.277   4.588  19.253  0.00  0.00    +0.000 C 
ATOM      4  O   UNL     1       5.291   3.389  19.001  0.00  0.00    +0.000 OA
ATOM      5  H   UNL     1       4.169   6.253  19.794  0.00  0.00    +0.000 HD
BRANCH   2   6
ATOM      6  C   UNL     1       2.797   4.668  19.361  0.00  0.00    +0.000 C 
ATOM      7  C   UNL     1       2.125   5.069  18.047  0.00  0.00    +0.000 C 
BRANCH   6   8
ATOM      8  C   UNL     1       1.904   5.005  20.571  0.00  0.00    +0.000 C 
BRANCH   8  10
ATOM      9  C   UNL     1       2.010   2.762  21.314  0.00  0.00    +0.000 C 
ATOM     10  O   UNL     1       2.214   4.126  21.655  0.00  0.00    +0.000 OA
ENDBRANCH   8  10
ENDBRANCH   6   8
ENDBRANCH   2   6
ENDBRANCH   1   3
BRANCH   1  11
ATOM     11  C   UNL     1       7.443   5.184  18.184  0.00  0.00    +0.000 C 
BRANCH  11  12
ATOM     12  S   UNL     1       7.075   6.405  16.872  0.00  0.00    +0.000 S 
BRANCH  12  13
ATOM     13  C   UNL     1       6.687   5.361  15.468  0.00  0.00    +0.000 A 
ATOM     14  C   UNL     1       5.503   4.609  15.524  0.00  0.00    +0.000 A 
ATOM     15  C   UNL     1       5.127   3.787  14.457  0.00  0.00    +0.000 A 
ATOM     16  C   UNL     1       5.931   3.722  13.327  0.00  0.00    +0.000 A 
ATOM     17  F   UNL     1       5.571   2.936  12.304  0.00  0.00    +0.000 F 
ATOM     18  C   UNL     1       7.096   4.468  13.243  0.00  0.00    +0.000 A 
ATOM     19  C   UNL     1       7.473   5.292  14.310  0.00  0.00    +0.000 A 
ENDBRANCH  12  13
ENDBRANCH  11  12
ENDBRANCH   1  11
TORSDOF 7
ENDMDL
MODEL 5
REMARK VINA RESULT:      -5.6      3.363      4.676
REMARK  Name = 
REMARK  9 active torsions:
REMARK  status: ('A' for Active; 'I' for Inactive)
REMARK    1  A    between atoms: C_1  and  O_2
REMARK    2  A    between atoms: O_2  and  C_3
REMARK    3  A    between atoms: C_3  and  C_4
REMARK    4  A    between atoms: C_4  and  C_5
REMARK    5  A    between atoms: C_4  and  N_6
REMARK    6  A    between atoms: C_7  and  C_9
REMARK    7  A    between atoms: C_9  and  C_10
REMARK    8  A    between atoms: C_10  and  S_11
REMARK    9  A    between atoms: S_11  and  C_12
REMARK                            x       y       z     vdW  Elec       q    Type
REMARK                         _______ _______ _______ _____ _____    ______ ____
ROOT
ATOM      1  C   UNL     1       5.579   6.191  16.441  0.00  0.00    +0.000 C 
ENDROOT
BRANCH   1   3
ATOM      2  N   UNL     1       6.220   5.192  14.317  0.00  0.00    +0.000 N 
ATOM      3  C   UNL     1       6.552   5.341  15.647  0.00  0.00    +0.000 C 
ATOM      4  O   UNL     1       7.533   4.810  16.155  0.00  0.00    +0.000 OA
ATOM      5  H   UNL     1       5.330   5.542  13.986  0.00  0.00    +0.000 HD
BRANCH   2   6
ATOM      6  C   UNL     1       7.047   4.405  13.401  0.00  0.00    +0.000 C 
ATOM      7  C   UNL     1       7.768   5.333  12.423  0.00  0.00    +0.000 C 
BRANCH   6   8
ATOM      8  C   UNL     1       6.223   3.338  12.654  0.00  0.00    +0.000 C 
BRANCH   8  10
ATOM      9  C   UNL     1       4.215   3.267  11.405  0.00  0.00    +0.000 C 
ATOM     10  O   UNL     1       4.857   3.756  12.574  0.00  0.00    +0.000 OA
ENDBRANCH   8  10
ENDBRANCH   6   8
ENDBRANCH   2   6
ENDBRANCH   1   3
BRANCH   1  11
ATOM     11  C   UNL     1       4.658   5.291  17.260  0.00  0.00    +0.000 C 
BRANCH  11  12
ATOM     12  S   UNL     1       5.326   5.049  18.946  0.00  0.00    +0.000 S 
BRANCH  12  13
ATOM     13  C   UNL     1       3.954   4.276  19.800  0.00  0.00    +0.000 A 
ATOM     14  C   UNL     1       2.847   5.080  20.115  0.00  0.00    +0.000 A 
ATOM     15  C   UNL     1       1.732   4.541  20.765  0.00  0.00    +0.000 A 
ATOM     16  C   UNL     1       1.719   3.192  21.094  0.00  0.00    +0.000 A 
ATOM     17  F   UNL     1       0.651   2.674  21.715  0.00  0.00    +0.000 F 
ATOM     18  C   UNL     1       2.794   2.375  20.779  0.00  0.00    +0.000 A 
ATOM     19  C   UNL     1       3.910   2.914  20.127  0.00  0.00    +0.000 A 
ENDBRANCH  12  13
ENDBRANCH  11  12
ENDBRANCH   1  11
TORSDOF 7
ENDMDL
MODEL 6
REMARK VINA RESULT:      -5.6      1.982      2.471
REMARK  Name = 
REMARK  9 active torsions:
REMARK  status: ('A' for Active; 'I' for Inactive)
REMARK    1  A    between atoms: C_1  and  O_2
REMARK    2  A    between atoms: O_2  and  C_3
REMARK    3  A    between atoms: C_3  and  C_4
REMARK    4  A    between atoms: C_4  and  C_5
REMARK    5  A    between atoms: C_4  and  N_6
REMARK    6  A    between atoms: C_7  and  C_9
REMARK    7  A    between atoms: C_9  and  C_10
REMARK    8  A    between atoms: C_10  and  S_11
REMARK    9  A    between atoms: S_11  and  C_12
REMARK                            x       y       z     vdW  Elec       q    Type
REMARK                         _______ _______ _______ _____ _____    ______ ____
ROOT
ATOM      1  C   UNL     1       3.386   2.957  18.403  0.00  0.00    +0.000 C 
ENDROOT
BRANCH   1   3
ATOM      2  N   UNL     1       5.499   4.115  18.061  0.00  0.00    +0.000 N 
ATOM      3  C   UNL     1       4.307   3.732  17.480  0.00  0.00    +0.000 C 
ATOM      4  O   UNL     1       4.004   4.014  16.327  0.00  0.00    +0.000 OA
ATOM      5  H   UNL     1       5.636   3.970  19.053  0.00  0.00    +0.000 HD
BRANCH   2   6
ATOM      6  C   UNL     1       6.509   4.870  17.318  0.00  0.00    +0.000 C 
ATOM      7  C   UNL     1       7.904   4.527  17.841  0.00  0.00    +0.000 C 
BRANCH   6   8
ATOM      8  C   UNL     1       6.249   6.389  17.372  0.00  0.00    +0.000 C 
BRANCH   8  10
ATOM      9  C   UNL     1       7.776   8.174  17.648  0.00  0.00    +0.000 C 
ATOM     10  O   UNL     1       7.372   7.087  16.827  0.00  0.00    +0.000 OA
ENDBRANCH   8  10
ENDBRANCH   6   8
ENDBRANCH   2   6
ENDBRANCH   1   3
BRANCH   1  11
ATOM     11  C   UNL     1       2.229   3.850  18.843  0.00  0.00    +0.000 C 
BRANCH  11  12
ATOM     12  S   UNL     1       2.734   4.918  20.239  0.00  0.00    +0.000 S 
BRANCH  12  13
ATOM     13  C   UNL     1       2.339   6.558  19.636  0.00  0.00    +0.000 A 
ATOM     14  C   UNL     1       2.632   6.847  18.294  0.00  0.00    +0.000 A 
ATOM     15  C   UNL     1       2.334   8.100  17.749  0.00  0.00    +0.000 A 
ATOM     16  C   UNL     1       1.733   9.066  18.544  0.00  0.00    +0.000 A 
ATOM     17  F   UNL     1       1.445  10.266  18.024  0.00  0.00    +0.000 F 
ATOM     18  C   UNL     1       1.419   8.798  19.868  0.00  0.00    +0.000 A 
ATOM     19  C   UNL     1       1.717   7.544  20.414  0.00  0.00    +0.000 A 
ENDBRANCH  12  13
ENDBRANCH  11  12
ENDBRANCH   1  11
TORSDOF 7
ENDMDL
MODEL 7
REMARK VINA RESULT:      -5.6      0.837      1.431
REMARK  Name = 
REMARK  9 active torsions:
REMARK  status: ('A' for Active; 'I' for Inactive)
REMARK    1  A    between atoms: C_1  and  O_2
REMARK    2  A    between atoms: O_2  and  C_3
REMARK    3  A    between atoms: C_3  and  C_4
REMARK    4  A    between atoms: C_4  and  C_5
REMARK    5  A    between atoms: C_4  and  N_6
REMARK    6  A    between atoms: C_7  and  C_9
REMARK    7  A    between atoms: C_9  and  C_10
REMARK    8  A    between atoms: C_10  and  S_11
REMARK    9  A    between atoms: S_11  and  C_12
REMARK                            x       y       z     vdW  Elec       q    Type
REMARK                         _______ _______ _______ _____ _____    ______ ____
ROOT
ATOM      1  C   UNL     1       3.817   1.964  17.805  0.00  0.00    +0.000 C 
ENDROOT
BRANCH   1   3
ATOM      2  N   UNL     1       4.884   3.991  16.984  0.00  0.00    +0.000 N 
ATOM      3  C   UNL     1       4.648   3.200  18.089  0.00  0.00    +0.000 C 
ATOM      4  O   UNL     1       5.094   3.456  19.202  0.00  0.00    +0.000 OA
ATOM      5  H   UNL     1       4.604   3.661  16.070  0.00  0.00    +0.000 HD
BRANCH   2   6
ATOM      6  C   UNL     1       5.667   5.224  17.073  0.00  0.00    +0.000 C 
ATOM      7  C   UNL     1       5.218   6.206  15.991  0.00  0.00    +0.000 C 
BRANCH   6   8
ATOM      8  C   UNL     1       7.182   4.952  16.987  0.00  0.00    +0.000 C 
BRANCH   8  10
ATOM      9  C   UNL     1       7.837   5.860  19.070  0.00  0.00    +0.000 C 
ATOM     10  O   UNL     1       7.896   5.994  17.657  0.00  0.00    +0.000 OA
ENDBRANCH   8  10
ENDBRANCH   6   8
ENDBRANCH   2   6
ENDBRANCH   1   3
BRANCH   1  11
ATOM     11  C   UNL     1       2.869   1.701  18.972  0.00  0.00    +0.000 C 
BRANCH  11  12
ATOM     12  S   UNL     1       1.237   2.467  18.662  0.00  0.00    +0.000 S 
BRANCH  12  13
ATOM     13  C   UNL     1       1.537   4.191  19.047  0.00  0.00    +0.000 A 
ATOM     14  C   UNL     1       1.457   4.581  20.393  0.00  0.00    +0.000 A 
ATOM     15  C   UNL     1       1.698   5.906  20.770  0.00  0.00    +0.000 A 
ATOM     16  C   UNL     1       2.028   6.843  19.801  0.00  0.00    +0.000 A 
ATOM     17  F   UNL     1       2.261   8.113  20.160  0.00  0.00    +0.000 F 
ATOM     18  C   UNL     1       2.129   6.479  18.467  0.00  0.00    +0.000 A 
ATOM     19  C   UNL     1       1.889   5.152  18.089  0.00  0.00    +0.000 A 
ENDBRANCH  12  13
ENDBRANCH  11  12
ENDBRANCH   1  11
TORSDOF 7
ENDMDL
MODEL 8
REMARK VINA RESULT:      -5.6      3.119      4.313
REMARK  Name = 
REMARK  9 active torsions:
REMARK  status: ('A' for Active; 'I' for Inactive)
REMARK    1  A    between atoms: C_1  and  O_2
REMARK    2  A    between atoms: O_2  and  C_3
REMARK    3  A    between atoms: C_3  and  C_4
REMARK    4  A    between atoms: C_4  and  C_5
REMARK    5  A    between atoms: C_4  and  N_6
REMARK    6  A    between atoms: C_7  and  C_9
REMARK    7  A    between atoms: C_9  and  C_10
REMARK    8  A    between atoms: C_10  and  S_11
REMARK    9  A    between atoms: S_11  and  C_12
REMARK                            x       y       z     vdW  Elec       q    Type
REMARK                         _______ _______ _______ _____ _____    ______ ____
ROOT
ATOM      1  C   UNL     1       5.277   6.413  17.669  0.00  0.00    +0.000 C 
ENDROOT
BRANCH   1   3
ATOM      2  N   UNL     1       6.204   5.621  15.564  0.00  0.00    +0.000 N 
ATOM      3  C   UNL     1       5.724   5.252  16.804  0.00  0.00    +0.000 C 
ATOM      4  O   UNL     1       5.640   4.084  17.167  0.00  0.00    +0.000 OA
ATOM      5  H   UNL     1       6.125   6.586  15.270  0.00  0.00    +0.000 HD
BRANCH   2   6
ATOM      6  C   UNL     1       6.681   4.631  14.597  0.00  0.00    +0.000 C 
ATOM      7  C   UNL     1       7.702   5.271  13.657  0.00  0.00    +0.000 C 
BRANCH   6   8
ATOM      8  C   UNL     1       5.521   3.991  13.809  0.00  0.00    +0.000 C 
BRANCH   8  10
ATOM      9  C   UNL     1       4.995   3.031  11.712  0.00  0.00    +0.000 C 
ATOM     10  O   UNL     1       6.029   3.375  12.622  0.00  0.00    +0.000 OA
ENDBRANCH   8  10
ENDBRANCH   6   8
ENDBRANCH   2   6
ENDBRANCH   1   3
BRANCH   1  11
ATOM     11  C   UNL     1       4.126   7.149  16.989  0.00  0.00    +0.000 C 
BRANCH  11  12
ATOM     12  S   UNL     1       2.809   7.543  18.196  0.00  0.00    +0.000 S 
BRANCH  12  13
ATOM     13  C   UNL     1       2.297   5.921  18.756  0.00  0.00    +0.000 A 
ATOM     14  C   UNL     1       2.195   5.712  20.140  0.00  0.00    +0.000 A 
ATOM     15  C   UNL     1       1.783   4.476  20.650  0.00  0.00    +0.000 A 
ATOM     16  C   UNL     1       1.463   3.448  19.774  0.00  0.00    +0.000 A 
ATOM     17  F   UNL     1       1.067   2.264  20.260  0.00  0.00    +0.000 F 
ATOM     18  C   UNL     1       1.541   3.636  18.402  0.00  0.00    +0.000 A 
ATOM     19  C   UNL     1       1.952   4.873  17.892  0.00  0.00    +0.000 A 
ENDBRANCH  12  13
ENDBRANCH  11  12
ENDBRANCH   1  11
TORSDOF 7
ENDMDL
MODEL 9
REMARK VINA RESULT:      -5.6      1.570      2.139
REMARK  Name = 
REMARK  9 active torsions:
REMARK  status: ('A' for Active; 'I' for Inactive)
REMARK    1  A    between atoms: C_1  and  O_2
REMARK    2  A    between atoms: O_2  and  C_3
REMARK    3  A    between atoms: C_3  and  C_4
REMARK    4  A    between atoms: C_4  and  C_5
REMARK    5  A    between atoms: C_4  and  N_6
REMARK    6  A    between atoms: C_7  and  C_9
REMARK    7  A    between atoms: C_9  and  C_10
REMARK    8  A    between atoms: C_10  and  S_11
REMARK    9  A    between atoms: S_11  and  C_12
REMARK                            x       y       z     vdW  Elec       q    Type
REMARK                         _______ _______ _______ _____ _____    ______ ____
ROOT
ATOM      1  C   UNL     1       4.583   3.694  19.339  0.00  0.00    +0.000 C 
ENDROOT
BRANCH   1   3
ATOM      2  N   UNL     1       5.899   4.671  17.541  0.00  0.00    +0.000 N 
ATOM      3  C   UNL     1       5.795   4.495  18.905  0.00  0.00    +0.000 C 
ATOM      4  O   UNL     1       6.624   4.924  19.700  0.00  0.00    +0.000 OA
ATOM      5  H   UNL     1       5.260   4.182  16.928  0.00  0.00    +0.000 HD
BRANCH   2   6
ATOM      6  C   UNL     1       7.006   5.420  16.944  0.00  0.00    +0.000 C 
ATOM      7  C   UNL     1       6.834   6.913  17.223  0.00  0.00    +0.000 C 
BRANCH   6   8
ATOM      8  C   UNL     1       7.139   5.145  15.433  0.00  0.00    +0.000 C 
BRANCH   8  10
ATOM      9  C   UNL     1       6.126   3.844  13.737  0.00  0.00    +0.000 C 
ATOM     10  O   UNL     1       6.484   3.915  15.110  0.00  0.00    +0.000 OA
ENDBRANCH   8  10
ENDBRANCH   6   8
ENDBRANCH   2   6
ENDBRANCH   1   3
BRANCH   1  11
ATOM     11  C   UNL     1       4.035   2.906  18.153  0.00  0.00    +0.000 C 
BRANCH  11  12
ATOM     12  S   UNL     1       2.380   3.522  17.678  0.00  0.00    +0.000 S 
BRANCH  12  13
ATOM     13  C   UNL     1       2.206   4.990  18.691  0.00  0.00    +0.000 A 
ATOM     14  C   UNL     1       2.531   6.225  18.108  0.00  0.00    +0.000 A 
ATOM     15  C   UNL     1       2.403   7.415  18.832  0.00  0.00    +0.000 A 
ATOM     16  C   UNL     1       1.940   7.371  20.140  0.00  0.00    +0.000 A 
ATOM     17  F   UNL     1       1.814   8.510  20.836  0.00  0.00    +0.000 F 
ATOM     18  C   UNL     1       1.597   6.165  20.732  0.00  0.00    +0.000 A 
ATOM     19  C   UNL     1       1.725   4.974  20.006  0.00  0.00    +0.000 A 
ENDBRANCH  12  13
ENDBRANCH  11  12
ENDBRANCH   1  11
TORSDOF 7
ENDMDL
