MODEL 1
REMARK VINA RESULT:      -8.3      0.000      0.000
REMARK  Name = 
REMARK  2 active torsions:
REMARK  status: ('A' for Active; 'I' for Inactive)
REMARK    1  A    between atoms: C_4  and  C_5
REMARK    2  A    between atoms: C_10  and  N_11
REMARK                            x       y       z     vdW  Elec       q    Type
REMARK                         _______ _______ _______ _____ _____    ______ ____
ROOT
ATOM      1  O   UNL     1       3.881   2.370  20.446  0.00  0.00    +0.000 OA
ATOM      2  C   UNL     1       3.781   3.404  19.802  0.00  0.00    +0.000 C 
ATOM      3  C   UNL     1       4.575   3.604  18.571  0.00  0.00    +0.000 C 
ATOM      4  C   UNL     1       4.507   4.732  17.843  0.00  0.00    +0.000 C 
ATOM      5  C   UNL     1       3.649   5.860  18.293  0.00  0.00    +0.000 A 
ATOM      6  C   UNL     1       3.621   7.066  17.570  0.00  0.00    +0.000 A 
ATOM      7  C   UNL     1       2.841   8.147  17.996  0.00  0.00    +0.000 A 
ATOM      8  C   UNL     1       2.075   8.041  19.152  0.00  0.00    +0.000 A 
ATOM      9  C   UNL     1       2.079   6.853  19.875  0.00  0.00    +0.000 A 
ATOM     10  C   UNL     1       2.860   5.769  19.447  0.00  0.00    +0.000 A 
ATOM     11  C   UNL     1       2.856   4.526  20.239  0.00  0.00    +0.000 C 
ATOM     12  O   UNL     1       2.145   4.399  21.225  0.00  0.00    +0.000 OA
ENDROOT
BRANCH   4  13
ATOM     13  C   UNL     1       5.343   4.764  16.617  0.00  0.00    +0.000 A 
ATOM     14  C   UNL     1       4.769   4.326  15.412  0.00  0.00    +0.000 A 
ATOM     15  C   UNL     1       5.544   4.209  14.252  0.00  0.00    +0.000 A 
ATOM     16  C   UNL     1       6.902   4.531  14.272  0.00  0.00    +0.000 A 
ATOM     17  C   UNL     1       7.491   4.988  15.450  0.00  0.00    +0.000 A 
ATOM     18  C   UNL     1       6.707   5.104  16.607  0.00  0.00    +0.000 A 
BRANCH  18  19
ATOM     19  N   UNL     1       7.367   5.555  17.818  0.00  0.00    +0.000 N 
ATOM     20  O   UNL     1       7.362   6.771  18.051  0.00  0.00    +0.000 OA
ATOM     21  O   UNL     1       7.907   4.687  18.518  0.00  0.00    +0.000 OA
ENDBRANCH  18  19
ENDBRANCH   4  13
TORSDOF 2
ENDMDL
MODEL 2
REMARK VINA RESULT:      -8.0      1.489      2.995
REMARK  Name = 
REMARK  2 active torsions:
REMARK  status: ('A' for Active; 'I' for Inactive)
REMARK    1  A    between atoms: C_4  and  C_5
REMARK    2  A    between atoms: C_10  and  N_11
REMARK                            x       y       z     vdW  Elec       q    Type
REMARK                         _______ _______ _______ _____ _____    ______ ____
ROOT
ATOM      1  O   UNL     1       2.130   8.540  18.696  0.00  0.00    +0.000 OA
ATOM      2  C   UNL     1       2.564   7.410  18.863  0.00  0.00    +0.000 C 
ATOM      3  C   UNL     1       3.547   6.834  17.920  0.00  0.00    +0.000 C 
ATOM      4  C   UNL     1       4.037   5.591  18.058  0.00  0.00    +0.000 C 
ATOM      5  C   UNL     1       3.556   4.717  19.159  0.00  0.00    +0.000 A 
ATOM      6  C   UNL     1       4.017   3.393  19.273  0.00  0.00    +0.000 A 
ATOM      7  C   UNL     1       3.552   2.549  20.287  0.00  0.00    +0.000 A 
ATOM      8  C   UNL     1       2.617   3.013  21.206  0.00  0.00    +0.000 A 
ATOM      9  C   UNL     1       2.156   4.322  21.119  0.00  0.00    +0.000 A 
ATOM     10  C   UNL     1       2.623   5.169  20.103  0.00  0.00    +0.000 A 
ATOM     11  C   UNL     1       2.109   6.547  20.026  0.00  0.00    +0.000 C 
ATOM     12  O   UNL     1       1.330   6.986  20.860  0.00  0.00    +0.000 OA
ENDROOT
BRANCH   4  13
ATOM     13  C   UNL     1       5.040   5.173  17.046  0.00  0.00    +0.000 A 
ATOM     14  C   UNL     1       4.578   4.574  15.863  0.00  0.00    +0.000 A 
ATOM     15  C   UNL     1       5.478   4.042  14.932  0.00  0.00    +0.000 A 
ATOM     16  C   UNL     1       6.853   4.103  15.162  0.00  0.00    +0.000 A 
ATOM     17  C   UNL     1       7.338   4.711  16.318  0.00  0.00    +0.000 A 
ATOM     18  C   UNL     1       6.430   5.243  17.244  0.00  0.00    +0.000 A 
BRANCH  18  19
ATOM     19  N   UNL     1       6.977   5.840  18.449  0.00  0.00    +0.000 N 
ATOM     20  O   UNL     1       7.416   6.994  18.363  0.00  0.00    +0.000 OA
ATOM     21  O   UNL     1       6.983   5.138  19.469  0.00  0.00    +0.000 OA
ENDBRANCH  18  19
ENDBRANCH   4  13
TORSDOF 2
ENDMDL
MODEL 3
REMARK VINA RESULT:      -7.8      1.411      2.967
REMARK  Name = 
REMARK  2 active torsions:
REMARK  status: ('A' for Active; 'I' for Inactive)
REMARK    1  A    between atoms: C_4  and  C_5
REMARK    2  A    between atoms: C_10  and  N_11
REMARK                            x       y       z     vdW  Elec       q    Type
REMARK                         _______ _______ _______ _____ _____    ______ ____
ROOT
ATOM      1  O   UNL     1       2.447   7.887  19.040  0.00  0.00    +0.000 OA
ATOM      2  C   UNL     1       2.768   6.730  18.814  0.00  0.00    +0.000 C 
ATOM      3  C   UNL     1       3.747   6.414  17.753  0.00  0.00    +0.000 C 
ATOM      4  C   UNL     1       4.114   5.155  17.460  0.00  0.00    +0.000 C 
ATOM      5  C   UNL     1       3.494   4.011  18.178  0.00  0.00    +0.000 A 
ATOM      6  C   UNL     1       3.827   2.688  17.836  0.00  0.00    +0.000 A 
ATOM      7  C   UNL     1       3.231   1.601  18.482  0.00  0.00    +0.000 A 
ATOM      8  C   UNL     1       2.290   1.815  19.484  0.00  0.00    +0.000 A 
ATOM      9  C   UNL     1       1.955   3.115  19.847  0.00  0.00    +0.000 A 
ATOM     10  C   UNL     1       2.554   4.206  19.199  0.00  0.00    +0.000 A 
ATOM     11  C   UNL     1       2.171   5.573  19.594  0.00  0.00    +0.000 C 
ATOM     12  O   UNL     1       1.388   5.777  20.511  0.00  0.00    +0.000 OA
ENDROOT
BRANCH   4  13
ATOM     13  C   UNL     1       5.132   5.008  16.389  0.00  0.00    +0.000 A 
ATOM     14  C   UNL     1       4.694   4.652  15.103  0.00  0.00    +0.000 A 
ATOM     15  C   UNL     1       5.614   4.371  14.086  0.00  0.00    +0.000 A 
ATOM     16  C   UNL     1       6.985   4.447  14.332  0.00  0.00    +0.000 A 
ATOM     17  C   UNL     1       7.446   4.818  15.594  0.00  0.00    +0.000 A 
ATOM     18  C   UNL     1       6.518   5.099  16.606  0.00  0.00    +0.000 A 
BRANCH  18  19
ATOM     19  N   UNL     1       7.041   5.453  17.913  0.00  0.00    +0.000 N 
ATOM     20  O   UNL     1       7.275   6.649  18.128  0.00  0.00    +0.000 OA
ATOM     21  O   UNL     1       7.236   4.524  18.709  0.00  0.00    +0.000 OA
ENDBRANCH  18  19
ENDBRANCH   4  13
TORSDOF 2
ENDMDL
MODEL 4
REMARK VINA RESULT:      -7.5      1.112      1.193
REMARK  Name = 
REMARK  2 active torsions:
REMARK  status: ('A' for Active; 'I' for Inactive)
REMARK    1  A    between atoms: C_4  and  C_5
REMARK    2  A    between atoms: C_10  and  N_11
REMARK                            x       y       z     vdW  Elec       q    Type
REMARK                         _______ _______ _______ _____ _____    ______ ____
ROOT
ATOM      1  O   UNL     1       3.377   1.343  18.605  0.00  0.00    +0.000 OA
ATOM      2  C   UNL     1       3.472   2.515  18.273  0.00  0.00    +0.000 C 
ATOM      3  C   UNL     1       4.383   2.915  17.179  0.00  0.00    +0.000 C 
ATOM      4  C   UNL     1       4.531   4.194  16.794  0.00  0.00    +0.000 C 
ATOM      5  C   UNL     1       3.804   5.277  17.507  0.00  0.00    +0.000 A 
ATOM      6  C   UNL     1       4.001   6.623  17.150  0.00  0.00    +0.000 A 
ATOM      7  C   UNL     1       3.347   7.655  17.831  0.00  0.00    +0.000 A 
ATOM      8  C   UNL     1       2.482   7.361  18.880  0.00  0.00    +0.000 A 
ATOM      9  C   UNL     1       2.264   6.036  19.241  0.00  0.00    +0.000 A 
ATOM     10  C   UNL     1       2.920   5.000  18.558  0.00  0.00    +0.000 A 
ATOM     11  C   UNL     1       2.680   3.606  18.970  0.00  0.00    +0.000 C 
ATOM     12  O   UNL     1       1.881   3.329  19.853  0.00  0.00    +0.000 OA
ENDROOT
BRANCH   4  13
ATOM     13  C   UNL     1       5.460   4.426  15.660  0.00  0.00    +0.000 A 
ATOM     14  C   UNL     1       5.029   4.078  14.369  0.00  0.00    +0.000 A 
ATOM     15  C   UNL     1       5.905   4.150  13.279  0.00  0.00    +0.000 A 
ATOM     16  C   UNL     1       7.222   4.577  13.456  0.00  0.00    +0.000 A 
ATOM     17  C   UNL     1       7.668   4.948  14.723  0.00  0.00    +0.000 A 
ATOM     18  C   UNL     1       6.784   4.874  15.809  0.00  0.00    +0.000 A 
BRANCH  18  19
ATOM     19  N   UNL     1       7.299   5.242  17.115  0.00  0.00    +0.000 N 
ATOM     20  O   UNL     1       7.538   6.439  17.317  0.00  0.00    +0.000 OA
ATOM     21  O   UNL     1       7.480   4.322  17.925  0.00  0.00    +0.000 OA
ENDBRANCH  18  19
ENDBRANCH   4  13
TORSDOF 2
ENDMDL
MODEL 5
REMARK VINA RESULT:      -7.4      2.628      5.449
REMARK  Name = 
REMARK  2 active torsions:
REMARK  status: ('A' for Active; 'I' for Inactive)
REMARK    1  A    between atoms: C_4  and  C_5
REMARK    2  A    between atoms: C_10  and  N_11
REMARK                            x       y       z     vdW  Elec       q    Type
REMARK                         _______ _______ _______ _____ _____    ______ ____
ROOT
ATOM      1  O   UNL     1       5.218   4.299  13.823  0.00  0.00    +0.000 OA
ATOM      2  C   UNL     1       5.389   4.430  15.026  0.00  0.00    +0.000 C 
ATOM      3  C   UNL     1       4.345   4.009  15.984  0.00  0.00    +0.000 C 
ATOM      4  C   UNL     1       4.485   4.152  17.313  0.00  0.00    +0.000 C 
ATOM      5  C   UNL     1       5.701   4.799  17.870  0.00  0.00    +0.000 A 
ATOM      6  C   UNL     1       5.827   5.007  19.255  0.00  0.00    +0.000 A 
ATOM      7  C   UNL     1       6.952   5.642  19.793  0.00  0.00    +0.000 A 
ATOM      8  C   UNL     1       7.973   6.078  18.955  0.00  0.00    +0.000 A 
ATOM      9  C   UNL     1       7.874   5.871  17.583  0.00  0.00    +0.000 A 
ATOM     10  C   UNL     1       6.746   5.235  17.044  0.00  0.00    +0.000 A 
ATOM     11  C   UNL     1       6.661   5.040  15.586  0.00  0.00    +0.000 C 
ATOM     12  O   UNL     1       7.575   5.367  14.843  0.00  0.00    +0.000 OA
ENDROOT
BRANCH   4  13
ATOM     13  C   UNL     1       3.360   3.649  18.141  0.00  0.00    +0.000 A 
ATOM     14  C   UNL     1       3.182   2.260  18.246  0.00  0.00    +0.000 A 
ATOM     15  C   UNL     1       2.066   1.729  18.902  0.00  0.00    +0.000 A 
ATOM     16  C   UNL     1       1.111   2.573  19.470  0.00  0.00    +0.000 A 
ATOM     17  C   UNL     1       1.273   3.955  19.398  0.00  0.00    +0.000 A 
ATOM     18  C   UNL     1       2.396   4.479  18.741  0.00  0.00    +0.000 A 
BRANCH  18  19
ATOM     19  N   UNL     1       2.511   5.923  18.664  0.00  0.00    +0.000 N 
ATOM     20  O   UNL     1       2.870   6.522  19.685  0.00  0.00    +0.000 OA
ATOM     21  O   UNL     1       2.218   6.452  17.582  0.00  0.00    +0.000 OA
ENDBRANCH  18  19
ENDBRANCH   4  13
TORSDOF 2
ENDMDL
MODEL 6
REMARK VINA RESULT:      -7.4      2.420      5.529
REMARK  Name = 
REMARK  2 active torsions:
REMARK  status: ('A' for Active; 'I' for Inactive)
REMARK    1  A    between atoms: C_4  and  C_5
REMARK    2  A    between atoms: C_10  and  N_11
REMARK                            x       y       z     vdW  Elec       q    Type
REMARK                         _______ _______ _______ _____ _____    ______ ____
ROOT
ATOM      1  O   UNL     1       5.017   4.018  14.136  0.00  0.00    +0.000 OA
ATOM      2  C   UNL     1       5.233   4.238  15.319  0.00  0.00    +0.000 C 
ATOM      3  C   UNL     1       4.169   4.043  16.327  0.00  0.00    +0.000 C 
ATOM      4  C   UNL     1       4.359   4.290  17.634  0.00  0.00    +0.000 C 
ATOM      5  C   UNL     1       5.660   4.827  18.111  0.00  0.00    +0.000 A 
ATOM      6  C   UNL     1       5.845   5.146  19.468  0.00  0.00    +0.000 A 
ATOM      7  C   UNL     1       7.054   5.680  19.927  0.00  0.00    +0.000 A 
ATOM      8  C   UNL     1       8.100   5.904  19.038  0.00  0.00    +0.000 A 
ATOM      9  C   UNL     1       7.942   5.584  17.694  0.00  0.00    +0.000 A 
ATOM     10  C   UNL     1       6.730   5.048  17.233  0.00  0.00    +0.000 A 
ATOM     11  C   UNL     1       6.585   4.731  15.802  0.00  0.00    +0.000 C 
ATOM     12  O   UNL     1       7.513   4.870  15.019  0.00  0.00    +0.000 OA
ENDROOT
BRANCH   4  13
ATOM     13  C   UNL     1       3.201   4.013  18.521  0.00  0.00    +0.000 A 
ATOM     14  C   UNL     1       2.217   5.006  18.655  0.00  0.00    +0.000 A 
ATOM     15  C   UNL     1       1.172   4.858  19.574  0.00  0.00    +0.000 A 
ATOM     16  C   UNL     1       1.087   3.715  20.371  0.00  0.00    +0.000 A 
ATOM     17  C   UNL     1       2.039   2.706  20.243  0.00  0.00    +0.000 A 
ATOM     18  C   UNL     1       3.081   2.861  19.318  0.00  0.00    +0.000 A 
BRANCH  18  19
ATOM     19  N   UNL     1       4.067   1.799  19.238  0.00  0.00    +0.000 N 
ATOM     20  O   UNL     1       3.928   0.960  18.340  0.00  0.00    +0.000 OA
ATOM     21  O   UNL     1       4.964   1.802  20.093  0.00  0.00    +0.000 OA
ENDBRANCH  18  19
ENDBRANCH   4  13
TORSDOF 2
ENDMDL
MODEL 7
REMARK VINA RESULT:      -7.1      2.327      5.277
REMARK  Name = 
REMARK  2 active torsions:
REMARK  status: ('A' for Active; 'I' for Inactive)
REMARK    1  A    between atoms: C_4  and  C_5
REMARK    2  A    between atoms: C_10  and  N_11
REMARK                            x       y       z     vdW  Elec       q    Type
REMARK                         _______ _______ _______ _____ _____    ______ ____
ROOT
ATOM      1  O   UNL     1       7.392   5.617  20.389  0.00  0.00    +0.000 OA
ATOM      2  C   UNL     1       6.785   5.320  19.370  0.00  0.00    +0.000 C 
ATOM      3  C   UNL     1       5.476   4.638  19.447  0.00  0.00    +0.000 C 
ATOM      4  C   UNL     1       4.784   4.278  18.352  0.00  0.00    +0.000 C 
ATOM      5  C   UNL     1       5.352   4.514  17.000  0.00  0.00    +0.000 A 
ATOM      6  C   UNL     1       4.662   4.084  15.852  0.00  0.00    +0.000 A 
ATOM      7  C   UNL     1       5.197   4.273  14.573  0.00  0.00    +0.000 A 
ATOM      8  C   UNL     1       6.431   4.896  14.418  0.00  0.00    +0.000 A 
ATOM      9  C   UNL     1       7.124   5.340  15.539  0.00  0.00    +0.000 A 
ATOM     10  C   UNL     1       6.587   5.151  16.822  0.00  0.00    +0.000 A 
ATOM     11  C   UNL     1       7.349   5.619  17.993  0.00  0.00    +0.000 C 
ATOM     12  O   UNL     1       8.408   6.218  17.869  0.00  0.00    +0.000 OA
ENDROOT
BRANCH   4  13
ATOM     13  C   UNL     1       3.471   3.631  18.599  0.00  0.00    +0.000 A 
ATOM     14  C   UNL     1       3.389   2.233  18.489  0.00  0.00    +0.000 A 
ATOM     15  C   UNL     1       2.155   1.580  18.581  0.00  0.00    +0.000 A 
ATOM     16  C   UNL     1       0.982   2.307  18.789  0.00  0.00    +0.000 A 
ATOM     17  C   UNL     1       1.038   3.693  18.923  0.00  0.00    +0.000 A 
ATOM     18  C   UNL     1       2.279   4.340  18.832  0.00  0.00    +0.000 A 
BRANCH  18  19
ATOM     19  N   UNL     1       2.288   5.786  18.947  0.00  0.00    +0.000 N 
ATOM     20  O   UNL     1       2.300   6.267  20.087  0.00  0.00    +0.000 OA
ATOM     21  O   UNL     1       2.260   6.433  17.890  0.00  0.00    +0.000 OA
ENDBRANCH  18  19
ENDBRANCH   4  13
TORSDOF 2
ENDMDL
MODEL 8
REMARK VINA RESULT:      -7.1      2.510      3.124
REMARK  Name = 
REMARK  2 active torsions:
REMARK  status: ('A' for Active; 'I' for Inactive)
REMARK    1  A    between atoms: C_4  and  C_5
REMARK    2  A    between atoms: C_10  and  N_11
REMARK                            x       y       z     vdW  Elec       q    Type
REMARK                         _______ _______ _______ _____ _____    ______ ____
ROOT
ATOM      1  O   UNL     1       3.855   0.968  18.196  0.00  0.00    +0.000 OA
ATOM      2  C   UNL     1       3.692   2.134  18.523  0.00  0.00    +0.000 C 
ATOM      3  C   UNL     1       4.786   3.117  18.374  0.00  0.00    +0.000 C 
ATOM      4  C   UNL     1       4.655   4.404  18.737  0.00  0.00    +0.000 C 
ATOM      5  C   UNL     1       3.393   4.878  19.362  0.00  0.00    +0.000 A 
ATOM      6  C   UNL     1       3.271   6.208  19.802  0.00  0.00    +0.000 A 
ATOM      7  C   UNL     1       2.100   6.662  20.419  0.00  0.00    +0.000 A 
ATOM      8  C   UNL     1       1.029   5.794  20.607  0.00  0.00    +0.000 A 
ATOM      9  C   UNL     1       1.125   4.478  20.169  0.00  0.00    +0.000 A 
ATOM     10  C   UNL     1       2.299   4.023  19.550  0.00  0.00    +0.000 A 
ATOM     11  C   UNL     1       2.378   2.620  19.107  0.00  0.00    +0.000 C 
ATOM     12  O   UNL     1       1.425   1.861  19.215  0.00  0.00    +0.000 OA
ENDROOT
BRANCH   4  13
ATOM     13  C   UNL     1       5.836   5.270  18.492  0.00  0.00    +0.000 A 
ATOM     14  C   UNL     1       6.867   5.270  19.446  0.00  0.00    +0.000 A 
ATOM     15  C   UNL     1       7.942   6.160  19.338  0.00  0.00    +0.000 A 
ATOM     16  C   UNL     1       8.010   7.061  18.274  0.00  0.00    +0.000 A 
ATOM     17  C   UNL     1       7.010   7.068  17.303  0.00  0.00    +0.000 A 
ATOM     18  C   UNL     1       5.938   6.172  17.419  0.00  0.00    +0.000 A 
BRANCH  18  19
ATOM     19  N   UNL     1       4.905   6.233  16.402  0.00  0.00    +0.000 N 
ATOM     20  O   UNL     1       5.005   5.460  15.441  0.00  0.00    +0.000 OA
ATOM     21  O   UNL     1       4.009   7.073  16.564  0.00  0.00    +0.000 OA
ENDBRANCH  18  19
ENDBRANCH   4  13
TORSDOF 2
ENDMDL
MODEL 9
REMARK VINA RESULT:      -7.0      2.138      5.466
REMARK  Name = 
REMARK  2 active torsions:
REMARK  status: ('A' for Active; 'I' for Inactive)
REMARK    1  A    between atoms: C_4  and  C_5
REMARK    2  A    between atoms: C_10  and  N_11
REMARK                            x       y       z     vdW  Elec       q    Type
REMARK                         _______ _______ _______ _____ _____    ______ ____
ROOT
ATOM      1  O   UNL     1       7.597   5.923  20.195  0.00  0.00    +0.000 OA
ATOM      2  C   UNL     1       6.826   5.546  19.325  0.00  0.00    +0.000 C 
ATOM      3  C   UNL     1       5.498   5.003  19.681  0.00  0.00    +0.000 C 
ATOM      4  C   UNL     1       4.628   4.561  18.758  0.00  0.00    +0.000 C 
ATOM      5  C   UNL     1       5.003   4.557  17.320  0.00  0.00    +0.000 A 
ATOM      6  C   UNL     1       4.122   4.039  16.354  0.00  0.00    +0.000 A 
ATOM      7  C   UNL     1       4.472   4.002  15.000  0.00  0.00    +0.000 A 
ATOM      8  C   UNL     1       5.710   4.483  14.587  0.00  0.00    +0.000 A 
ATOM      9  C   UNL     1       6.591   5.011  15.524  0.00  0.00    +0.000 A 
ATOM     10  C   UNL     1       6.240   5.049  16.882  0.00  0.00    +0.000 A 
ATOM     11  C   UNL     1       7.198   5.601  17.855  0.00  0.00    +0.000 C 
ATOM     12  O   UNL     1       8.266   6.079  17.499  0.00  0.00    +0.000 OA
ENDROOT
BRANCH   4  13
ATOM     13  C   UNL     1       3.323   4.077  19.276  0.00  0.00    +0.000 A 
ATOM     14  C   UNL     1       2.318   5.024  19.532  0.00  0.00    +0.000 A 
ATOM     15  C   UNL     1       1.117   4.646  20.142  0.00  0.00    +0.000 A 
ATOM     16  C   UNL     1       0.895   3.316  20.502  0.00  0.00    +0.000 A 
ATOM     17  C   UNL     1       1.867   2.352  20.240  0.00  0.00    +0.000 A 
ATOM     18  C   UNL     1       3.066   2.740  19.627  0.00  0.00    +0.000 A 
BRANCH  18  19
ATOM     19  N   UNL     1       4.063   1.710  19.399  0.00  0.00    +0.000 N 
ATOM     20  O   UNL     1       3.929   0.999  18.395  0.00  0.00    +0.000 OA
ATOM     21  O   UNL     1       4.965   1.606  20.243  0.00  0.00    +0.000 OA
ENDBRANCH  18  19
ENDBRANCH   4  13
TORSDOF 2
ENDMDL
