MODEL 1
REMARK VINA RESULT:      -7.9      0.000      0.000
REMARK  Name = 
REMARK  4 active torsions:
REMARK  status: ('A' for Active; 'I' for Inactive)
REMARK    1  A    between atoms: C_4  and  C_5
REMARK    2  A    between atoms: C_5  and  N_6
REMARK    3  A    between atoms: N_9  and  C_10
REMARK    4  A    between atoms: C_19  and  C_20
REMARK                            x       y       z     vdW  Elec       q    Type
REMARK                         _______ _______ _______ _____ _____    ______ ____
ROOT
ATOM      1  O   UNL     1       8.368   4.912  18.906  0.00  0.00    +0.000 OA
ATOM      2  C   UNL     1       7.323   4.959  18.257  0.00  0.00    +0.000 C 
ATOM      3  C   UNL     1       5.972   4.904  18.900  0.00  0.00    +0.000 C 
ATOM      4  C   UNL     1       4.813   5.266  17.978  0.00  0.00    +0.000 C 
ATOM      5  N   UNL     1       5.057   5.093  16.543  0.00  0.00    +0.000 NA
ATOM      6  C   UNL     1       6.244   4.904  16.103  0.00  0.00    +0.000 C 
ATOM      7  N   UNL     1       7.355   4.909  16.899  0.00  0.00    +0.000 N 
ATOM      8  H   UNL     1       8.283   4.870  16.503  0.00  0.00    +0.000 HD
ENDROOT
BRANCH   6   9
ATOM      9  C   UNL     1       6.482   4.677  14.656  0.00  0.00    +0.000 A 
ATOM     10  C   UNL     1       5.702   3.734  13.978  0.00  0.00    +0.000 A 
ATOM     11  C   UNL     1       5.939   3.474  12.627  0.00  0.00    +0.000 A 
ATOM     12  C   UNL     1       6.961   4.145  11.957  0.00  0.00    +0.000 A 
ATOM     13  C   UNL     1       7.751   5.075  12.631  0.00  0.00    +0.000 A 
ATOM     14  C   UNL     1       7.515   5.344  13.982  0.00  0.00    +0.000 A 
ENDBRANCH   6   9
BRANCH   4  15
ATOM     15  C   UNL     1       4.121   6.627  18.279  0.00  0.00    +0.000 C 
BRANCH  15  16
ATOM     16  N   UNL     1       2.650   6.675  18.278  0.00  0.00    +0.000 NA
ATOM     17  C   UNL     1       2.027   6.786  19.627  0.00  0.00    +0.000 C 
ATOM     18  C   UNL     1       1.752   8.199  20.263  0.00  0.00    +0.000 C 
ATOM     19  N   UNL     1       1.347   9.178  19.247  0.00  0.00    +0.000 N 
ATOM     20  C   UNL     1       2.214   9.178  18.069  0.00  0.00    +0.000 C 
ATOM     21  C   UNL     1       2.160   7.783  17.417  0.00  0.00    +0.000 C 
BRANCH  19  22
ATOM     22  C   UNL     1       0.235   9.994  19.321  0.00  0.00    +0.000 A 
ATOM     23  C   UNL     1      -0.060  10.764  20.455  0.00  0.00    +0.000 A 
ATOM     24  C   UNL     1      -1.144  11.661  20.481  0.00  0.00    +0.000 A 
ATOM     25  C   UNL     1      -1.977  11.792  19.375  0.00  0.00    +0.000 A 
ATOM     26  C   UNL     1      -1.737  11.015  18.253  0.00  0.00    +0.000 A 
ATOM     27  C   UNL     1      -0.650  10.130  18.235  0.00  0.00    +0.000 A 
ENDBRANCH  19  22
ENDBRANCH  15  16
ENDBRANCH   4  15
TORSDOF 4
ENDMDL
MODEL 2
REMARK VINA RESULT:      -7.8      2.163      8.465
REMARK  Name = 
REMARK  4 active torsions:
REMARK  status: ('A' for Active; 'I' for Inactive)
REMARK    1  A    between atoms: C_4  and  C_5
REMARK    2  A    between atoms: C_5  and  N_6
REMARK    3  A    between atoms: N_9  and  C_10
REMARK    4  A    between atoms: C_19  and  C_20
REMARK                            x       y       z     vdW  Elec       q    Type
REMARK                         _______ _______ _______ _____ _____    ______ ____
ROOT
ATOM      1  O   UNL     1       1.056   3.533  17.822  0.00  0.00    +0.000 OA
ATOM      2  C   UNL     1       1.805   4.254  18.483  0.00  0.00    +0.000 C 
ATOM      3  C   UNL     1       2.864   3.702  19.385  0.00  0.00    +0.000 C 
ATOM      4  C   UNL     1       3.872   4.730  19.888  0.00  0.00    +0.000 C 
ATOM      5  N   UNL     1       3.415   6.122  19.898  0.00  0.00    +0.000 NA
ATOM      6  C   UNL     1       2.346   6.462  19.281  0.00  0.00    +0.000 C 
ATOM      7  N   UNL     1       1.597   5.595  18.535  0.00  0.00    +0.000 N 
ATOM      8  H   UNL     1       0.825   5.922  17.972  0.00  0.00    +0.000 HD
ENDROOT
BRANCH   6   9
ATOM      9  C   UNL     1       1.858   7.862  19.337  0.00  0.00    +0.000 A 
ATOM     10  C   UNL     1       1.274   8.332  20.519  0.00  0.00    +0.000 A 
ATOM     11  C   UNL     1       0.769   9.632  20.578  0.00  0.00    +0.000 A 
ATOM     12  C   UNL     1       0.837  10.459  19.455  0.00  0.00    +0.000 A 
ATOM     13  C   UNL     1       1.405   9.990  18.272  0.00  0.00    +0.000 A 
ATOM     14  C   UNL     1       1.916   8.692  18.208  0.00  0.00    +0.000 A 
ENDBRANCH   6   9
BRANCH   4  15
ATOM     15  C   UNL     1       5.305   4.604  19.295  0.00  0.00    +0.000 C 
BRANCH  15  16
ATOM     16  N   UNL     1       5.684   5.505  18.195  0.00  0.00    +0.000 NA
ATOM     17  C   UNL     1       7.109   5.408  17.769  0.00  0.00    +0.000 C 
ATOM     18  C   UNL     1       7.539   4.387  16.653  0.00  0.00    +0.000 C 
ATOM     19  N   UNL     1       6.511   4.261  15.611  0.00  0.00    +0.000 N 
ATOM     20  C   UNL     1       5.165   4.071  16.150  0.00  0.00    +0.000 C 
ATOM     21  C   UNL     1       4.803   5.294  17.015  0.00  0.00    +0.000 C 
BRANCH  19  22
ATOM     22  C   UNL     1       6.733   4.367  14.252  0.00  0.00    +0.000 A 
ATOM     23  C   UNL     1       7.626   5.298  13.704  0.00  0.00    +0.000 A 
ATOM     24  C   UNL     1       7.911   5.331  12.327  0.00  0.00    +0.000 A 
ATOM     25  C   UNL     1       7.288   4.443  11.456  0.00  0.00    +0.000 A 
ATOM     26  C   UNL     1       6.369   3.537  11.961  0.00  0.00    +0.000 A 
ATOM     27  C   UNL     1       6.098   3.507  13.336  0.00  0.00    +0.000 A 
ENDBRANCH  19  22
ENDBRANCH  15  16
ENDBRANCH   4  15
TORSDOF 4
ENDMDL
MODEL 3
REMARK VINA RESULT:      -7.8      1.412      2.114
REMARK  Name = 
REMARK  4 active torsions:
REMARK  status: ('A' for Active; 'I' for Inactive)
REMARK    1  A    between atoms: C_4  and  C_5
REMARK    2  A    between atoms: C_5  and  N_6
REMARK    3  A    between atoms: N_9  and  C_10
REMARK    4  A    between atoms: C_19  and  C_20
REMARK                            x       y       z     vdW  Elec       q    Type
REMARK                         _______ _______ _______ _____ _____    ______ ____
ROOT
ATOM      1  O   UNL     1       7.802   7.892  17.395  0.00  0.00    +0.000 OA
ATOM      2  C   UNL     1       7.435   6.727  17.233  0.00  0.00    +0.000 C 
ATOM      3  C   UNL     1       7.416   5.726  18.346  0.00  0.00    +0.000 C 
ATOM      4  C   UNL     1       6.665   4.438  18.031  0.00  0.00    +0.000 C 
ATOM      5  N   UNL     1       6.537   4.101  16.610  0.00  0.00    +0.000 NA
ATOM      6  C   UNL     1       6.810   4.969  15.709  0.00  0.00    +0.000 C 
ATOM      7  N   UNL     1       7.172   6.258  15.985  0.00  0.00    +0.000 N 
ATOM      8  H   UNL     1       7.269   6.943  15.250  0.00  0.00    +0.000 HD
ENDROOT
BRANCH   6   9
ATOM      9  C   UNL     1       6.730   4.609  14.271  0.00  0.00    +0.000 A 
ATOM     10  C   UNL     1       5.747   3.707  13.849  0.00  0.00    +0.000 A 
ATOM     11  C   UNL     1       5.683   3.323  12.509  0.00  0.00    +0.000 A 
ATOM     12  C   UNL     1       6.606   3.828  11.593  0.00  0.00    +0.000 A 
ATOM     13  C   UNL     1       7.597   4.716  12.012  0.00  0.00    +0.000 A 
ATOM     14  C   UNL     1       7.662   5.109  13.351  0.00  0.00    +0.000 A 
ENDBRANCH   6   9
BRANCH   4  15
ATOM     15  C   UNL     1       5.317   4.250  18.785  0.00  0.00    +0.000 C 
BRANCH  15  16
ATOM     16  N   UNL     1       4.085   4.725  18.135  0.00  0.00    +0.000 NA
ATOM     17  C   UNL     1       2.845   4.559  18.945  0.00  0.00    +0.000 C 
ATOM     18  C   UNL     1       2.380   5.693  19.932  0.00  0.00    +0.000 C 
ATOM     19  N   UNL     1       2.660   7.029  19.388  0.00  0.00    +0.000 N 
ATOM     20  C   UNL     1       4.021   7.167  18.870  0.00  0.00    +0.000 C 
ATOM     21  C   UNL     1       4.220   6.149  17.730  0.00  0.00    +0.000 C 
BRANCH  19  22
ATOM     22  C   UNL     1       1.748   8.062  19.296  0.00  0.00    +0.000 A 
ATOM     23  C   UNL     1       1.068   8.567  20.413  0.00  0.00    +0.000 A 
ATOM     24  C   UNL     1       0.212   9.681  20.319  0.00  0.00    +0.000 A 
ATOM     25  C   UNL     1      -0.002  10.304  19.094  0.00  0.00    +0.000 A 
ATOM     26  C   UNL     1       0.624   9.803  17.964  0.00  0.00    +0.000 A 
ATOM     27  C   UNL     1       1.481   8.698  18.070  0.00  0.00    +0.000 A 
ENDBRANCH  19  22
ENDBRANCH  15  16
ENDBRANCH   4  15
TORSDOF 4
ENDMDL
MODEL 4
REMARK VINA RESULT:      -7.7      0.279      1.361
REMARK  Name = 
REMARK  4 active torsions:
REMARK  status: ('A' for Active; 'I' for Inactive)
REMARK    1  A    between atoms: C_4  and  C_5
REMARK    2  A    between atoms: C_5  and  N_6
REMARK    3  A    between atoms: N_9  and  C_10
REMARK    4  A    between atoms: C_19  and  C_20
REMARK                            x       y       z     vdW  Elec       q    Type
REMARK                         _______ _______ _______ _____ _____    ______ ____
ROOT
ATOM      1  O   UNL     1       8.105   4.885  19.027  0.00  0.00    +0.000 OA
ATOM      2  C   UNL     1       7.103   4.950  18.315  0.00  0.00    +0.000 C 
ATOM      3  C   UNL     1       5.715   4.980  18.877  0.00  0.00    +0.000 C 
ATOM      4  C   UNL     1       4.629   5.354  17.874  0.00  0.00    +0.000 C 
ATOM      5  N   UNL     1       4.949   5.111  16.464  0.00  0.00    +0.000 NA
ATOM      6  C   UNL     1       6.150   4.854  16.103  0.00  0.00    +0.000 C 
ATOM      7  N   UNL     1       7.212   4.844  16.965  0.00  0.00    +0.000 N 
ATOM      8  H   UNL     1       8.158   4.749  16.627  0.00  0.00    +0.000 HD
ENDROOT
BRANCH   6   9
ATOM      9  C   UNL     1       6.461   4.558  14.683  0.00  0.00    +0.000 A 
ATOM     10  C   UNL     1       7.506   5.247  14.057  0.00  0.00    +0.000 A 
ATOM     11  C   UNL     1       7.786   5.015  12.710  0.00  0.00    +0.000 A 
ATOM     12  C   UNL     1       7.017   4.104  11.984  0.00  0.00    +0.000 A 
ATOM     13  C   UNL     1       5.966   3.426  12.600  0.00  0.00    +0.000 A 
ATOM     14  C   UNL     1       5.684   3.651  13.949  0.00  0.00    +0.000 A 
ENDBRANCH   6   9
BRANCH   4  15
ATOM     15  C   UNL     1       3.984   6.754  18.080  0.00  0.00    +0.000 C 
BRANCH  15  16
ATOM     16  N   UNL     1       2.520   6.834  18.201  0.00  0.00    +0.000 NA
ATOM     17  C   UNL     1       2.011   6.918  19.599  0.00  0.00    +0.000 C 
ATOM     18  C   UNL     1       1.822   8.316  20.295  0.00  0.00    +0.000 C 
ATOM     19  N   UNL     1       1.360   9.335  19.343  0.00  0.00    +0.000 N 
ATOM     20  C   UNL     1       2.128   9.352  18.099  0.00  0.00    +0.000 C 
ATOM     21  C   UNL     1       1.989   7.978  17.415  0.00  0.00    +0.000 C 
BRANCH  19  22
ATOM     22  C   UNL     1       0.278  10.172  19.531  0.00  0.00    +0.000 A 
ATOM     23  C   UNL     1      -0.676  10.406  18.530  0.00  0.00    +0.000 A 
ATOM     24  C   UNL     1      -1.822  11.187  18.767  0.00  0.00    +0.000 A 
ATOM     25  C   UNL     1      -2.031  11.776  20.009  0.00  0.00    +0.000 A 
ATOM     26  C   UNL     1      -1.086  11.597  21.007  0.00  0.00    +0.000 A 
ATOM     27  C   UNL     1       0.049  10.811  20.764  0.00  0.00    +0.000 A 
ENDBRANCH  19  22
ENDBRANCH  15  16
ENDBRANCH   4  15
TORSDOF 4
ENDMDL
MODEL 5
REMARK VINA RESULT:      -7.6      2.145      8.460
REMARK  Name = 
REMARK  4 active torsions:
REMARK  status: ('A' for Active; 'I' for Inactive)
REMARK    1  A    between atoms: C_4  and  C_5
REMARK    2  A    between atoms: C_5  and  N_6
REMARK    3  A    between atoms: N_9  and  C_10
REMARK    4  A    between atoms: C_19  and  C_20
REMARK                            x       y       z     vdW  Elec       q    Type
REMARK                         _______ _______ _______ _____ _____    ______ ____
ROOT
ATOM      1  O   UNL     1       1.057   4.032  17.319  0.00  0.00    +0.000 OA
ATOM      2  C   UNL     1       1.743   4.707  18.087  0.00  0.00    +0.000 C 
ATOM      3  C   UNL     1       2.661   4.092  19.098  0.00  0.00    +0.000 C 
ATOM      4  C   UNL     1       3.634   5.068  19.751  0.00  0.00    +0.000 C 
ATOM      5  N   UNL     1       3.228   6.477  19.745  0.00  0.00    +0.000 NA
ATOM      6  C   UNL     1       2.257   6.872  19.011  0.00  0.00    +0.000 C 
ATOM      7  N   UNL     1       1.577   6.054  18.153  0.00  0.00    +0.000 N 
ATOM      8  H   UNL     1       0.894   6.424  17.509  0.00  0.00    +0.000 HD
ENDROOT
BRANCH   6   9
ATOM      9  C   UNL     1       1.816   8.288  19.047  0.00  0.00    +0.000 A 
ATOM     10  C   UNL     1       2.110   9.120  17.962  0.00  0.00    +0.000 A 
ATOM     11  C   UNL     1       1.742  10.467  17.995  0.00  0.00    +0.000 A 
ATOM     12  C   UNL     1       1.092  10.985  19.116  0.00  0.00    +0.000 A 
ATOM     13  C   UNL     1       0.810  10.163  20.206  0.00  0.00    +0.000 A 
ATOM     14  C   UNL     1       1.171   8.813  20.176  0.00  0.00    +0.000 A 
ENDBRANCH   6   9
BRANCH   4  15
ATOM     15  C   UNL     1       5.124   4.901  19.337  0.00  0.00    +0.000 C 
BRANCH  15  16
ATOM     16  N   UNL     1       5.633   5.723  18.227  0.00  0.00    +0.000 NA
ATOM     17  C   UNL     1       7.063   5.488  17.879  0.00  0.00    +0.000 C 
ATOM     18  C   UNL     1       7.455   4.391  16.822  0.00  0.00    +0.000 C 
ATOM     19  N   UNL     1       6.471   4.314  15.733  0.00  0.00    +0.000 N 
ATOM     20  C   UNL     1       5.089   4.261  16.209  0.00  0.00    +0.000 C 
ATOM     21  C   UNL     1       4.795   5.543  17.012  0.00  0.00    +0.000 C 
BRANCH  19  22
ATOM     22  C   UNL     1       6.767   4.347  14.385  0.00  0.00    +0.000 A 
ATOM     23  C   UNL     1       6.185   3.464  13.464  0.00  0.00    +0.000 A 
ATOM     24  C   UNL     1       6.424   3.570  12.082  0.00  0.00    +0.000 A 
ATOM     25  C   UNL     1       7.274   4.553  11.586  0.00  0.00    +0.000 A 
ATOM     26  C   UNL     1       7.897   5.416  12.474  0.00  0.00    +0.000 A 
ATOM     27  C   UNL     1       7.646   5.306  13.849  0.00  0.00    +0.000 A 
ENDBRANCH  19  22
ENDBRANCH  15  16
ENDBRANCH   4  15
TORSDOF 4
ENDMDL
MODEL 6
REMARK VINA RESULT:      -7.6      1.151      2.041
REMARK  Name = 
REMARK  4 active torsions:
REMARK  status: ('A' for Active; 'I' for Inactive)
REMARK    1  A    between atoms: C_4  and  C_5
REMARK    2  A    between atoms: C_5  and  N_6
REMARK    3  A    between atoms: N_9  and  C_10
REMARK    4  A    between atoms: C_19  and  C_20
REMARK                            x       y       z     vdW  Elec       q    Type
REMARK                         _______ _______ _______ _____ _____    ______ ____
ROOT
ATOM      1  O   UNL     1       7.856   4.962  18.768  0.00  0.00    +0.000 OA
ATOM      2  C   UNL     1       6.915   4.692  18.021  0.00  0.00    +0.000 C 
ATOM      3  C   UNL     1       5.615   4.148  18.526  0.00  0.00    +0.000 C 
ATOM      4  C   UNL     1       4.483   4.151  17.504  0.00  0.00    +0.000 C 
ATOM      5  N   UNL     1       4.892   4.152  16.096  0.00  0.00    +0.000 NA
ATOM      6  C   UNL     1       6.105   4.400  15.770  0.00  0.00    +0.000 C 
ATOM      7  N   UNL     1       7.077   4.733  16.672  0.00  0.00    +0.000 N 
ATOM      8  H   UNL     1       7.992   5.031  16.368  0.00  0.00    +0.000 HD
ENDROOT
BRANCH   6   9
ATOM      9  C   UNL     1       6.526   4.348  14.348  0.00  0.00    +0.000 A 
ATOM     10  C   UNL     1       7.512   5.233  13.899  0.00  0.00    +0.000 A 
ATOM     11  C   UNL     1       7.892   5.231  12.555  0.00  0.00    +0.000 A 
ATOM     12  C   UNL     1       7.278   4.354  11.659  0.00  0.00    +0.000 A 
ATOM     13  C   UNL     1       6.285   3.482  12.100  0.00  0.00    +0.000 A 
ATOM     14  C   UNL     1       5.905   3.475  13.444  0.00  0.00    +0.000 A 
ENDBRANCH   6   9
BRANCH   4  15
ATOM     15  C   UNL     1       3.347   5.180  17.769  0.00  0.00    +0.000 C 
BRANCH  15  16
ATOM     16  N   UNL     1       3.657   6.361  18.592  0.00  0.00    +0.000 NA
ATOM     17  C   UNL     1       3.310   7.668  17.966  0.00  0.00    +0.000 C 
ATOM     18  C   UNL     1       1.883   8.297  18.173  0.00  0.00    +0.000 C 
ATOM     19  N   UNL     1       1.370   8.035  19.525  0.00  0.00    +0.000 N 
ATOM     20  C   UNL     1       1.505   6.637  19.932  0.00  0.00    +0.000 C 
ATOM     21  C   UNL     1       2.999   6.263  19.921  0.00  0.00    +0.000 C 
BRANCH  19  22
ATOM     22  C   UNL     1       0.860   8.988  20.385  0.00  0.00    +0.000 A 
ATOM     23  C   UNL     1       0.782   8.788  21.770  0.00  0.00    +0.000 A 
ATOM     24  C   UNL     1       0.348   9.803  22.643  0.00  0.00    +0.000 A 
ATOM     25  C   UNL     1      -0.044  11.041  22.145  0.00  0.00    +0.000 A 
ATOM     26  C   UNL     1      -0.018  11.256  20.776  0.00  0.00    +0.000 A 
ATOM     27  C   UNL     1       0.424  10.241  19.916  0.00  0.00    +0.000 A 
ENDBRANCH  19  22
ENDBRANCH  15  16
ENDBRANCH   4  15
TORSDOF 4
ENDMDL
MODEL 7
REMARK VINA RESULT:      -7.3      4.661      9.784
REMARK  Name = 
REMARK  4 active torsions:
REMARK  status: ('A' for Active; 'I' for Inactive)
REMARK    1  A    between atoms: C_4  and  C_5
REMARK    2  A    between atoms: C_5  and  N_6
REMARK    3  A    between atoms: N_9  and  C_10
REMARK    4  A    between atoms: C_19  and  C_20
REMARK                            x       y       z     vdW  Elec       q    Type
REMARK                         _______ _______ _______ _____ _____    ______ ____
ROOT
ATOM      1  O   UNL     1      -0.599  11.777  23.079  0.00  0.00    +0.000 OA
ATOM      2  C   UNL     1      -0.587  11.917  21.856  0.00  0.00    +0.000 C 
ATOM      3  C   UNL     1       0.631  12.364  21.107  0.00  0.00    +0.000 C 
ATOM      4  C   UNL     1       0.545  12.199  19.594  0.00  0.00    +0.000 C 
ATOM      5  N   UNL     1      -0.807  12.158  19.030  0.00  0.00    +0.000 NA
ATOM      6  C   UNL     1      -1.826  12.006  19.791  0.00  0.00    +0.000 C 
ATOM      7  N   UNL     1      -1.739  11.816  21.142  0.00  0.00    +0.000 N 
ATOM      8  H   UNL     1      -2.554  11.587  21.691  0.00  0.00    +0.000 HD
ENDROOT
BRANCH   6   9
ATOM      9  C   UNL     1      -3.197  12.017  19.222  0.00  0.00    +0.000 A 
ATOM     10  C   UNL     1      -3.406  11.490  17.943  0.00  0.00    +0.000 A 
ATOM     11  C   UNL     1      -4.680  11.531  17.373  0.00  0.00    +0.000 A 
ATOM     12  C   UNL     1      -5.740  12.107  18.073  0.00  0.00    +0.000 A 
ATOM     13  C   UNL     1      -5.532  12.646  19.342  0.00  0.00    +0.000 A 
ATOM     14  C   UNL     1      -4.262  12.604  19.920  0.00  0.00    +0.000 A 
ENDBRANCH   6   9
BRANCH   4  15
ATOM     15  C   UNL     1       1.449  11.085  18.993  0.00  0.00    +0.000 C 
BRANCH  15  16
ATOM     16  N   UNL     1       0.822   9.806  18.622  0.00  0.00    +0.000 NA
ATOM     17  C   UNL     1       1.592   8.993  17.639  0.00  0.00    +0.000 C 
ATOM     18  C   UNL     1       2.667   7.956  18.131  0.00  0.00    +0.000 C 
ATOM     19  N   UNL     1       2.250   7.296  19.375  0.00  0.00    +0.000 N 
ATOM     20  C   UNL     1       1.772   8.233  20.391  0.00  0.00    +0.000 C 
ATOM     21  C   UNL     1       0.549   8.985  19.831  0.00  0.00    +0.000 C 
BRANCH  19  22
ATOM     22  C   UNL     1       2.235   5.932  19.591  0.00  0.00    +0.000 A 
ATOM     23  C   UNL     1       1.753   5.363  20.779  0.00  0.00    +0.000 A 
ATOM     24  C   UNL     1       1.658   3.969  20.947  0.00  0.00    +0.000 A 
ATOM     25  C   UNL     1       2.065   3.107  19.935  0.00  0.00    +0.000 A 
ATOM     26  C   UNL     1       2.584   3.638  18.765  0.00  0.00    +0.000 A 
ATOM     27  C   UNL     1       2.668   5.028  18.604  0.00  0.00    +0.000 A 
ENDBRANCH  19  22
ENDBRANCH  15  16
ENDBRANCH   4  15
TORSDOF 4
ENDMDL
MODEL 8
REMARK VINA RESULT:      -7.2      2.577      3.883
REMARK  Name = 
REMARK  4 active torsions:
REMARK  status: ('A' for Active; 'I' for Inactive)
REMARK    1  A    between atoms: C_4  and  C_5
REMARK    2  A    between atoms: C_5  and  N_6
REMARK    3  A    between atoms: N_9  and  C_10
REMARK    4  A    between atoms: C_19  and  C_20
REMARK                            x       y       z     vdW  Elec       q    Type
REMARK                         _______ _______ _______ _____ _____    ______ ____
ROOT
ATOM      1  O   UNL     1       3.052   2.295  21.868  0.00  0.00    +0.000 OA
ATOM      2  C   UNL     1       2.860   3.091  20.949  0.00  0.00    +0.000 C 
ATOM      3  C   UNL     1       1.508   3.653  20.638  0.00  0.00    +0.000 C 
ATOM      4  C   UNL     1       1.514   4.830  19.668  0.00  0.00    +0.000 C 
ATOM      5  N   UNL     1       2.676   4.920  18.778  0.00  0.00    +0.000 NA
ATOM      6  C   UNL     1       3.719   4.209  18.994  0.00  0.00    +0.000 C 
ATOM      7  N   UNL     1       3.857   3.379  20.071  0.00  0.00    +0.000 N 
ATOM      8  H   UNL     1       4.735   2.922  20.269  0.00  0.00    +0.000 HD
ENDROOT
BRANCH   6   9
ATOM      9  C   UNL     1       4.872   4.264  18.062  0.00  0.00    +0.000 A 
ATOM     10  C   UNL     1       6.125   4.648  18.552  0.00  0.00    +0.000 A 
ATOM     11  C   UNL     1       7.213   4.748  17.683  0.00  0.00    +0.000 A 
ATOM     12  C   UNL     1       7.047   4.477  16.324  0.00  0.00    +0.000 A 
ATOM     13  C   UNL     1       5.797   4.110  15.829  0.00  0.00    +0.000 A 
ATOM     14  C   UNL     1       4.706   4.002  16.695  0.00  0.00    +0.000 A 
ENDBRANCH   6   9
BRANCH   4  15
ATOM     15  C   UNL     1       1.166   6.211  20.293  0.00  0.00    +0.000 C 
BRANCH  15  16
ATOM     16  N   UNL     1       2.116   7.319  20.104  0.00  0.00    +0.000 NA
ATOM     17  C   UNL     1       2.293   7.757  18.690  0.00  0.00    +0.000 C 
ATOM     18  C   UNL     1       1.366   8.872  18.080  0.00  0.00    +0.000 C 
ATOM     19  N   UNL     1       1.038   9.904  19.073  0.00  0.00    +0.000 N 
ATOM     20  C   UNL     1       0.596   9.351  20.353  0.00  0.00    +0.000 C 
ATOM     21  C   UNL     1       1.732   8.489  20.936  0.00  0.00    +0.000 C 
BRANCH  19  22
ATOM     22  C   UNL     1       1.175  11.265  18.886  0.00  0.00    +0.000 A 
ATOM     23  C   UNL     1       0.229  12.189  19.353  0.00  0.00    +0.000 A 
ATOM     24  C   UNL     1       0.427  13.577  19.238  0.00  0.00    +0.000 A 
ATOM     25  C   UNL     1       1.573  14.077  18.628  0.00  0.00    +0.000 A 
ATOM     26  C   UNL     1       2.508  13.190  18.120  0.00  0.00    +0.000 A 
ATOM     27  C   UNL     1       2.304  11.809  18.246  0.00  0.00    +0.000 A 
ENDBRANCH  19  22
ENDBRANCH  15  16
ENDBRANCH   4  15
TORSDOF 4
ENDMDL
MODEL 9
REMARK VINA RESULT:      -7.1      2.136      2.968
REMARK  Name = 
REMARK  4 active torsions:
REMARK  status: ('A' for Active; 'I' for Inactive)
REMARK    1  A    between atoms: C_4  and  C_5
REMARK    2  A    between atoms: C_5  and  N_6
REMARK    3  A    between atoms: N_9  and  C_10
REMARK    4  A    between atoms: C_19  and  C_20
REMARK                            x       y       z     vdW  Elec       q    Type
REMARK                         _______ _______ _______ _____ _____    ______ ____
ROOT
ATOM      1  O   UNL     1       4.687   2.081  20.570  0.00  0.00    +0.000 OA
ATOM      2  C   UNL     1       4.172   2.768  19.687  0.00  0.00    +0.000 C 
ATOM      3  C   UNL     1       2.694   2.989  19.597  0.00  0.00    +0.000 C 
ATOM      4  C   UNL     1       2.272   4.088  18.629  0.00  0.00    +0.000 C 
ATOM      5  N   UNL     1       3.224   4.399  17.559  0.00  0.00    +0.000 NA
ATOM      6  C   UNL     1       4.425   3.958  17.607  0.00  0.00    +0.000 C 
ATOM      7  N   UNL     1       4.922   3.234  18.654  0.00  0.00    +0.000 N 
ATOM      8  H   UNL     1       5.903   3.000  18.710  0.00  0.00    +0.000 HD
ENDROOT
BRANCH   6   9
ATOM      9  C   UNL     1       5.372   4.231  16.497  0.00  0.00    +0.000 A 
ATOM     10  C   UNL     1       6.565   4.908  16.771  0.00  0.00    +0.000 A 
ATOM     11  C   UNL     1       7.448   5.213  15.734  0.00  0.00    +0.000 A 
ATOM     12  C   UNL     1       7.135   4.853  14.423  0.00  0.00    +0.000 A 
ATOM     13  C   UNL     1       5.940   4.192  14.143  0.00  0.00    +0.000 A 
ATOM     14  C   UNL     1       5.055   3.879  15.177  0.00  0.00    +0.000 A 
ENDBRANCH   6   9
BRANCH   4  15
ATOM     15  C   UNL     1       1.714   5.381  19.289  0.00  0.00    +0.000 C 
BRANCH  15  16
ATOM     16  N   UNL     1       2.604   6.548  19.395  0.00  0.00    +0.000 NA
ATOM     17  C   UNL     1       2.766   7.329  18.136  0.00  0.00    +0.000 C 
ATOM     18  C   UNL     1       1.785   8.512  17.801  0.00  0.00    +0.000 C 
ATOM     19  N   UNL     1       1.396   9.250  19.011  0.00  0.00    +0.000 N 
ATOM     20  C   UNL     1       0.977   8.378  20.107  0.00  0.00    +0.000 C 
ATOM     21  C   UNL     1       2.154   7.456  20.482  0.00  0.00    +0.000 C 
BRANCH  19  22
ATOM     22  C   UNL     1       1.462  10.620  19.167  0.00  0.00    +0.000 A 
ATOM     23  C   UNL     1       0.925  11.278  20.282  0.00  0.00    +0.000 A 
ATOM     24  C   UNL     1       1.081  12.663  20.473  0.00  0.00    +0.000 A 
ATOM     25  C   UNL     1       1.762  13.432  19.535  0.00  0.00    +0.000 A 
ATOM     26  C   UNL     1       2.269  12.818  18.401  0.00  0.00    +0.000 A 
ATOM     27  C   UNL     1       2.115  11.436  18.224  0.00  0.00    +0.000 A 
ENDBRANCH  19  22
ENDBRANCH  15  16
ENDBRANCH   4  15
TORSDOF 4
ENDMDL
