MODEL 1
REMARK VINA RESULT:      -7.8      0.000      0.000
REMARK  Name = 
REMARK  5 active torsions:
REMARK  status: ('A' for Active; 'I' for Inactive)
REMARK    1  A    between atoms: C_1  and  C_2
REMARK    2  A    between atoms: C_2  and  O_3
REMARK    3  A    between atoms: O_3  and  C_4
REMARK    4  A    between atoms: C_6  and  O_7
REMARK    5  A    between atoms: C_12  and  C_14
REMARK                            x       y       z     vdW  Elec       q    Type
REMARK                         _______ _______ _______ _____ _____    ______ ____
ROOT
ATOM      1  C   UNL     1      -3.570  11.342  15.884  0.00  0.00    +0.000 C 
ATOM      2  C   UNL     1      -4.693  11.921  16.782  0.00  0.00    +0.000 C 
ATOM      3  C   UNL     1      -4.108  11.116  17.956  0.00  0.00    +0.000 C 
ATOM      4  C   UNL     1      -2.740  11.079  17.194  0.00  0.00    +0.000 C 
ATOM      5  C   UNL     1      -2.010   9.728  17.266  0.00  0.00    +0.000 C 
ATOM      6  C   UNL     1      -1.392   9.597  18.661  0.00  0.00    +0.000 C 
ATOM      7  N   UNL     1      -0.381  10.644  18.804  0.00  0.00    +0.000 N 
ATOM      8  C   UNL     1       1.012  10.495  18.892  0.00  0.00    +0.000 C 
ATOM      9  O   UNL     1       1.763  11.466  19.011  0.00  0.00    +0.000 OA
ATOM     10  C   UNL     1      -0.960  11.990  18.798  0.00  0.00    +0.000 C 
ATOM     11  C   UNL     1      -1.763  12.239  17.515  0.00  0.00    +0.000 C 
ENDROOT
BRANCH   8  12
ATOM     12  C   UNL     1       1.649   9.139  18.903  0.00  0.00    +0.000 A 
ATOM     13  C   UNL     1       2.474   8.688  17.871  0.00  0.00    +0.000 A 
ATOM     14  C   UNL     1       2.911   7.361  17.809  0.00  0.00    +0.000 A 
ATOM     15  C   UNL     1       2.651   6.509  18.891  0.00  0.00    +0.000 A 
ATOM     16  C   UNL     1       2.988   5.163  19.178  0.00  0.00    +0.000 A 
ATOM     17  C   UNL     1       2.552   4.890  20.459  0.00  0.00    +0.000 A 
ATOM     18  N   UNL     1       1.911   6.002  20.936  0.00  0.00    +0.000 N 
ATOM     19  C   UNL     1       1.946   7.006  19.990  0.00  0.00    +0.000 A 
ATOM     20  C   UNL     1       1.421   8.308  20.017  0.00  0.00    +0.000 A 
ATOM     21  C   UNL     1       2.807   3.645  21.227  0.00  0.00    +0.000 C 
ATOM     22  C   UNL     1       3.444   2.568  20.322  0.00  0.00    +0.000 C 
ATOM     23  C   UNL     1       4.418   3.140  19.275  0.00  0.00    +0.000 C 
ATOM     24  C   UNL     1       3.728   4.165  18.358  0.00  0.00    +0.000 C 
ATOM     25  H   UNL     1       1.505   6.097  21.858  0.00  0.00    +0.000 HD
ENDBRANCH   8  12
BRANCH   3  26
ATOM     26  O   UNL     1      -4.754   9.847  18.206  0.00  0.00    +0.000 OA
ATOM     27  H   UNL     1      -4.027   9.194  18.235  0.00  0.00    +0.000 HD
ENDBRANCH   3  26
BRANCH   1  28
ATOM     28  O   UNL     1      -3.932  10.164  15.119  0.00  0.00    +0.000 OA
BRANCH  28  30
ATOM     29  C   UNL     1      -4.256   9.864  12.763  0.00  0.00    +0.000 C 
ATOM     30  C   UNL     1      -3.244   9.989  13.883  0.00  0.00    +0.000 C 
ENDBRANCH  28  30
ENDBRANCH   1  28
TORSDOF 4
ENDMDL
MODEL 2
REMARK VINA RESULT:      -7.8      3.225      4.352
REMARK  Name = 
REMARK  5 active torsions:
REMARK  status: ('A' for Active; 'I' for Inactive)
REMARK    1  A    between atoms: C_1  and  C_2
REMARK    2  A    between atoms: C_2  and  O_3
REMARK    3  A    between atoms: O_3  and  C_4
REMARK    4  A    between atoms: C_6  and  O_7
REMARK    5  A    between atoms: C_12  and  C_14
REMARK                            x       y       z     vdW  Elec       q    Type
REMARK                         _______ _______ _______ _____ _____    ______ ____
ROOT
ATOM      1  C   UNL     1       1.347  14.338  19.240  0.00  0.00    +0.000 C 
ATOM      2  C   UNL     1      -0.056  14.992  19.161  0.00  0.00    +0.000 C 
ATOM      3  C   UNL     1      -0.646  13.592  18.913  0.00  0.00    +0.000 C 
ATOM      4  C   UNL     1       0.630  12.983  19.587  0.00  0.00    +0.000 C 
ATOM      5  C   UNL     1       1.183  11.732  18.884  0.00  0.00    +0.000 C 
ATOM      6  C   UNL     1       0.270  10.552  19.229  0.00  0.00    +0.000 C 
ATOM      7  N   UNL     1       0.364  10.316  20.669  0.00  0.00    +0.000 N 
ATOM      8  C   UNL     1       0.935   9.218  21.329  0.00  0.00    +0.000 C 
ATOM      9  O   UNL     1       0.953   9.137  22.560  0.00  0.00    +0.000 OA
ATOM     10  C   UNL     1      -0.177  11.426  21.457  0.00  0.00    +0.000 C 
ATOM     11  C   UNL     1       0.531  12.743  21.115  0.00  0.00    +0.000 C 
ENDROOT
BRANCH   8  12
ATOM     12  C   UNL     1       1.501   8.060  20.566  0.00  0.00    +0.000 A 
ATOM     13  C   UNL     1       2.144   8.213  19.336  0.00  0.00    +0.000 A 
ATOM     14  C   UNL     1       2.504   7.109  18.555  0.00  0.00    +0.000 A 
ATOM     15  C   UNL     1       2.363   5.822  19.091  0.00  0.00    +0.000 A 
ATOM     16  C   UNL     1       2.673   4.525  18.614  0.00  0.00    +0.000 A 
ATOM     17  C   UNL     1       2.416   3.634  19.637  0.00  0.00    +0.000 A 
ATOM     18  N   UNL     1       1.905   4.337  20.695  0.00  0.00    +0.000 N 
ATOM     19  C   UNL     1       1.851   5.680  20.383  0.00  0.00    +0.000 A 
ATOM     20  C   UNL     1       1.399   6.776  21.136  0.00  0.00    +0.000 A 
ATOM     21  C   UNL     1       2.720   2.181  19.632  0.00  0.00    +0.000 C 
ATOM     22  C   UNL     1       3.166   1.722  18.227  0.00  0.00    +0.000 C 
ATOM     23  C   UNL     1       4.003   2.772  17.472  0.00  0.00    +0.000 C 
ATOM     24  C   UNL     1       3.237   4.096  17.305  0.00  0.00    +0.000 C 
ATOM     25  H   UNL     1       1.644   3.944  21.590  0.00  0.00    +0.000 HD
ENDBRANCH   8  12
BRANCH   3  26
ATOM     26  O   UNL     1      -0.873  13.265  17.524  0.00  0.00    +0.000 OA
ATOM     27  H   UNL     1      -1.678  13.760  17.274  0.00  0.00    +0.000 HD
ENDBRANCH   3  26
BRANCH   1  28
ATOM     28  O   UNL     1       2.109  14.352  18.005  0.00  0.00    +0.000 OA
BRANCH  28  30
ATOM     29  C   UNL     1       2.967  16.573  17.730  0.00  0.00    +0.000 C 
ATOM     30  C   UNL     1       3.306  15.126  18.021  0.00  0.00    +0.000 C 
ENDBRANCH  28  30
ENDBRANCH   1  28
TORSDOF 4
ENDMDL
MODEL 3
REMARK VINA RESULT:      -7.8      3.867      8.727
REMARK  Name = 
REMARK  5 active torsions:
REMARK  status: ('A' for Active; 'I' for Inactive)
REMARK    1  A    between atoms: C_1  and  C_2
REMARK    2  A    between atoms: C_2  and  O_3
REMARK    3  A    between atoms: O_3  and  C_4
REMARK    4  A    between atoms: C_6  and  O_7
REMARK    5  A    between atoms: C_12  and  C_14
REMARK                            x       y       z     vdW  Elec       q    Type
REMARK                         _______ _______ _______ _____ _____    ______ ____
ROOT
ATOM      1  C   UNL     1       5.578   3.872  15.380  0.00  0.00    +0.000 C 
ATOM      2  C   UNL     1       7.086   3.705  15.697  0.00  0.00    +0.000 C 
ATOM      3  C   UNL     1       6.994   4.964  16.578  0.00  0.00    +0.000 C 
ATOM      4  C   UNL     1       5.453   4.712  16.703  0.00  0.00    +0.000 C 
ATOM      5  C   UNL     1       4.593   5.983  16.613  0.00  0.00    +0.000 C 
ATOM      6  C   UNL     1       4.716   6.734  17.941  0.00  0.00    +0.000 C 
ATOM      7  N   UNL     1       4.137   5.893  18.988  0.00  0.00    +0.000 N 
ATOM      8  C   UNL     1       2.964   6.116  19.725  0.00  0.00    +0.000 C 
ATOM      9  O   UNL     1       2.578   5.323  20.588  0.00  0.00    +0.000 OA
ATOM     10  C   UNL     1       4.899   4.661  19.205  0.00  0.00    +0.000 C 
ATOM     11  C   UNL     1       5.012   3.846  17.911  0.00  0.00    +0.000 C 
ENDROOT
BRANCH   8  12
ATOM     12  C   UNL     1       2.152   7.361  19.538  0.00  0.00    +0.000 A 
ATOM     13  C   UNL     1       2.001   7.980  18.295  0.00  0.00    +0.000 A 
ATOM     14  C   UNL     1       1.395   9.234  18.171  0.00  0.00    +0.000 A 
ATOM     15  C   UNL     1       0.781   9.806  19.293  0.00  0.00    +0.000 A 
ATOM     16  C   UNL     1       0.046  11.000  19.503  0.00  0.00    +0.000 A 
ATOM     17  C   UNL     1      -0.416  10.980  20.804  0.00  0.00    +0.000 A 
ATOM     18  N   UNL     1       0.062   9.847  21.407  0.00  0.00    +0.000 N 
ATOM     19  C   UNL     1       0.809   9.115  20.506  0.00  0.00    +0.000 A 
ATOM     20  C   UNL     1       1.498   7.901  20.662  0.00  0.00    +0.000 A 
ATOM     21  C   UNL     1      -1.341  11.962  21.422  0.00  0.00    +0.000 C 
ATOM     22  C   UNL     1      -1.559  13.169  20.485  0.00  0.00    +0.000 C 
ATOM     23  C   UNL     1      -1.587  12.793  18.991  0.00  0.00    +0.000 C 
ATOM     24  C   UNL     1      -0.285  12.100  18.556  0.00  0.00    +0.000 C 
ATOM     25  H   UNL     1      -0.133   9.560  22.358  0.00  0.00    +0.000 HD
ENDBRANCH   8  12
BRANCH   3  26
ATOM     26  O   UNL     1       7.407   6.190  15.934  0.00  0.00    +0.000 OA
ATOM     27  H   UNL     1       7.763   5.913  15.066  0.00  0.00    +0.000 HD
ENDBRANCH   3  26
BRANCH   1  28
ATOM     28  O   UNL     1       5.278   4.582  14.150  0.00  0.00    +0.000 OA
BRANCH  28  30
ATOM     29  C   UNL     1       4.853   3.507  12.050  0.00  0.00    +0.000 C 
ATOM     30  C   UNL     1       5.907   4.081  12.973  0.00  0.00    +0.000 C 
ENDBRANCH  28  30
ENDBRANCH   1  28
TORSDOF 4
ENDMDL
MODEL 4
REMARK VINA RESULT:      -7.6      3.158      4.669
REMARK  Name = 
REMARK  5 active torsions:
REMARK  status: ('A' for Active; 'I' for Inactive)
REMARK    1  A    between atoms: C_1  and  C_2
REMARK    2  A    between atoms: C_2  and  O_3
REMARK    3  A    between atoms: O_3  and  C_4
REMARK    4  A    between atoms: C_6  and  O_7
REMARK    5  A    between atoms: C_12  and  C_14
REMARK                            x       y       z     vdW  Elec       q    Type
REMARK                         _______ _______ _______ _____ _____    ______ ____
ROOT
ATOM      1  C   UNL     1       1.031  14.030  19.330  0.00  0.00    +0.000 C 
ATOM      2  C   UNL     1      -0.418  14.566  19.213  0.00  0.00    +0.000 C 
ATOM      3  C   UNL     1      -0.867  13.141  18.844  0.00  0.00    +0.000 C 
ATOM      4  C   UNL     1       0.421  12.598  19.549  0.00  0.00    +0.000 C 
ATOM      5  C   UNL     1       1.119  11.450  18.800  0.00  0.00    +0.000 C 
ATOM      6  C   UNL     1       0.299  10.175  19.016  0.00  0.00    +0.000 C 
ATOM      7  N   UNL     1       0.340   9.850  20.441  0.00  0.00    +0.000 N 
ATOM      8  C   UNL     1       0.972   8.762  21.061  0.00  0.00    +0.000 C 
ATOM      9  O   UNL     1       0.934   8.599  22.283  0.00  0.00    +0.000 OA
ATOM     10  C   UNL     1      -0.338  10.853  21.266  0.00  0.00    +0.000 C 
ATOM     11  C   UNL     1       0.265  12.246  21.051  0.00  0.00    +0.000 C 
ENDROOT
BRANCH   8  12
ATOM     12  C   UNL     1       1.678   7.712  20.259  0.00  0.00    +0.000 A 
ATOM     13  C   UNL     1       1.615   6.354  20.577  0.00  0.00    +0.000 A 
ATOM     14  C   UNL     1       2.421   5.412  19.930  0.00  0.00    +0.000 A 
ATOM     15  C   UNL     1       3.189   5.816  18.829  0.00  0.00    +0.000 A 
ATOM     16  C   UNL     1       4.047   5.133  17.932  0.00  0.00    +0.000 A 
ATOM     17  C   UNL     1       4.442   6.036  16.966  0.00  0.00    +0.000 A 
ATOM     18  N   UNL     1       3.902   7.256  17.278  0.00  0.00    +0.000 N 
ATOM     19  C   UNL     1       3.138   7.152  18.423  0.00  0.00    +0.000 A 
ATOM     20  C   UNL     1       2.406   8.122  19.125  0.00  0.00    +0.000 A 
ATOM     21  C   UNL     1       5.237   5.730  15.750  0.00  0.00    +0.000 C 
ATOM     22  C   UNL     1       5.779   4.285  15.804  0.00  0.00    +0.000 C 
ATOM     23  C   UNL     1       4.809   3.286  16.464  0.00  0.00    +0.000 C 
ATOM     24  C   UNL     1       4.459   3.702  17.903  0.00  0.00    +0.000 C 
ATOM     25  H   UNL     1       4.008   8.102  16.733  0.00  0.00    +0.000 HD
ENDBRANCH   8  12
BRANCH   3  26
ATOM     26  O   UNL     1      -0.993  12.891  17.425  0.00  0.00    +0.000 OA
ATOM     27  H   UNL     1      -1.092  11.921  17.346  0.00  0.00    +0.000 HD
ENDBRANCH   3  26
BRANCH   1  28
ATOM     28  O   UNL     1       1.851  14.195  18.144  0.00  0.00    +0.000 OA
BRANCH  28  30
ATOM     29  C   UNL     1       3.574  15.695  17.419  0.00  0.00    +0.000 C 
ATOM     30  C   UNL     1       3.205  14.577  18.373  0.00  0.00    +0.000 C 
ENDBRANCH  28  30
ENDBRANCH   1  28
TORSDOF 4
ENDMDL
MODEL 5
REMARK VINA RESULT:      -7.5      3.961      8.499
REMARK  Name = 
REMARK  5 active torsions:
REMARK  status: ('A' for Active; 'I' for Inactive)
REMARK    1  A    between atoms: C_1  and  C_2
REMARK    2  A    between atoms: C_2  and  O_3
REMARK    3  A    between atoms: O_3  and  C_4
REMARK    4  A    between atoms: C_6  and  O_7
REMARK    5  A    between atoms: C_12  and  C_14
REMARK                            x       y       z     vdW  Elec       q    Type
REMARK                         _______ _______ _______ _____ _____    ______ ____
ROOT
ATOM      1  C   UNL     1       4.141   2.154  19.780  0.00  0.00    +0.000 C 
ATOM      2  C   UNL     1       3.937   1.106  18.656  0.00  0.00    +0.000 C 
ATOM      3  C   UNL     1       2.890   2.046  18.031  0.00  0.00    +0.000 C 
ATOM      4  C   UNL     1       3.565   3.235  18.795  0.00  0.00    +0.000 C 
ATOM      5  C   UNL     1       2.575   4.240  19.406  0.00  0.00    +0.000 C 
ATOM      6  C   UNL     1       2.016   5.105  18.274  0.00  0.00    +0.000 C 
ATOM      7  N   UNL     1       3.123   5.877  17.710  0.00  0.00    +0.000 N 
ATOM      8  C   UNL     1       3.334   7.262  17.779  0.00  0.00    +0.000 C 
ATOM      9  O   UNL     1       4.317   7.797  17.258  0.00  0.00    +0.000 OA
ATOM     10  C   UNL     1       4.121   5.030  17.051  0.00  0.00    +0.000 C 
ATOM     11  C   UNL     1       4.681   3.981  18.020  0.00  0.00    +0.000 C 
ENDROOT
BRANCH   8  12
ATOM     12  C   UNL     1       2.342   8.168  18.442  0.00  0.00    +0.000 A 
ATOM     13  C   UNL     1       1.677   9.186  17.755  0.00  0.00    +0.000 A 
ATOM     14  C   UNL     1       0.895  10.132  18.426  0.00  0.00    +0.000 A 
ATOM     15  C   UNL     1       0.642   9.959  19.793  0.00  0.00    +0.000 A 
ATOM     16  C   UNL     1      -0.132  10.672  20.742  0.00  0.00    +0.000 A 
ATOM     17  C   UNL     1      -0.098   9.960  21.925  0.00  0.00    +0.000 A 
ATOM     18  N   UNL     1       0.717   8.874  21.743  0.00  0.00    +0.000 N 
ATOM     19  C   UNL     1       1.193   8.855  20.449  0.00  0.00    +0.000 A 
ATOM     20  C   UNL     1       2.056   7.954  19.804  0.00  0.00    +0.000 A 
ATOM     21  C   UNL     1      -0.874  10.262  23.153  0.00  0.00    +0.000 C 
ATOM     22  C   UNL     1      -1.577  11.631  23.031  0.00  0.00    +0.000 C 
ATOM     23  C   UNL     1      -2.076  11.943  21.608  0.00  0.00    +0.000 C 
ATOM     24  C   UNL     1      -0.927  11.921  20.585  0.00  0.00    +0.000 C 
ATOM     25  H   UNL     1       0.912   8.164  22.438  0.00  0.00    +0.000 HD
ENDBRANCH   8  12
BRANCH   3  26
ATOM     26  O   UNL     1       1.519   1.742  18.373  0.00  0.00    +0.000 OA
ATOM     27  H   UNL     1       1.560   1.356  19.271  0.00  0.00    +0.000 HD
ENDBRANCH   3  26
BRANCH   1  28
ATOM     28  O   UNL     1       3.371   1.925  20.988  0.00  0.00    +0.000 OA
BRANCH  28  30
ATOM     29  C   UNL     1       1.300   2.592  21.992  0.00  0.00    +0.000 C 
ATOM     30  C   UNL     1       2.654   3.049  21.492  0.00  0.00    +0.000 C 
ENDBRANCH  28  30
ENDBRANCH   1  28
TORSDOF 4
ENDMDL
MODEL 6
REMARK VINA RESULT:      -7.2      3.409      5.972
REMARK  Name = 
REMARK  5 active torsions:
REMARK  status: ('A' for Active; 'I' for Inactive)
REMARK    1  A    between atoms: C_1  and  C_2
REMARK    2  A    between atoms: C_2  and  O_3
REMARK    3  A    between atoms: O_3  and  C_4
REMARK    4  A    between atoms: C_6  and  O_7
REMARK    5  A    between atoms: C_12  and  C_14
REMARK                            x       y       z     vdW  Elec       q    Type
REMARK                         _______ _______ _______ _____ _____    ______ ____
ROOT
ATOM      1  C   UNL     1       3.304  15.868  20.118  0.00  0.00    +0.000 C 
ATOM      2  C   UNL     1       2.926  16.946  19.071  0.00  0.00    +0.000 C 
ATOM      3  C   UNL     1       2.682  15.813  18.058  0.00  0.00    +0.000 C 
ATOM      4  C   UNL     1       2.480  14.836  19.266  0.00  0.00    +0.000 C 
ATOM      5  C   UNL     1       3.126  13.453  19.078  0.00  0.00    +0.000 C 
ATOM      6  C   UNL     1       2.256  12.650  18.108  0.00  0.00    +0.000 C 
ATOM      7  N   UNL     1       0.955  12.438  18.741  0.00  0.00    +0.000 N 
ATOM      8  C   UNL     1       0.404  11.232  19.199  0.00  0.00    +0.000 C 
ATOM      9  O   UNL     1      -0.713  11.185  19.721  0.00  0.00    +0.000 OA
ATOM     10  C   UNL     1       0.213  13.686  18.934  0.00  0.00    +0.000 C 
ATOM     11  C   UNL     1       1.022  14.686  19.770  0.00  0.00    +0.000 C 
ENDROOT
BRANCH   8  12
ATOM     12  C   UNL     1       1.125   9.931  19.024  0.00  0.00    +0.000 A 
ATOM     13  C   UNL     1       1.853   9.624  17.872  0.00  0.00    +0.000 A 
ATOM     14  C   UNL     1       2.366   8.342  17.649  0.00  0.00    +0.000 A 
ATOM     15  C   UNL     1       2.289   7.392  18.676  0.00  0.00    +0.000 A 
ATOM     16  C   UNL     1       2.745   6.057  18.809  0.00  0.00    +0.000 A 
ATOM     17  C   UNL     1       2.480   5.654  20.102  0.00  0.00    +0.000 A 
ATOM     18  N   UNL     1       1.827   6.675  20.740  0.00  0.00    +0.000 N 
ATOM     19  C   UNL     1       1.686   7.749  19.885  0.00  0.00    +0.000 A 
ATOM     20  C   UNL     1       1.084   9.002  20.081  0.00  0.00    +0.000 A 
ATOM     21  C   UNL     1       2.903   4.376  20.728  0.00  0.00    +0.000 C 
ATOM     22  C   UNL     1       3.500   3.423  19.670  0.00  0.00    +0.000 C 
ATOM     23  C   UNL     1       4.306   4.145  18.574  0.00  0.00    +0.000 C 
ATOM     24  C   UNL     1       3.449   5.183  17.830  0.00  0.00    +0.000 C 
ATOM     25  H   UNL     1       1.526   6.667  21.706  0.00  0.00    +0.000 HD
ENDBRANCH   8  12
BRANCH   3  26
ATOM     26  O   UNL     1       3.790  15.539  17.172  0.00  0.00    +0.000 OA
ATOM     27  H   UNL     1       3.398  15.505  16.277  0.00  0.00    +0.000 HD
ENDBRANCH   3  26
BRANCH   1  28
ATOM     28  O   UNL     1       4.724  15.595  20.243  0.00  0.00    +0.000 OA
BRANCH  28  30
ATOM     29  C   UNL     1       5.068  14.264  22.206  0.00  0.00    +0.000 C 
ATOM     30  C   UNL     1       5.249  15.625  21.568  0.00  0.00    +0.000 C 
ENDBRANCH  28  30
ENDBRANCH   1  28
TORSDOF 4
ENDMDL
MODEL 7
REMARK VINA RESULT:      -7.2      6.637      8.206
REMARK  Name = 
REMARK  5 active torsions:
REMARK  status: ('A' for Active; 'I' for Inactive)
REMARK    1  A    between atoms: C_1  and  C_2
REMARK    2  A    between atoms: C_2  and  O_3
REMARK    3  A    between atoms: O_3  and  C_4
REMARK    4  A    between atoms: C_6  and  O_7
REMARK    5  A    between atoms: C_12  and  C_14
REMARK                            x       y       z     vdW  Elec       q    Type
REMARK                         _______ _______ _______ _____ _____    ______ ____
ROOT
ATOM      1  C   UNL     1      -0.168  13.940  18.855  0.00  0.00    +0.000 C 
ATOM      2  C   UNL     1      -0.934  14.193  20.178  0.00  0.00    +0.000 C 
ATOM      3  C   UNL     1       0.415  14.135  20.918  0.00  0.00    +0.000 C 
ATOM      4  C   UNL     1       1.123  14.489  19.566  0.00  0.00    +0.000 C 
ATOM      5  C   UNL     1       2.418  13.703  19.304  0.00  0.00    +0.000 C 
ATOM      6  C   UNL     1       3.518  14.293  20.191  0.00  0.00    +0.000 C 
ATOM      7  N   UNL     1       3.753  15.670  19.761  0.00  0.00    +0.000 N 
ATOM      8  C   UNL     1       4.890  16.197  19.131  0.00  0.00    +0.000 C 
ATOM      9  O   UNL     1       4.965  17.388  18.815  0.00  0.00    +0.000 OA
ATOM     10  C   UNL     1       2.598  16.539  20.002  0.00  0.00    +0.000 C 
ATOM     11  C   UNL     1       1.345  16.000  19.302  0.00  0.00    +0.000 C 
ENDROOT
BRANCH   8  12
ATOM     12  C   UNL     1       6.095  15.348  18.864  0.00  0.00    +0.000 A 
ATOM     13  C   UNL     1       6.253  14.618  17.684  0.00  0.00    +0.000 A 
ATOM     14  C   UNL     1       7.290  13.693  17.528  0.00  0.00    +0.000 A 
ATOM     15  C   UNL     1       8.285  13.616  18.512  0.00  0.00    +0.000 A 
ATOM     16  C   UNL     1       9.474  12.857  18.643  0.00  0.00    +0.000 A 
ATOM     17  C   UNL     1      10.121  13.290  19.782  0.00  0.00    +0.000 A 
ATOM     18  N   UNL     1       9.339  14.243  20.379  0.00  0.00    +0.000 N 
ATOM     19  C   UNL     1       8.201  14.453  19.627  0.00  0.00    +0.000 A 
ATOM     20  C   UNL     1       7.113  15.316  19.837  0.00  0.00    +0.000 A 
ATOM     21  C   UNL     1      11.469  12.869  20.241  0.00  0.00    +0.000 C 
ATOM     22  C   UNL     1      11.989  11.689  19.392  0.00  0.00    +0.000 C 
ATOM     23  C   UNL     1      11.577  11.766  17.910  0.00  0.00    +0.000 C 
ATOM     24  C   UNL     1      10.048  11.814  17.748  0.00  0.00    +0.000 C 
ATOM     25  H   UNL     1       9.572  14.751  21.223  0.00  0.00    +0.000 HD
ENDBRANCH   8  12
BRANCH   3  26
ATOM     26  O   UNL     1       0.731  12.854  21.507  0.00  0.00    +0.000 OA
ATOM     27  H   UNL     1       0.223  12.826  22.342  0.00  0.00    +0.000 HD
ENDBRANCH   3  26
BRANCH   1  28
ATOM     28  O   UNL     1      -0.113  12.556  18.424  0.00  0.00    +0.000 OA
BRANCH  28  30
ATOM     29  C   UNL     1      -1.118  10.401  18.123  0.00  0.00    +0.000 C 
ATOM     30  C   UNL     1      -1.365  11.878  18.348  0.00  0.00    +0.000 C 
ENDBRANCH  28  30
ENDBRANCH   1  28
TORSDOF 4
ENDMDL
MODEL 8
REMARK VINA RESULT:      -7.1      1.148      1.883
REMARK  Name = 
REMARK  5 active torsions:
REMARK  status: ('A' for Active; 'I' for Inactive)
REMARK    1  A    between atoms: C_1  and  C_2
REMARK    2  A    between atoms: C_2  and  O_3
REMARK    3  A    between atoms: O_3  and  C_4
REMARK    4  A    between atoms: C_6  and  O_7
REMARK    5  A    between atoms: C_12  and  C_14
REMARK                            x       y       z     vdW  Elec       q    Type
REMARK                         _______ _______ _______ _____ _____    ______ ____
ROOT
ATOM      1  C   UNL     1      -3.725  11.341  15.866  0.00  0.00    +0.000 C 
ATOM      2  C   UNL     1      -4.885  11.886  16.736  0.00  0.00    +0.000 C 
ATOM      3  C   UNL     1      -4.308  11.094  17.923  0.00  0.00    +0.000 C 
ATOM      4  C   UNL     1      -2.922  11.097  17.196  0.00  0.00    +0.000 C 
ATOM      5  C   UNL     1      -2.156   9.766  17.283  0.00  0.00    +0.000 C 
ATOM      6  C   UNL     1      -1.570   9.647  18.692  0.00  0.00    +0.000 C 
ATOM      7  N   UNL     1      -0.592  10.721  18.864  0.00  0.00    +0.000 N 
ATOM      8  C   UNL     1       0.801  10.609  18.986  0.00  0.00    +0.000 C 
ATOM      9  O   UNL     1       1.523  11.600  19.126  0.00  0.00    +0.000 OA
ATOM     10  C   UNL     1      -1.207  12.051  18.846  0.00  0.00    +0.000 C 
ATOM     11  C   UNL     1      -1.985  12.282  17.544  0.00  0.00    +0.000 C 
ENDROOT
BRANCH   8  12
ATOM     12  C   UNL     1       1.475   9.271  19.009  0.00  0.00    +0.000 A 
ATOM     13  C   UNL     1       1.335   8.378  20.073  0.00  0.00    +0.000 A 
ATOM     14  C   UNL     1       2.111   7.217  20.162  0.00  0.00    +0.000 A 
ATOM     15  C   UNL     1       2.927   6.861  19.080  0.00  0.00    +0.000 A 
ATOM     16  C   UNL     1       3.774   5.757  18.816  0.00  0.00    +0.000 A 
ATOM     17  C   UNL     1       4.239   5.889  17.523  0.00  0.00    +0.000 A 
ATOM     18  N   UNL     1       3.753   7.064  17.015  0.00  0.00    +0.000 N 
ATOM     19  C   UNL     1       2.955   7.687  17.953  0.00  0.00    +0.000 A 
ATOM     20  C   UNL     1       2.253   8.902  17.896  0.00  0.00    +0.000 A 
ATOM     21  C   UNL     1       5.051   4.896  16.775  0.00  0.00    +0.000 C 
ATOM     22  C   UNL     1       5.518   3.760  17.711  0.00  0.00    +0.000 C 
ATOM     23  C   UNL     1       4.482   3.381  18.786  0.00  0.00    +0.000 C 
ATOM     24  C   UNL     1       4.114   4.585  19.669  0.00  0.00    +0.000 C 
ATOM     25  H   UNL     1       3.916   7.412  16.078  0.00  0.00    +0.000 HD
ENDBRANCH   8  12
BRANCH   3  26
ATOM     26  O   UNL     1      -4.925   9.807  18.153  0.00  0.00    +0.000 OA
ATOM     27  H   UNL     1      -5.083   9.438  17.261  0.00  0.00    +0.000 HD
ENDBRANCH   3  26
BRANCH   1  28
ATOM     28  O   UNL     1      -4.036  10.156  15.089  0.00  0.00    +0.000 OA
BRANCH  28  30
ATOM     29  C   UNL     1      -4.283   9.824  12.728  0.00  0.00    +0.000 C 
ATOM     30  C   UNL     1      -3.307  10.001  13.873  0.00  0.00    +0.000 C 
ENDBRANCH  28  30
ENDBRANCH   1  28
TORSDOF 4
ENDMDL
MODEL 9
REMARK VINA RESULT:      -7.1      3.371      4.627
REMARK  Name = 
REMARK  5 active torsions:
REMARK  status: ('A' for Active; 'I' for Inactive)
REMARK    1  A    between atoms: C_1  and  C_2
REMARK    2  A    between atoms: C_2  and  O_3
REMARK    3  A    between atoms: O_3  and  C_4
REMARK    4  A    between atoms: C_6  and  O_7
REMARK    5  A    between atoms: C_12  and  C_14
REMARK                            x       y       z     vdW  Elec       q    Type
REMARK                         _______ _______ _______ _____ _____    ______ ____
ROOT
ATOM      1  C   UNL     1      -2.803  13.342  21.324  0.00  0.00    +0.000 C 
ATOM      2  C   UNL     1      -2.250  14.621  22.001  0.00  0.00    +0.000 C 
ATOM      3  C   UNL     1      -0.945  13.854  22.283  0.00  0.00    +0.000 C 
ATOM      4  C   UNL     1      -1.314  12.882  21.112  0.00  0.00    +0.000 C 
ATOM      5  C   UNL     1      -1.022  11.400  21.401  0.00  0.00    +0.000 C 
ATOM      6  C   UNL     1       0.489  11.183  21.286  0.00  0.00    +0.000 C 
ATOM      7  N   UNL     1       0.875  11.438  19.899  0.00  0.00    +0.000 N 
ATOM      8  C   UNL     1       1.334  10.516  18.946  0.00  0.00    +0.000 C 
ATOM      9  O   UNL     1       1.628  10.859  17.798  0.00  0.00    +0.000 OA
ATOM     10  C   UNL     1       0.686  12.838  19.510  0.00  0.00    +0.000 C 
ATOM     11  C   UNL     1      -0.769  13.277  19.716  0.00  0.00    +0.000 C 
ENDROOT
BRANCH   8  12
ATOM     12  C   UNL     1       1.542   9.074  19.297  0.00  0.00    +0.000 A 
ATOM     13  C   UNL     1       1.067   8.513  20.484  0.00  0.00    +0.000 A 
ATOM     14  C   UNL     1       1.424   7.220  20.878  0.00  0.00    +0.000 A 
ATOM     15  C   UNL     1       2.141   6.412  19.985  0.00  0.00    +0.000 A 
ATOM     16  C   UNL     1       2.603   5.073  20.033  0.00  0.00    +0.000 A 
ATOM     17  C   UNL     1       3.156   4.780  18.803  0.00  0.00    +0.000 A 
ATOM     18  N   UNL     1       3.099   5.910  18.031  0.00  0.00    +0.000 N 
ATOM     19  C   UNL     1       2.492   6.929  18.736  0.00  0.00    +0.000 A 
ATOM     20  C   UNL     1       2.220   8.258  18.371  0.00  0.00    +0.000 A 
ATOM     21  C   UNL     1       3.646   3.452  18.354  0.00  0.00    +0.000 C 
ATOM     22  C   UNL     1       3.674   2.456  19.533  0.00  0.00    +0.000 C 
ATOM     23  C   UNL     1       2.515   2.645  20.530  0.00  0.00    +0.000 C 
ATOM     24  C   UNL     1       2.504   4.064  21.124  0.00  0.00    +0.000 C 
ATOM     25  H   UNL     1       3.414   5.983  17.072  0.00  0.00    +0.000 HD
ENDBRANCH   8  12
BRANCH   3  26
ATOM     26  O   UNL     1      -0.850  13.280  23.606  0.00  0.00    +0.000 OA
ATOM     27  H   UNL     1      -1.499  12.548  23.613  0.00  0.00    +0.000 HD
ENDBRANCH   3  26
BRANCH   1  28
ATOM     28  O   UNL     1      -3.613  12.490  22.175  0.00  0.00    +0.000 OA
BRANCH  28  30
ATOM     29  C   UNL     1      -4.277  12.615  24.474  0.00  0.00    +0.000 C 
ATOM     30  C   UNL     1      -4.486  13.163  23.078  0.00  0.00    +0.000 C 
ENDBRANCH  28  30
ENDBRANCH   1  28
TORSDOF 4
ENDMDL
