MODEL 1
REMARK VINA RESULT:      -8.3      0.000      0.000
REMARK  Name = 
REMARK  13 active torsions:
REMARK  status: ('A' for Active; 'I' for Inactive)
REMARK    1  A    between atoms: C_1  and  O_2
REMARK    2  A    between atoms: O_2  and  C_3
REMARK    3  A    between atoms: C_3  and  C_4
REMARK    4  A    between atoms: C_4  and  N_5
REMARK    5  A    between atoms: N_5  and  C_6
REMARK    6  A    between atoms: N_5  and  C_7
REMARK    7  A    between atoms: C_10  and  C_11
REMARK    8  A    between atoms: C_10  and  C_28
REMARK    9  A    between atoms: C_11  and  O_12
REMARK   10  A    between atoms: O_12  and  C_13
REMARK   11  A    between atoms: C_13  and  C_14
REMARK   12  A    between atoms: C_16  and  C_17
REMARK   13  A    between atoms: C_22  and  C_23
REMARK                            x       y       z     vdW  Elec       q    Type
REMARK                         _______ _______ _______ _____ _____    ______ ____
ROOT
ATOM      1  C   UNL     1      -0.098  11.003  20.982  0.00  0.00    +0.000 C 
ATOM      2  C   UNL     1       0.968  11.821  20.252  0.00  0.00    +0.000 C 
ATOM      3  C   UNL     1       0.495  11.803  18.796  0.00  0.00    +0.000 C 
ATOM      4  C   UNL     1      -0.214  10.432  18.570  0.00  0.00    +0.000 C 
ATOM      5  C   UNL     1      -0.254   9.828  20.006  0.00  0.00    +0.000 C 
ENDROOT
BRANCH   4   6
ATOM      6  C   UNL     1      -1.615  10.584  17.935  0.00  0.00    +0.000 A 
ATOM      7  C   UNL     1      -1.968   9.875  16.774  0.00  0.00    +0.000 A 
ATOM      8  C   UNL     1      -3.211  10.063  16.153  0.00  0.00    +0.000 A 
ATOM      9  C   UNL     1      -4.143  10.934  16.700  0.00  0.00    +0.000 A 
ATOM     10  C   UNL     1      -3.846  11.595  17.885  0.00  0.00    +0.000 A 
ATOM     11  C   UNL     1      -2.608  11.405  18.506  0.00  0.00    +0.000 A 
ENDBRANCH   4   6
BRANCH   1  12
ATOM     12  N   UNL     1       0.278  10.552  22.342  0.00  0.00    +0.000 NA
ATOM     13  C   UNL     1       0.972   9.257  22.281  0.00  0.00    +0.000 C 
BRANCH  12  14
ATOM     14  C   UNL     1      -0.907  10.461  23.228  0.00  0.00    +0.000 C 
BRANCH  14  15
ATOM     15  C   UNL     1      -1.848  11.678  23.161  0.00  0.00    +0.000 C 
BRANCH  15  17
ATOM     16  C   UNL     1      -1.994  13.993  23.553  0.00  0.00    +0.000 C 
ATOM     17  O   UNL     1      -1.142  12.853  23.571  0.00  0.00    +0.000 OA
ENDBRANCH  15  17
ENDBRANCH  14  15
ENDBRANCH  12  14
ENDBRANCH   1  12
BRANCH   4  18
ATOM     18  C   UNL     1       0.653   9.492  17.690  0.00  0.00    +0.000 C 
BRANCH  18  19
ATOM     19  O   UNL     1       1.531   8.689  18.480  0.00  0.00    +0.000 OA
BRANCH  19  20
ATOM     20  C   UNL     1       2.774   8.468  17.817  0.00  0.00    +0.000 C 
BRANCH  20  21
ATOM     21  C   UNL     1       3.187   7.044  18.082  0.00  0.00    +0.000 A 
ATOM     22  C   UNL     1       4.247   6.462  17.378  0.00  0.00    +0.000 A 
ATOM     23  C   UNL     1       4.592   5.116  17.574  0.00  0.00    +0.000 A 
ATOM     24  C   UNL     1       3.873   4.360  18.515  0.00  0.00    +0.000 A 
ATOM     25  C   UNL     1       2.811   4.925  19.239  0.00  0.00    +0.000 A 
ATOM     26  C   UNL     1       2.480   6.270  19.014  0.00  0.00    +0.000 A 
BRANCH  23  27
ATOM     27  C   UNL     1       5.693   4.472  16.766  0.00  0.00    +0.000 C 
ATOM     28  F   UNL     1       5.350   3.261  16.244  0.00  0.00    +0.000 F 
ATOM     29  F   UNL     1       6.081   5.236  15.708  0.00  0.00    +0.000 F 
ATOM     30  F   UNL     1       6.817   4.254  17.504  0.00  0.00    +0.000 F 
ENDBRANCH  23  27
BRANCH  25  31
ATOM     31  C   UNL     1       2.000   4.108  20.217  0.00  0.00    +0.000 C 
ATOM     32  F   UNL     1       1.955   2.782  19.907  0.00  0.00    +0.000 F 
ATOM     33  F   UNL     1       2.493   4.175  21.485  0.00  0.00    +0.000 F 
ATOM     34  F   UNL     1       0.704   4.516  20.293  0.00  0.00    +0.000 F 
ENDBRANCH  25  31
ENDBRANCH  20  21
ENDBRANCH  19  20
ENDBRANCH  18  19
ENDBRANCH   4  18
TORSDOF 11
ENDMDL
MODEL 2
REMARK VINA RESULT:      -8.3      0.618      1.405
REMARK  Name = 
REMARK  13 active torsions:
REMARK  status: ('A' for Active; 'I' for Inactive)
REMARK    1  A    between atoms: C_1  and  O_2
REMARK    2  A    between atoms: O_2  and  C_3
REMARK    3  A    between atoms: C_3  and  C_4
REMARK    4  A    between atoms: C_4  and  N_5
REMARK    5  A    between atoms: N_5  and  C_6
REMARK    6  A    between atoms: N_5  and  C_7
REMARK    7  A    between atoms: C_10  and  C_11
REMARK    8  A    between atoms: C_10  and  C_28
REMARK    9  A    between atoms: C_11  and  O_12
REMARK   10  A    between atoms: O_12  and  C_13
REMARK   11  A    between atoms: C_13  and  C_14
REMARK   12  A    between atoms: C_16  and  C_17
REMARK   13  A    between atoms: C_22  and  C_23
REMARK                            x       y       z     vdW  Elec       q    Type
REMARK                         _______ _______ _______ _____ _____    ______ ____
ROOT
ATOM      1  C   UNL     1       0.022  10.923  21.003  0.00  0.00    +0.000 C 
ATOM      2  C   UNL     1       1.061  11.809  20.317  0.00  0.00    +0.000 C 
ATOM      3  C   UNL     1       0.602  11.835  18.858  0.00  0.00    +0.000 C 
ATOM      4  C   UNL     1      -0.053  10.448  18.568  0.00  0.00    +0.000 C 
ATOM      5  C   UNL     1      -0.081   9.784  19.977  0.00  0.00    +0.000 C 
ENDROOT
BRANCH   4   6
ATOM      6  C   UNL     1      -1.452  10.574  17.925  0.00  0.00    +0.000 A 
ATOM      7  C   UNL     1      -2.408  11.471  18.432  0.00  0.00    +0.000 A 
ATOM      8  C   UNL     1      -3.703  11.537  17.900  0.00  0.00    +0.000 A 
ATOM      9  C   UNL     1      -4.060  10.738  16.822  0.00  0.00    +0.000 A 
ATOM     10  C   UNL     1      -3.113   9.892  16.258  0.00  0.00    +0.000 A 
ATOM     11  C   UNL     1      -1.821   9.828  16.788  0.00  0.00    +0.000 A 
ENDBRANCH   4   6
BRANCH   1  12
ATOM     12  N   UNL     1       0.403  10.430  22.346  0.00  0.00    +0.000 NA
ATOM     13  C   UNL     1       1.078   9.127  22.244  0.00  0.00    +0.000 C 
BRANCH  12  14
ATOM     14  C   UNL     1      -0.775  10.331  23.241  0.00  0.00    +0.000 C 
BRANCH  14  15
ATOM     15  C   UNL     1      -1.774  11.496  23.111  0.00  0.00    +0.000 C 
BRANCH  15  17
ATOM     16  C   UNL     1      -2.047  13.810  23.440  0.00  0.00    +0.000 C 
ATOM     17  O   UNL     1      -1.133  12.719  23.486  0.00  0.00    +0.000 OA
ENDBRANCH  15  17
ENDBRANCH  14  15
ENDBRANCH  12  14
ENDBRANCH   1  12
BRANCH   4  18
ATOM     18  C   UNL     1       0.857   9.579  17.658  0.00  0.00    +0.000 C 
BRANCH  18  19
ATOM     19  O   UNL     1       1.329   8.416  18.339  0.00  0.00    +0.000 OA
BRANCH  19  20
ATOM     20  C   UNL     1       2.746   8.289  18.236  0.00  0.00    +0.000 C 
BRANCH  20  21
ATOM     21  C   UNL     1       3.063   6.827  18.069  0.00  0.00    +0.000 A 
ATOM     22  C   UNL     1       4.148   6.413  17.287  0.00  0.00    +0.000 A 
ATOM     23  C   UNL     1       4.408   5.050  17.075  0.00  0.00    +0.000 A 
ATOM     24  C   UNL     1       3.575   4.096  17.685  0.00  0.00    +0.000 A 
ATOM     25  C   UNL     1       2.486   4.488  18.480  0.00  0.00    +0.000 A 
ATOM     26  C   UNL     1       2.243   5.858  18.665  0.00  0.00    +0.000 A 
BRANCH  23  27
ATOM     27  C   UNL     1       5.538   4.607  16.178  0.00  0.00    +0.000 C 
ATOM     28  F   UNL     1       5.590   5.278  14.993  0.00  0.00    +0.000 F 
ATOM     29  F   UNL     1       6.760   4.774  16.755  0.00  0.00    +0.000 F 
ATOM     30  F   UNL     1       5.454   3.287  15.854  0.00  0.00    +0.000 F 
ENDBRANCH  23  27
BRANCH  25  31
ATOM     31  C   UNL     1       1.557   3.472  19.100  0.00  0.00    +0.000 C 
ATOM     32  F   UNL     1       0.755   3.994  20.070  0.00  0.00    +0.000 F 
ATOM     33  F   UNL     1       0.717   2.909  18.188  0.00  0.00    +0.000 F 
ATOM     34  F   UNL     1       2.224   2.440  19.687  0.00  0.00    +0.000 F 
ENDBRANCH  25  31
ENDBRANCH  20  21
ENDBRANCH  19  20
ENDBRANCH  18  19
ENDBRANCH   4  18
TORSDOF 11
ENDMDL
MODEL 3
REMARK VINA RESULT:      -8.2      1.053      3.116
REMARK  Name = 
REMARK  13 active torsions:
REMARK  status: ('A' for Active; 'I' for Inactive)
REMARK    1  A    between atoms: C_1  and  O_2
REMARK    2  A    between atoms: O_2  and  C_3
REMARK    3  A    between atoms: C_3  and  C_4
REMARK    4  A    between atoms: C_4  and  N_5
REMARK    5  A    between atoms: N_5  and  C_6
REMARK    6  A    between atoms: N_5  and  C_7
REMARK    7  A    between atoms: C_10  and  C_11
REMARK    8  A    between atoms: C_10  and  C_28
REMARK    9  A    between atoms: C_11  and  O_12
REMARK   10  A    between atoms: O_12  and  C_13
REMARK   11  A    between atoms: C_13  and  C_14
REMARK   12  A    between atoms: C_16  and  C_17
REMARK   13  A    between atoms: C_22  and  C_23
REMARK                            x       y       z     vdW  Elec       q    Type
REMARK                         _______ _______ _______ _____ _____    ______ ____
ROOT
ATOM      1  C   UNL     1       0.015  10.931  20.895  0.00  0.00    +0.000 C 
ATOM      2  C   UNL     1       1.145  11.615  20.126  0.00  0.00    +0.000 C 
ATOM      3  C   UNL     1       0.678  11.546  18.670  0.00  0.00    +0.000 C 
ATOM      4  C   UNL     1      -0.137  10.223  18.521  0.00  0.00    +0.000 C 
ATOM      5  C   UNL     1      -0.230   9.714  19.991  0.00  0.00    +0.000 C 
ENDROOT
BRANCH   4   6
ATOM      6  C   UNL     1      -1.518  10.447  17.865  0.00  0.00    +0.000 A 
ATOM      7  C   UNL     1      -1.905   9.728  16.721  0.00  0.00    +0.000 A 
ATOM      8  C   UNL     1      -3.126   9.977  16.079  0.00  0.00    +0.000 A 
ATOM      9  C   UNL     1      -4.006  10.922  16.590  0.00  0.00    +0.000 A 
ATOM     10  C   UNL     1      -3.678  11.597  17.758  0.00  0.00    +0.000 A 
ATOM     11  C   UNL     1      -2.461  11.347  18.399  0.00  0.00    +0.000 A 
ENDBRANCH   4   6
BRANCH   1  12
ATOM     12  N   UNL     1       0.347  10.536  22.283  0.00  0.00    +0.000 NA
ATOM     13  C   UNL     1       0.894   9.171  22.313  0.00  0.00    +0.000 C 
BRANCH  12  14
ATOM     14  C   UNL     1      -0.835  10.637  23.172  0.00  0.00    +0.000 C 
BRANCH  14  15
ATOM     15  C   UNL     1      -1.476  12.036  23.224  0.00  0.00    +0.000 C 
BRANCH  15  17
ATOM     16  C   UNL     1      -3.686  12.464  23.910  0.00  0.00    +0.000 C 
ATOM     17  O   UNL     1      -2.861  11.941  22.875  0.00  0.00    +0.000 OA
ENDBRANCH  15  17
ENDBRANCH  14  15
ENDBRANCH  12  14
ENDBRANCH   1  12
BRANCH   4  18
ATOM     18  C   UNL     1       0.657   9.165  17.708  0.00  0.00    +0.000 C 
BRANCH  18  19
ATOM     19  O   UNL     1       1.574   8.445  18.531  0.00  0.00    +0.000 OA
BRANCH  19  20
ATOM     20  C   UNL     1       2.904   8.519  18.021  0.00  0.00    +0.000 C 
BRANCH  20  21
ATOM     21  C   UNL     1       3.350   7.118  17.700  0.00  0.00    +0.000 A 
ATOM     22  C   UNL     1       2.547   6.018  18.022  0.00  0.00    +0.000 A 
ATOM     23  C   UNL     1       2.988   4.707  17.785  0.00  0.00    +0.000 A 
ATOM     24  C   UNL     1       4.245   4.509  17.190  0.00  0.00    +0.000 A 
ATOM     25  C   UNL     1       5.064   5.598  16.851  0.00  0.00    +0.000 A 
ATOM     26  C   UNL     1       4.603   6.898  17.109  0.00  0.00    +0.000 A 
BRANCH  23  27
ATOM     27  C   UNL     1       2.148   3.521  18.194  0.00  0.00    +0.000 C 
ATOM     28  F   UNL     1       2.210   2.480  17.317  0.00  0.00    +0.000 F 
ATOM     29  F   UNL     1       2.515   3.012  19.403  0.00  0.00    +0.000 F 
ATOM     30  F   UNL     1       0.828   3.835  18.305  0.00  0.00    +0.000 F 
ENDBRANCH  23  27
BRANCH  25  31
ATOM     31  C   UNL     1       6.437   5.396  16.254  0.00  0.00    +0.000 C 
ATOM     32  F   UNL     1       7.330   6.360  16.613  0.00  0.00    +0.000 F 
ATOM     33  F   UNL     1       6.999   4.213  16.628  0.00  0.00    +0.000 F 
ATOM     34  F   UNL     1       6.422   5.393  14.893  0.00  0.00    +0.000 F 
ENDBRANCH  25  31
ENDBRANCH  20  21
ENDBRANCH  19  20
ENDBRANCH  18  19
ENDBRANCH   4  18
TORSDOF 11
ENDMDL
MODEL 4
REMARK VINA RESULT:      -8.2      4.276      9.245
REMARK  Name = 
REMARK  13 active torsions:
REMARK  status: ('A' for Active; 'I' for Inactive)
REMARK    1  A    between atoms: C_1  and  O_2
REMARK    2  A    between atoms: O_2  and  C_3
REMARK    3  A    between atoms: C_3  and  C_4
REMARK    4  A    between atoms: C_4  and  N_5
REMARK    5  A    between atoms: N_5  and  C_6
REMARK    6  A    between atoms: N_5  and  C_7
REMARK    7  A    between atoms: C_10  and  C_11
REMARK    8  A    between atoms: C_10  and  C_28
REMARK    9  A    between atoms: C_11  and  O_12
REMARK   10  A    between atoms: O_12  and  C_13
REMARK   11  A    between atoms: C_13  and  C_14
REMARK   12  A    between atoms: C_16  and  C_17
REMARK   13  A    between atoms: C_22  and  C_23
REMARK                            x       y       z     vdW  Elec       q    Type
REMARK                         _______ _______ _______ _____ _____    ______ ____
ROOT
ATOM      1  C   UNL     1       5.839   4.314  17.118  0.00  0.00    +0.000 C 
ATOM      2  C   UNL     1       6.558   5.059  18.243  0.00  0.00    +0.000 C 
ATOM      3  C   UNL     1       5.424   5.446  19.195  0.00  0.00    +0.000 C 
ATOM      4  C   UNL     1       4.161   5.698  18.314  0.00  0.00    +0.000 C 
ATOM      5  C   UNL     1       4.637   5.245  16.901  0.00  0.00    +0.000 C 
ENDROOT
BRANCH   4   6
ATOM      6  C   UNL     1       2.922   4.924  18.816  0.00  0.00    +0.000 A 
ATOM      7  C   UNL     1       2.437   5.095  20.124  0.00  0.00    +0.000 A 
ATOM      8  C   UNL     1       1.358   4.343  20.608  0.00  0.00    +0.000 A 
ATOM      9  C   UNL     1       0.712   3.432  19.783  0.00  0.00    +0.000 A 
ATOM     10  C   UNL     1       1.128   3.294  18.465  0.00  0.00    +0.000 A 
ATOM     11  C   UNL     1       2.202   4.045  17.981  0.00  0.00    +0.000 A 
ENDBRANCH   4   6
BRANCH   1  12
ATOM     12  N   UNL     1       6.630   4.127  15.880  0.00  0.00    +0.000 NA
ATOM     13  C   UNL     1       7.088   5.425  15.362  0.00  0.00    +0.000 C 
BRANCH  12  14
ATOM     14  C   UNL     1       5.854   3.404  14.845  0.00  0.00    +0.000 C 
BRANCH  14  15
ATOM     15  C   UNL     1       5.841   4.087  13.465  0.00  0.00    +0.000 C 
BRANCH  15  17
ATOM     16  C   UNL     1       4.766   3.156  11.590  0.00  0.00    +0.000 C 
ATOM     17  O   UNL     1       5.907   3.092  12.438  0.00  0.00    +0.000 OA
ENDBRANCH  15  17
ENDBRANCH  14  15
ENDBRANCH  12  14
ENDBRANCH   1  12
BRANCH   4  18
ATOM     18  C   UNL     1       3.828   7.212  18.234  0.00  0.00    +0.000 C 
BRANCH  18  19
ATOM     19  O   UNL     1       2.436   7.435  18.008  0.00  0.00    +0.000 OA
BRANCH  19  20
ATOM     20  C   UNL     1       2.181   8.781  17.609  0.00  0.00    +0.000 C 
BRANCH  20  21
ATOM     21  C   UNL     1       1.083   9.318  18.488  0.00  0.00    +0.000 A 
ATOM     22  C   UNL     1       1.131   9.154  19.878  0.00  0.00    +0.000 A 
ATOM     23  C   UNL     1       0.079   9.594  20.694  0.00  0.00    +0.000 A 
ATOM     24  C   UNL     1      -1.022  10.233  20.100  0.00  0.00    +0.000 A 
ATOM     25  C   UNL     1      -1.088  10.417  18.709  0.00  0.00    +0.000 A 
ATOM     26  C   UNL     1      -0.026   9.957  17.915  0.00  0.00    +0.000 A 
BRANCH  23  27
ATOM     27  C   UNL     1       0.102   9.355  22.185  0.00  0.00    +0.000 C 
ATOM     28  F   UNL     1      -0.868   8.502  22.617  0.00  0.00    +0.000 F 
ATOM     29  F   UNL     1       1.282   8.825  22.612  0.00  0.00    +0.000 F 
ATOM     30  F   UNL     1      -0.071  10.504  22.895  0.00  0.00    +0.000 F 
ENDBRANCH  23  27
BRANCH  25  31
ATOM     31  C   UNL     1      -2.288  11.060  18.055  0.00  0.00    +0.000 C 
ATOM     32  F   UNL     1      -2.678  12.217  18.660  0.00  0.00    +0.000 F 
ATOM     33  F   UNL     1      -2.061  11.382  16.752  0.00  0.00    +0.000 F 
ATOM     34  F   UNL     1      -3.383  10.252  18.059  0.00  0.00    +0.000 F 
ENDBRANCH  25  31
ENDBRANCH  20  21
ENDBRANCH  19  20
ENDBRANCH  18  19
ENDBRANCH   4  18
TORSDOF 11
ENDMDL
MODEL 5
REMARK VINA RESULT:      -8.0      4.625      9.208
REMARK  Name = 
REMARK  13 active torsions:
REMARK  status: ('A' for Active; 'I' for Inactive)
REMARK    1  A    between atoms: C_1  and  O_2
REMARK    2  A    between atoms: O_2  and  C_3
REMARK    3  A    between atoms: C_3  and  C_4
REMARK    4  A    between atoms: C_4  and  N_5
REMARK    5  A    between atoms: N_5  and  C_6
REMARK    6  A    between atoms: N_5  and  C_7
REMARK    7  A    between atoms: C_10  and  C_11
REMARK    8  A    between atoms: C_10  and  C_28
REMARK    9  A    between atoms: C_11  and  O_12
REMARK   10  A    between atoms: O_12  and  C_13
REMARK   11  A    between atoms: C_13  and  C_14
REMARK   12  A    between atoms: C_16  and  C_17
REMARK   13  A    between atoms: C_22  and  C_23
REMARK                            x       y       z     vdW  Elec       q    Type
REMARK                         _______ _______ _______ _____ _____    ______ ____
ROOT
ATOM      1  C   UNL     1       5.535   4.501  17.582  0.00  0.00    +0.000 C 
ATOM      2  C   UNL     1       5.847   5.804  18.318  0.00  0.00    +0.000 C 
ATOM      3  C   UNL     1       4.606   6.030  19.184  0.00  0.00    +0.000 C 
ATOM      4  C   UNL     1       3.392   5.456  18.390  0.00  0.00    +0.000 C 
ATOM      5  C   UNL     1       4.078   4.762  17.175  0.00  0.00    +0.000 C 
ENDROOT
BRANCH   4   6
ATOM      6  C   UNL     1       2.530   4.492  19.236  0.00  0.00    +0.000 A 
ATOM      7  C   UNL     1       2.602   4.492  20.639  0.00  0.00    +0.000 A 
ATOM      8  C   UNL     1       1.877   3.572  21.409  0.00  0.00    +0.000 A 
ATOM      9  C   UNL     1       1.033   2.656  20.795  0.00  0.00    +0.000 A 
ATOM     10  C   UNL     1       0.891   2.680  19.414  0.00  0.00    +0.000 A 
ATOM     11  C   UNL     1       1.612   3.600  18.647  0.00  0.00    +0.000 A 
ENDBRANCH   4   6
BRANCH   1  12
ATOM     12  N   UNL     1       6.398   4.215  16.413  0.00  0.00    +0.000 NA
ATOM     13  C   UNL     1       7.169   5.411  16.039  0.00  0.00    +0.000 C 
BRANCH  12  14
ATOM     14  C   UNL     1       5.604   3.733  15.259  0.00  0.00    +0.000 C 
BRANCH  14  15
ATOM     15  C   UNL     1       6.234   4.024  13.884  0.00  0.00    +0.000 C 
BRANCH  15  17
ATOM     16  C   UNL     1       5.833   2.769  11.935  0.00  0.00    +0.000 C 
ATOM     17  O   UNL     1       5.294   3.715  12.851  0.00  0.00    +0.000 OA
ENDBRANCH  15  17
ENDBRANCH  14  15
ENDBRANCH  12  14
ENDBRANCH   1  12
BRANCH   4  18
ATOM     18  C   UNL     1       2.497   6.597  17.834  0.00  0.00    +0.000 C 
BRANCH  18  19
ATOM     19  O   UNL     1       2.512   7.743  18.685  0.00  0.00    +0.000 OA
BRANCH  19  20
ATOM     20  C   UNL     1       2.127   8.922  17.981  0.00  0.00    +0.000 C 
BRANCH  20  21
ATOM     21  C   UNL     1       1.367   9.799  18.939  0.00  0.00    +0.000 A 
ATOM     22  C   UNL     1       1.157  11.155  18.658  0.00  0.00    +0.000 A 
ATOM     23  C   UNL     1       0.508  11.992  19.578  0.00  0.00    +0.000 A 
ATOM     24  C   UNL     1       0.039  11.443  20.784  0.00  0.00    +0.000 A 
ATOM     25  C   UNL     1       0.230  10.084  21.083  0.00  0.00    +0.000 A 
ATOM     26  C   UNL     1       0.894   9.273  20.150  0.00  0.00    +0.000 A 
BRANCH  23  27
ATOM     27  C   UNL     1       0.343  13.467  19.302  0.00  0.00    +0.000 C 
ATOM     28  F   UNL     1       1.450  14.049  18.762  0.00  0.00    +0.000 F 
ATOM     29  F   UNL     1      -0.675  13.726  18.435  0.00  0.00    +0.000 F 
ATOM     30  F   UNL     1       0.063  14.176  20.431  0.00  0.00    +0.000 F 
ENDBRANCH  23  27
BRANCH  25  31
ATOM     31  C   UNL     1      -0.227   9.495  22.397  0.00  0.00    +0.000 C 
ATOM     32  F   UNL     1      -1.088  10.300  23.080  0.00  0.00    +0.000 F 
ATOM     33  F   UNL     1      -0.875   8.308  22.238  0.00  0.00    +0.000 F 
ATOM     34  F   UNL     1       0.807   9.250  23.249  0.00  0.00    +0.000 F 
ENDBRANCH  25  31
ENDBRANCH  20  21
ENDBRANCH  19  20
ENDBRANCH  18  19
ENDBRANCH   4  18
TORSDOF 11
ENDMDL
MODEL 6
REMARK VINA RESULT:      -8.0      2.490      4.640
REMARK  Name = 
REMARK  13 active torsions:
REMARK  status: ('A' for Active; 'I' for Inactive)
REMARK    1  A    between atoms: C_1  and  O_2
REMARK    2  A    between atoms: O_2  and  C_3
REMARK    3  A    between atoms: C_3  and  C_4
REMARK    4  A    between atoms: C_4  and  N_5
REMARK    5  A    between atoms: N_5  and  C_6
REMARK    6  A    between atoms: N_5  and  C_7
REMARK    7  A    between atoms: C_10  and  C_11
REMARK    8  A    between atoms: C_10  and  C_28
REMARK    9  A    between atoms: C_11  and  O_12
REMARK   10  A    between atoms: O_12  and  C_13
REMARK   11  A    between atoms: C_13  and  C_14
REMARK   12  A    between atoms: C_16  and  C_17
REMARK   13  A    between atoms: C_22  and  C_23
REMARK                            x       y       z     vdW  Elec       q    Type
REMARK                         _______ _______ _______ _____ _____    ______ ____
ROOT
ATOM      1  C   UNL     1       1.682  12.461  18.600  0.00  0.00    +0.000 C 
ATOM      2  C   UNL     1       2.414  11.174  18.221  0.00  0.00    +0.000 C 
ATOM      3  C   UNL     1       1.287  10.147  18.091  0.00  0.00    +0.000 C 
ATOM      4  C   UNL     1       0.191  10.548  19.127  0.00  0.00    +0.000 C 
ATOM      5  C   UNL     1       0.710  11.918  19.658  0.00  0.00    +0.000 C 
ENDROOT
BRANCH   4   6
ATOM      6  C   UNL     1      -1.218  10.632  18.499  0.00  0.00    +0.000 A 
ATOM      7  C   UNL     1      -2.178  11.536  18.984  0.00  0.00    +0.000 A 
ATOM      8  C   UNL     1      -3.480  11.567  18.467  0.00  0.00    +0.000 A 
ATOM      9  C   UNL     1      -3.842  10.723  17.426  0.00  0.00    +0.000 A 
ATOM     10  C   UNL     1      -2.892   9.868  16.881  0.00  0.00    +0.000 A 
ATOM     11  C   UNL     1      -1.593   9.839  17.395  0.00  0.00    +0.000 A 
ENDBRANCH   4   6
BRANCH   1  12
ATOM     12  N   UNL     1       2.542  13.541  19.135  0.00  0.00    +0.000 NA
ATOM     13  C   UNL     1       2.125  13.902  20.498  0.00  0.00    +0.000 C 
BRANCH  12  14
ATOM     14  C   UNL     1       2.523  14.734  18.257  0.00  0.00    +0.000 C 
BRANCH  14  15
ATOM     15  C   UNL     1       3.883  15.084  17.625  0.00  0.00    +0.000 C 
BRANCH  15  17
ATOM     16  C   UNL     1       6.210  14.993  17.960  0.00  0.00    +0.000 C 
ATOM     17  O   UNL     1       4.938  14.599  18.462  0.00  0.00    +0.000 OA
ENDBRANCH  15  17
ENDBRANCH  14  15
ENDBRANCH  12  14
ENDBRANCH   1  12
BRANCH   4  18
ATOM     18  C   UNL     1       0.165   9.560  20.324  0.00  0.00    +0.000 C 
BRANCH  18  19
ATOM     19  O   UNL     1       1.401   8.858  20.457  0.00  0.00    +0.000 OA
BRANCH  19  20
ATOM     20  C   UNL     1       1.232   7.632  21.166  0.00  0.00    +0.000 C 
BRANCH  20  21
ATOM     21  C   UNL     1       1.722   6.519  20.280  0.00  0.00    +0.000 A 
ATOM     22  C   UNL     1       1.259   5.209  20.450  0.00  0.00    +0.000 A 
ATOM     23  C   UNL     1       1.762   4.157  19.671  0.00  0.00    +0.000 A 
ATOM     24  C   UNL     1       2.726   4.439  18.687  0.00  0.00    +0.000 A 
ATOM     25  C   UNL     1       3.199   5.747  18.493  0.00  0.00    +0.000 A 
ATOM     26  C   UNL     1       2.686   6.778  19.295  0.00  0.00    +0.000 A 
BRANCH  23  27
ATOM     27  C   UNL     1       1.310   2.735  19.901  0.00  0.00    +0.000 C 
ATOM     28  F   UNL     1       0.199   2.393  19.191  0.00  0.00    +0.000 F 
ATOM     29  F   UNL     1       2.263   1.822  19.566  0.00  0.00    +0.000 F 
ATOM     30  F   UNL     1       1.004   2.495  21.207  0.00  0.00    +0.000 F 
ENDBRANCH  23  27
BRANCH  25  31
ATOM     31  C   UNL     1       4.269   6.054  17.471  0.00  0.00    +0.000 C 
ATOM     32  F   UNL     1       5.518   6.146  18.009  0.00  0.00    +0.000 F 
ATOM     33  F   UNL     1       4.352   5.102  16.501  0.00  0.00    +0.000 F 
ATOM     34  F   UNL     1       4.055   7.233  16.827  0.00  0.00    +0.000 F 
ENDBRANCH  25  31
ENDBRANCH  20  21
ENDBRANCH  19  20
ENDBRANCH  18  19
ENDBRANCH   4  18
TORSDOF 11
ENDMDL
MODEL 7
REMARK VINA RESULT:      -8.0      1.011      3.174
REMARK  Name = 
REMARK  13 active torsions:
REMARK  status: ('A' for Active; 'I' for Inactive)
REMARK    1  A    between atoms: C_1  and  O_2
REMARK    2  A    between atoms: O_2  and  C_3
REMARK    3  A    between atoms: C_3  and  C_4
REMARK    4  A    between atoms: C_4  and  N_5
REMARK    5  A    between atoms: N_5  and  C_6
REMARK    6  A    between atoms: N_5  and  C_7
REMARK    7  A    between atoms: C_10  and  C_11
REMARK    8  A    between atoms: C_10  and  C_28
REMARK    9  A    between atoms: C_11  and  O_12
REMARK   10  A    between atoms: O_12  and  C_13
REMARK   11  A    between atoms: C_13  and  C_14
REMARK   12  A    between atoms: C_16  and  C_17
REMARK   13  A    between atoms: C_22  and  C_23
REMARK                            x       y       z     vdW  Elec       q    Type
REMARK                         _______ _______ _______ _____ _____    ______ ____
ROOT
ATOM      1  C   UNL     1      -0.609  11.659  20.928  0.00  0.00    +0.000 C 
ATOM      2  C   UNL     1       0.506  12.380  20.172  0.00  0.00    +0.000 C 
ATOM      3  C   UNL     1       0.144  12.156  18.702  0.00  0.00    +0.000 C 
ATOM      4  C   UNL     1      -0.545  10.758  18.616  0.00  0.00    +0.000 C 
ATOM      5  C   UNL     1      -0.690  10.358  20.115  0.00  0.00    +0.000 C 
ENDROOT
BRANCH   4   6
ATOM      6  C   UNL     1      -1.894  10.805  17.864  0.00  0.00    +0.000 A 
ATOM      7  C   UNL     1      -2.127  10.001  16.735  0.00  0.00    +0.000 A 
ATOM      8  C   UNL     1      -3.321  10.091  16.007  0.00  0.00    +0.000 A 
ATOM      9  C   UNL     1      -4.326  10.958  16.414  0.00  0.00    +0.000 A 
ATOM     10  C   UNL     1      -4.149  11.714  17.566  0.00  0.00    +0.000 A 
ATOM     11  C   UNL     1      -2.959  11.622  18.294  0.00  0.00    +0.000 A 
ENDBRANCH   4   6
BRANCH   1  12
ATOM     12  N   UNL     1      -0.336  11.404  22.361  0.00  0.00    +0.000 NA
ATOM     13  C   UNL     1      -0.515   9.978  22.673  0.00  0.00    +0.000 C 
BRANCH  12  14
ATOM     14  C   UNL     1      -1.200  12.234  23.233  0.00  0.00    +0.000 C 
BRANCH  14  15
ATOM     15  C   UNL     1      -2.684  12.257  22.824  0.00  0.00    +0.000 C 
BRANCH  15  17
ATOM     16  C   UNL     1      -4.623  12.658  24.096  0.00  0.00    +0.000 C 
ATOM     17  O   UNL     1      -3.490  11.815  23.922  0.00  0.00    +0.000 OA
ENDBRANCH  15  17
ENDBRANCH  14  15
ENDBRANCH  12  14
ENDBRANCH   1  12
BRANCH   4  18
ATOM     18  C   UNL     1       0.387   9.716  17.941  0.00  0.00    +0.000 C 
BRANCH  18  19
ATOM     19  O   UNL     1       1.251   9.087  18.888  0.00  0.00    +0.000 OA
BRANCH  19  20
ATOM     20  C   UNL     1       2.568   8.923  18.366  0.00  0.00    +0.000 C 
BRANCH  20  21
ATOM     21  C   UNL     1       2.815   7.447  18.204  0.00  0.00    +0.000 A 
ATOM     22  C   UNL     1       2.117   6.514  18.979  0.00  0.00    +0.000 A 
ATOM     23  C   UNL     1       2.391   5.141  18.880  0.00  0.00    +0.000 A 
ATOM     24  C   UNL     1       3.364   4.707  17.963  0.00  0.00    +0.000 A 
ATOM     25  C   UNL     1       4.071   5.624  17.169  0.00  0.00    +0.000 A 
ATOM     26  C   UNL     1       3.784   6.992  17.298  0.00  0.00    +0.000 A 
BRANCH  23  27
ATOM     27  C   UNL     1       1.684   4.143  19.764  0.00  0.00    +0.000 C 
ATOM     28  F   UNL     1       0.904   3.261  19.078  0.00  0.00    +0.000 F 
ATOM     29  F   UNL     1       2.549   3.385  20.493  0.00  0.00    +0.000 F 
ATOM     30  F   UNL     1       0.860   4.743  20.666  0.00  0.00    +0.000 F 
ENDBRANCH  23  27
BRANCH  25  31
ATOM     31  C   UNL     1       5.153   5.173  16.216  0.00  0.00    +0.000 C 
ATOM     32  F   UNL     1       4.838   4.029  15.545  0.00  0.00    +0.000 F 
ATOM     33  F   UNL     1       5.424   6.102  15.259  0.00  0.00    +0.000 F 
ATOM     34  F   UNL     1       6.334   4.921  16.845  0.00  0.00    +0.000 F 
ENDBRANCH  25  31
ENDBRANCH  20  21
ENDBRANCH  19  20
ENDBRANCH  18  19
ENDBRANCH   4  18
TORSDOF 11
ENDMDL
MODEL 8
REMARK VINA RESULT:      -8.0      4.477      9.155
REMARK  Name = 
REMARK  13 active torsions:
REMARK  status: ('A' for Active; 'I' for Inactive)
REMARK    1  A    between atoms: C_1  and  O_2
REMARK    2  A    between atoms: O_2  and  C_3
REMARK    3  A    between atoms: C_3  and  C_4
REMARK    4  A    between atoms: C_4  and  N_5
REMARK    5  A    between atoms: N_5  and  C_6
REMARK    6  A    between atoms: N_5  and  C_7
REMARK    7  A    between atoms: C_10  and  C_11
REMARK    8  A    between atoms: C_10  and  C_28
REMARK    9  A    between atoms: C_11  and  O_12
REMARK   10  A    between atoms: O_12  and  C_13
REMARK   11  A    between atoms: C_13  and  C_14
REMARK   12  A    between atoms: C_16  and  C_17
REMARK   13  A    between atoms: C_22  and  C_23
REMARK                            x       y       z     vdW  Elec       q    Type
REMARK                         _______ _______ _______ _____ _____    ______ ____
ROOT
ATOM      1  C   UNL     1       5.318   4.408  17.618  0.00  0.00    +0.000 C 
ATOM      2  C   UNL     1       5.670   5.625  18.473  0.00  0.00    +0.000 C 
ATOM      3  C   UNL     1       4.406   5.854  19.305  0.00  0.00    +0.000 C 
ATOM      4  C   UNL     1       3.198   5.422  18.417  0.00  0.00    +0.000 C 
ATOM      5  C   UNL     1       3.897   4.789  17.176  0.00  0.00    +0.000 C 
ENDROOT
BRANCH   4   6
ATOM      6  C   UNL     1       2.245   4.445  19.143  0.00  0.00    +0.000 A 
ATOM      7  C   UNL     1       2.137   4.441  20.544  0.00  0.00    +0.000 A 
ATOM      8  C   UNL     1       1.330   3.510  21.212  0.00  0.00    +0.000 A 
ATOM      9  C   UNL     1       0.581   2.588  20.493  0.00  0.00    +0.000 A 
ATOM     10  C   UNL     1       0.617   2.616  19.105  0.00  0.00    +0.000 A 
ATOM     11  C   UNL     1       1.419   3.546  18.439  0.00  0.00    +0.000 A 
ENDBRANCH   4   6
BRANCH   1  12
ATOM     12  N   UNL     1       6.215   4.168  16.465  0.00  0.00    +0.000 NA
ATOM     13  C   UNL     1       7.503   4.848  16.665  0.00  0.00    +0.000 C 
BRANCH  12  14
ATOM     14  C   UNL     1       5.592   4.607  15.194  0.00  0.00    +0.000 C 
BRANCH  14  15
ATOM     15  C   UNL     1       6.471   4.397  13.947  0.00  0.00    +0.000 C 
BRANCH  15  17
ATOM     16  C   UNL     1       6.606   3.222  11.913  0.00  0.00    +0.000 C 
ATOM     17  O   UNL     1       5.755   3.618  12.983  0.00  0.00    +0.000 OA
ENDBRANCH  15  17
ENDBRANCH  14  15
ENDBRANCH  12  14
ENDBRANCH   1  12
BRANCH   4  18
ATOM     18  C   UNL     1       2.395   6.656  17.924  0.00  0.00    +0.000 C 
BRANCH  18  19
ATOM     19  O   UNL     1       2.646   7.807  18.731  0.00  0.00    +0.000 OA
BRANCH  19  20
ATOM     20  C   UNL     1       2.387   9.013  18.015  0.00  0.00    +0.000 C 
BRANCH  20  21
ATOM     21  C   UNL     1       1.063   9.550  18.489  0.00  0.00    +0.000 A 
ATOM     22  C   UNL     1      -0.035   9.621  17.622  0.00  0.00    +0.000 A 
ATOM     23  C   UNL     1      -1.251  10.181  18.040  0.00  0.00    +0.000 A 
ATOM     24  C   UNL     1      -1.366  10.650  19.360  0.00  0.00    +0.000 A 
ATOM     25  C   UNL     1      -0.281  10.582  20.250  0.00  0.00    +0.000 A 
ATOM     26  C   UNL     1       0.927  10.026  19.801  0.00  0.00    +0.000 A 
BRANCH  23  27
ATOM     27  C   UNL     1      -2.411  10.317  17.084  0.00  0.00    +0.000 C 
ATOM     28  F   UNL     1      -2.442   9.353  16.122  0.00  0.00    +0.000 F 
ATOM     29  F   UNL     1      -3.617  10.255  17.713  0.00  0.00    +0.000 F 
ATOM     30  F   UNL     1      -2.397  11.505  16.419  0.00  0.00    +0.000 F 
ENDBRANCH  23  27
BRANCH  25  31
ATOM     31  C   UNL     1      -0.379  11.126  21.655  0.00  0.00    +0.000 C 
ATOM     32  F   UNL     1       0.132  10.285  22.597  0.00  0.00    +0.000 F 
ATOM     33  F   UNL     1       0.290  12.303  21.806  0.00  0.00    +0.000 F 
ATOM     34  F   UNL     1      -1.664  11.371  22.035  0.00  0.00    +0.000 F 
ENDBRANCH  25  31
ENDBRANCH  20  21
ENDBRANCH  19  20
ENDBRANCH  18  19
ENDBRANCH   4  18
TORSDOF 11
ENDMDL
MODEL 9
REMARK VINA RESULT:      -8.0      4.369      9.346
REMARK  Name = 
REMARK  13 active torsions:
REMARK  status: ('A' for Active; 'I' for Inactive)
REMARK    1  A    between atoms: C_1  and  O_2
REMARK    2  A    between atoms: O_2  and  C_3
REMARK    3  A    between atoms: C_3  and  C_4
REMARK    4  A    between atoms: C_4  and  N_5
REMARK    5  A    between atoms: N_5  and  C_6
REMARK    6  A    between atoms: N_5  and  C_7
REMARK    7  A    between atoms: C_10  and  C_11
REMARK    8  A    between atoms: C_10  and  C_28
REMARK    9  A    between atoms: C_11  and  O_12
REMARK   10  A    between atoms: O_12  and  C_13
REMARK   11  A    between atoms: C_13  and  C_14
REMARK   12  A    between atoms: C_16  and  C_17
REMARK   13  A    between atoms: C_22  and  C_23
REMARK                            x       y       z     vdW  Elec       q    Type
REMARK                         _______ _______ _______ _____ _____    ______ ____
ROOT
ATOM      1  C   UNL     1       5.887   4.313  16.964  0.00  0.00    +0.000 C 
ATOM      2  C   UNL     1       6.642   5.234  17.922  0.00  0.00    +0.000 C 
ATOM      3  C   UNL     1       5.554   5.717  18.884  0.00  0.00    +0.000 C 
ATOM      4  C   UNL     1       4.231   5.801  18.061  0.00  0.00    +0.000 C 
ATOM      5  C   UNL     1       4.638   5.166  16.697  0.00  0.00    +0.000 C 
ENDROOT
BRANCH   4   6
ATOM      6  C   UNL     1       3.056   5.069  18.747  0.00  0.00    +0.000 A 
ATOM      7  C   UNL     1       2.223   4.195  18.028  0.00  0.00    +0.000 A 
ATOM      8  C   UNL     1       1.114   3.584  18.627  0.00  0.00    +0.000 A 
ATOM      9  C   UNL     1       0.834   3.800  19.970  0.00  0.00    +0.000 A 
ATOM     10  C   UNL     1       1.681   4.605  20.721  0.00  0.00    +0.000 A 
ATOM     11  C   UNL     1       2.789   5.212  20.124  0.00  0.00    +0.000 A 
ENDBRANCH   4   6
BRANCH   1  12
ATOM     12  N   UNL     1       6.609   3.977  15.715  0.00  0.00    +0.000 NA
ATOM     13  C   UNL     1       7.330   5.152  15.205  0.00  0.00    +0.000 C 
BRANCH  12  14
ATOM     14  C   UNL     1       5.686   3.450  14.682  0.00  0.00    +0.000 C 
BRANCH  14  15
ATOM     15  C   UNL     1       5.906   4.033  13.274  0.00  0.00    +0.000 C 
BRANCH  15  17
ATOM     16  C   UNL     1       4.606   3.156  11.519  0.00  0.00    +0.000 C 
ATOM     17  O   UNL     1       5.784   2.991  12.300  0.00  0.00    +0.000 OA
ENDBRANCH  15  17
ENDBRANCH  14  15
ENDBRANCH  12  14
ENDBRANCH   1  12
BRANCH   4  18
ATOM     18  C   UNL     1       3.833   7.277  17.791  0.00  0.00    +0.000 C 
BRANCH  18  19
ATOM     19  O   UNL     1       2.631   7.634  18.474  0.00  0.00    +0.000 OA
BRANCH  19  20
ATOM     20  C   UNL     1       1.848   8.550  17.710  0.00  0.00    +0.000 C 
BRANCH  20  21
ATOM     21  C   UNL     1       1.023   9.360  18.673  0.00  0.00    +0.000 A 
ATOM     22  C   UNL     1       1.026   9.069  20.043  0.00  0.00    +0.000 A 
ATOM     23  C   UNL     1       0.208   9.779  20.935  0.00  0.00    +0.000 A 
ATOM     24  C   UNL     1      -0.602  10.814  20.438  0.00  0.00    +0.000 A 
ATOM     25  C   UNL     1      -0.615  11.130  19.070  0.00  0.00    +0.000 A 
ATOM     26  C   UNL     1       0.205  10.396  18.199  0.00  0.00    +0.000 A 
BRANCH  23  27
ATOM     27  C   UNL     1       0.164   9.418  22.400  0.00  0.00    +0.000 C 
ATOM     28  F   UNL     1       1.367   9.026  22.903  0.00  0.00    +0.000 F 
ATOM     29  F   UNL     1      -0.246  10.456  23.182  0.00  0.00    +0.000 F 
ATOM     30  F   UNL     1      -0.697   8.395  22.655  0.00  0.00    +0.000 F 
ENDBRANCH  23  27
BRANCH  25  31
ATOM     31  C   UNL     1      -1.517  12.209  18.518  0.00  0.00    +0.000 C 
ATOM     32  F   UNL     1      -2.092  12.979  19.485  0.00  0.00    +0.000 F 
ATOM     33  F   UNL     1      -0.856  13.072  17.700  0.00  0.00    +0.000 F 
ATOM     34  F   UNL     1      -2.548  11.706  17.784  0.00  0.00    +0.000 F 
ENDBRANCH  25  31
ENDBRANCH  20  21
ENDBRANCH  19  20
ENDBRANCH  18  19
ENDBRANCH   4  18
TORSDOF 11
ENDMDL
