MODEL 1
REMARK VINA RESULT:      -6.1      0.000      0.000
REMARK  Name = 
REMARK  15 active torsions:
REMARK  status: ('A' for Active; 'I' for Inactive)
REMARK    1  A    between atoms: N_1  and  C_2
REMARK    2  A    between atoms: C_2  and  C_3
REMARK    3  A    between atoms: C_3  and  C_4
REMARK    4  A    between atoms: C_4  and  C_5
REMARK    5  A    between atoms: C_5  and  N_6
REMARK    6  A    between atoms: C_7  and  O_9
REMARK    7  A    between atoms: O_9  and  C_10
REMARK    8  A    between atoms: C_10  and  C_11
REMARK    9  A    between atoms: N_13  and  C_14
REMARK   10  A    between atoms: C_14  and  C_15
REMARK   11  A    between atoms: C_15  and  C_16
REMARK   12  A    between atoms: C_16  and  C_17
REMARK   13  A    between atoms: C_17  and  C_18
REMARK   14  A    between atoms: C_18  and  C_19
REMARK   15  A    between atoms: C_19  and  N_20
REMARK                            x       y       z     vdW  Elec       q    Type
REMARK                         _______ _______ _______ _____ _____    ______ ____
ROOT
ATOM      1  C   UNL     1       7.273   6.583  17.774  0.00  0.00    +0.000 C 
ATOM      2  O   UNL     1       8.073   5.867  18.352  0.00  0.00    +0.000 OA
ATOM      3  N   UNL     1       7.425   7.950  17.642  0.00  0.00    +0.000 N 
ATOM      4  H   UNL     1       6.671   8.495  17.239  0.00  0.00    +0.000 HD
ENDROOT
BRANCH   1   5
ATOM      5  C   UNL     1       6.010   6.002  17.112  0.00  0.00    +0.000 C 
BRANCH   5   6
ATOM      6  O   UNL     1       5.996   4.563  17.139  0.00  0.00    +0.000 OA
BRANCH   6   8
ATOM      7  N   UNL     1       4.414   3.086  17.636  0.00  0.00    +0.000 N 
ATOM      8  C   UNL     1       5.285   3.992  18.150  0.00  0.00    +0.000 C 
ATOM      9  O   UNL     1       5.388   4.316  19.320  0.00  0.00    +0.000 OA
ATOM     10  H   UNL     1       4.635   2.810  16.689  0.00  0.00    +0.000 HD
BRANCH   7  11
ATOM     11  C   UNL     1       3.074   2.768  18.130  0.00  0.00    +0.000 C 
BRANCH  11  12
ATOM     12  C   UNL     1       2.036   3.876  18.309  0.00  0.00    +0.000 C 
BRANCH  12  13
ATOM     13  C   UNL     1       1.313   3.970  19.658  0.00  0.00    +0.000 C 
BRANCH  13  14
ATOM     14  C   UNL     1       2.191   4.468  20.796  0.00  0.00    +0.000 C 
BRANCH  14  15
ATOM     15  N   UNL     1       2.870   5.683  20.341  0.00  0.00    +0.000 NA
ATOM     16  H   UNL     1       3.869   5.504  20.241  0.00  0.00    +0.000 HD
ATOM     17  H   UNL     1       2.774   6.424  21.039  0.00  0.00    +0.000 HD
ENDBRANCH  14  15
ENDBRANCH  13  14
ENDBRANCH  12  13
ENDBRANCH  11  12
ENDBRANCH   7  11
ENDBRANCH   6   8
ENDBRANCH   5   6
ENDBRANCH   1   5
BRANCH   3  18
ATOM     18  C   UNL     1       8.497   8.687  18.294  0.00  0.00    +0.000 C 
BRANCH  18  19
ATOM     19  C   UNL     1       8.473  10.197  18.050  0.00  0.00    +0.000 C 
BRANCH  19  20
ATOM     20  C   UNL     1       9.836  10.869  18.145  0.00  0.00    +0.000 C 
BRANCH  20  21
ATOM     21  C   UNL     1       9.993  11.683  19.444  0.00  0.00    +0.000 C 
BRANCH  21  22
ATOM     22  C   UNL     1      11.440  11.927  19.960  0.00  0.00    +0.000 C 
BRANCH  22  23
ATOM     23  C   UNL     1      12.327  12.541  18.888  0.00  0.00    +0.000 C 
BRANCH  23  24
ATOM     24  N   UNL     1      11.850  13.783  18.253  0.00  0.00    +0.000 NA
ATOM     25  C   UNL     1      11.843  13.856  16.975  0.00  0.00    +0.000 C 
ATOM     26  N   UNL     1      12.333  12.990  16.082  0.00  0.00    +0.000 N 
ATOM     27  N   UNL     1      11.176  14.846  16.328  0.00  0.00    +0.000 N 
ATOM     28  H   UNL     1      12.774  12.129  16.352  0.00  0.00    +0.000 HD
ATOM     29  H   UNL     1      12.228  13.136  15.096  0.00  0.00    +0.000 HD
ATOM     30  H   UNL     1      10.508  15.293  16.946  0.00  0.00    +0.000 HD
ATOM     31  H   UNL     1      10.738  14.566  15.460  0.00  0.00    +0.000 HD
ENDBRANCH  23  24
ENDBRANCH  22  23
ENDBRANCH  21  22
ENDBRANCH  20  21
ENDBRANCH  19  20
ENDBRANCH  18  19
ENDBRANCH   3  18
TORSDOF 15
ENDMDL
MODEL 2
REMARK VINA RESULT:      -6.0      2.030     10.169
REMARK  Name = 
REMARK  15 active torsions:
REMARK  status: ('A' for Active; 'I' for Inactive)
REMARK    1  A    between atoms: N_1  and  C_2
REMARK    2  A    between atoms: C_2  and  C_3
REMARK    3  A    between atoms: C_3  and  C_4
REMARK    4  A    between atoms: C_4  and  C_5
REMARK    5  A    between atoms: C_5  and  N_6
REMARK    6  A    between atoms: C_7  and  O_9
REMARK    7  A    between atoms: O_9  and  C_10
REMARK    8  A    between atoms: C_10  and  C_11
REMARK    9  A    between atoms: N_13  and  C_14
REMARK   10  A    between atoms: C_14  and  C_15
REMARK   11  A    between atoms: C_15  and  C_16
REMARK   12  A    between atoms: C_16  and  C_17
REMARK   13  A    between atoms: C_17  and  C_18
REMARK   14  A    between atoms: C_18  and  C_19
REMARK   15  A    between atoms: C_19  and  N_20
REMARK                            x       y       z     vdW  Elec       q    Type
REMARK                         _______ _______ _______ _____ _____    ______ ____
ROOT
ATOM      1  C   UNL     1       7.231   6.839  17.301  0.00  0.00    +0.000 C 
ATOM      2  O   UNL     1       7.596   6.184  16.340  0.00  0.00    +0.000 OA
ATOM      3  N   UNL     1       6.461   6.327  18.329  0.00  0.00    +0.000 N 
ATOM      4  H   UNL     1       6.108   6.955  19.042  0.00  0.00    +0.000 HD
ENDROOT
BRANCH   1   5
ATOM      5  C   UNL     1       7.625   8.320  17.459  0.00  0.00    +0.000 C 
BRANCH   5   6
ATOM      6  O   UNL     1       8.524   8.527  18.562  0.00  0.00    +0.000 OA
BRANCH   6   8
ATOM      7  N   UNL     1       9.382   9.980  20.006  0.00  0.00    +0.000 N 
ATOM      8  C   UNL     1       8.999   9.793  18.717  0.00  0.00    +0.000 C 
ATOM      9  O   UNL     1       9.001  10.631  17.831  0.00  0.00    +0.000 OA
ATOM     10  H   UNL     1       9.505   9.116  20.517  0.00  0.00    +0.000 HD
BRANCH   7  11
ATOM     11  C   UNL     1       9.282  11.212  20.790  0.00  0.00    +0.000 C 
BRANCH  11  12
ATOM     12  C   UNL     1      10.502  12.117  20.963  0.00  0.00    +0.000 C 
BRANCH  12  13
ATOM     13  C   UNL     1      11.141  12.708  19.700  0.00  0.00    +0.000 C 
BRANCH  13  14
ATOM     14  C   UNL     1      12.257  11.855  19.115  0.00  0.00    +0.000 C 
BRANCH  14  15
ATOM     15  N   UNL     1      11.979  11.667  17.690  0.00  0.00    +0.000 NA
ATOM     16  H   UNL     1      10.977  11.539  17.546  0.00  0.00    +0.000 HD
ATOM     17  H   UNL     1      12.434  10.817  17.350  0.00  0.00    +0.000 HD
ENDBRANCH  14  15
ENDBRANCH  13  14
ENDBRANCH  12  13
ENDBRANCH  11  12
ENDBRANCH   7  11
ENDBRANCH   6   8
ENDBRANCH   5   6
ENDBRANCH   1   5
BRANCH   3  18
ATOM     18  C   UNL     1       5.904   4.983  18.297  0.00  0.00    +0.000 C 
BRANCH  18  19
ATOM     19  C   UNL     1       4.544   4.873  17.607  0.00  0.00    +0.000 C 
BRANCH  19  20
ATOM     20  C   UNL     1       4.100   3.444  17.321  0.00  0.00    +0.000 C 
BRANCH  20  21
ATOM     21  C   UNL     1       2.566   3.315  17.256  0.00  0.00    +0.000 C 
BRANCH  21  22
ATOM     22  C   UNL     1       1.899   2.277  18.203  0.00  0.00    +0.000 C 
BRANCH  22  23
ATOM     23  C   UNL     1       1.502   2.898  19.532  0.00  0.00    +0.000 C 
BRANCH  23  24
ATOM     24  N   UNL     1       1.366   4.366  19.574  0.00  0.00    +0.000 NA
ATOM     25  C   UNL     1       1.973   5.013  20.497  0.00  0.00    +0.000 C 
ATOM     26  N   UNL     1       2.644   4.539  21.552  0.00  0.00    +0.000 N 
ATOM     27  N   UNL     1       2.113   6.361  20.439  0.00  0.00    +0.000 N 
ATOM     28  H   UNL     1       2.756   3.555  21.722  0.00  0.00    +0.000 HD
ATOM     29  H   UNL     1       3.119   5.149  22.189  0.00  0.00    +0.000 HD
ATOM     30  H   UNL     1       1.943   6.701  19.499  0.00  0.00    +0.000 HD
ATOM     31  H   UNL     1       2.991   6.714  20.800  0.00  0.00    +0.000 HD
ENDBRANCH  23  24
ENDBRANCH  22  23
ENDBRANCH  21  22
ENDBRANCH  20  21
ENDBRANCH  19  20
ENDBRANCH  18  19
ENDBRANCH   3  18
TORSDOF 15
ENDMDL
MODEL 3
REMARK VINA RESULT:      -5.9      6.156      7.642
REMARK  Name = 
REMARK  15 active torsions:
REMARK  status: ('A' for Active; 'I' for Inactive)
REMARK    1  A    between atoms: N_1  and  C_2
REMARK    2  A    between atoms: C_2  and  C_3
REMARK    3  A    between atoms: C_3  and  C_4
REMARK    4  A    between atoms: C_4  and  C_5
REMARK    5  A    between atoms: C_5  and  N_6
REMARK    6  A    between atoms: C_7  and  O_9
REMARK    7  A    between atoms: O_9  and  C_10
REMARK    8  A    between atoms: C_10  and  C_11
REMARK    9  A    between atoms: N_13  and  C_14
REMARK   10  A    between atoms: C_14  and  C_15
REMARK   11  A    between atoms: C_15  and  C_16
REMARK   12  A    between atoms: C_16  and  C_17
REMARK   13  A    between atoms: C_17  and  C_18
REMARK   14  A    between atoms: C_18  and  C_19
REMARK   15  A    between atoms: C_19  and  N_20
REMARK                            x       y       z     vdW  Elec       q    Type
REMARK                         _______ _______ _______ _____ _____    ______ ____
ROOT
ATOM      1  C   UNL     1       4.892   6.131  16.568  0.00  0.00    +0.000 C 
ATOM      2  O   UNL     1       5.305   6.845  15.670  0.00  0.00    +0.000 OA
ATOM      3  N   UNL     1       3.876   6.497  17.430  0.00  0.00    +0.000 N 
ATOM      4  H   UNL     1       3.655   5.897  18.217  0.00  0.00    +0.000 HD
ENDROOT
BRANCH   1   5
ATOM      5  C   UNL     1       5.472   4.724  16.806  0.00  0.00    +0.000 C 
BRANCH   5   6
ATOM      6  O   UNL     1       6.142   4.621  18.075  0.00  0.00    +0.000 OA
BRANCH   6   8
ATOM      7  N   UNL     1       5.137   2.993  19.202  0.00  0.00    +0.000 N 
ATOM      8  C   UNL     1       5.353   4.332  19.146  0.00  0.00    +0.000 C 
ATOM      9  O   UNL     1       4.871   5.176  19.881  0.00  0.00    +0.000 OA
ATOM     10  H   UNL     1       5.790   2.458  18.646  0.00  0.00    +0.000 HD
BRANCH   7  11
ATOM     11  C   UNL     1       3.922   2.310  19.648  0.00  0.00    +0.000 C 
BRANCH  11  12
ATOM     12  C   UNL     1       2.784   2.041  18.662  0.00  0.00    +0.000 C 
BRANCH  12  13
ATOM     13  C   UNL     1       1.861   3.210  18.295  0.00  0.00    +0.000 C 
BRANCH  13  14
ATOM     14  C   UNL     1       1.545   4.137  19.459  0.00  0.00    +0.000 C 
BRANCH  14  15
ATOM     15  N   UNL     1       0.531   3.486  20.289  0.00  0.00    +0.000 NA
ATOM     16  H   UNL     1       0.956   3.137  21.148  0.00  0.00    +0.000 HD
ATOM     17  H   UNL     1       0.145   2.673  19.803  0.00  0.00    +0.000 HD
ENDBRANCH  14  15
ENDBRANCH  13  14
ENDBRANCH  12  13
ENDBRANCH  11  12
ENDBRANCH   7  11
ENDBRANCH   6   8
ENDBRANCH   5   6
ENDBRANCH   1   5
BRANCH   3  18
ATOM     18  C   UNL     1       3.285   7.827  17.427  0.00  0.00    +0.000 C 
BRANCH  18  19
ATOM     19  C   UNL     1       2.282   8.081  18.554  0.00  0.00    +0.000 C 
BRANCH  19  20
ATOM     20  C   UNL     1       1.510   9.389  18.423  0.00  0.00    +0.000 C 
BRANCH  20  21
ATOM     21  C   UNL     1       0.465   9.560  19.542  0.00  0.00    +0.000 C 
BRANCH  21  22
ATOM     22  C   UNL     1       0.474  10.906  20.322  0.00  0.00    +0.000 C 
BRANCH  22  23
ATOM     23  C   UNL     1      -0.835  11.662  20.159  0.00  0.00    +0.000 C 
BRANCH  23  24
ATOM     24  N   UNL     1      -1.678  11.304  19.003  0.00  0.00    +0.000 NA
ATOM     25  C   UNL     1      -1.575  11.995  17.931  0.00  0.00    +0.000 C 
ATOM     26  N   UNL     1      -0.880  13.118  17.719  0.00  0.00    +0.000 N 
ATOM     27  N   UNL     1      -2.110  11.565  16.760  0.00  0.00    +0.000 N 
ATOM     28  H   UNL     1      -0.318  13.547  18.433  0.00  0.00    +0.000 HD
ATOM     29  H   UNL     1      -0.840  13.548  16.815  0.00  0.00    +0.000 HD
ATOM     30  H   UNL     1      -2.318  10.574  16.802  0.00  0.00    +0.000 HD
ATOM     31  H   UNL     1      -1.565  11.788  15.936  0.00  0.00    +0.000 HD
ENDBRANCH  23  24
ENDBRANCH  22  23
ENDBRANCH  21  22
ENDBRANCH  20  21
ENDBRANCH  19  20
ENDBRANCH  18  19
ENDBRANCH   3  18
TORSDOF 15
ENDMDL
MODEL 4
REMARK VINA RESULT:      -5.9      6.138      8.981
REMARK  Name = 
REMARK  15 active torsions:
REMARK  status: ('A' for Active; 'I' for Inactive)
REMARK    1  A    between atoms: N_1  and  C_2
REMARK    2  A    between atoms: C_2  and  C_3
REMARK    3  A    between atoms: C_3  and  C_4
REMARK    4  A    between atoms: C_4  and  C_5
REMARK    5  A    between atoms: C_5  and  N_6
REMARK    6  A    between atoms: C_7  and  O_9
REMARK    7  A    between atoms: O_9  and  C_10
REMARK    8  A    between atoms: C_10  and  C_11
REMARK    9  A    between atoms: N_13  and  C_14
REMARK   10  A    between atoms: C_14  and  C_15
REMARK   11  A    between atoms: C_15  and  C_16
REMARK   12  A    between atoms: C_16  and  C_17
REMARK   13  A    between atoms: C_17  and  C_18
REMARK   14  A    between atoms: C_18  and  C_19
REMARK   15  A    between atoms: C_19  and  N_20
REMARK                            x       y       z     vdW  Elec       q    Type
REMARK                         _______ _______ _______ _____ _____    ______ ____
ROOT
ATOM      1  C   UNL     1       6.858   4.575  18.223  0.00  0.00    +0.000 C 
ATOM      2  O   UNL     1       7.312   5.152  19.196  0.00  0.00    +0.000 OA
ATOM      3  N   UNL     1       5.623   3.955  18.208  0.00  0.00    +0.000 N 
ATOM      4  H   UNL     1       5.355   3.407  17.398  0.00  0.00    +0.000 HD
ENDROOT
BRANCH   1   5
ATOM      5  C   UNL     1       7.636   4.507  16.896  0.00  0.00    +0.000 C 
BRANCH   5   6
ATOM      6  O   UNL     1       7.258   5.560  15.991  0.00  0.00    +0.000 OA
BRANCH   6   8
ATOM      7  N   UNL     1       6.077   4.212  14.679  0.00  0.00    +0.000 N 
ATOM      8  C   UNL     1       6.071   5.395  15.345  0.00  0.00    +0.000 C 
ATOM      9  O   UNL     1       5.185   6.232  15.327  0.00  0.00    +0.000 OA
ATOM     10  H   UNL     1       6.800   3.579  14.994  0.00  0.00    +0.000 HD
BRANCH   7  11
ATOM     11  C   UNL     1       5.442   3.915  13.395  0.00  0.00    +0.000 C 
BRANCH  11  12
ATOM     12  C   UNL     1       6.255   3.299  12.257  0.00  0.00    +0.000 C 
BRANCH  12  13
ATOM     13  C   UNL     1       5.657   2.096  11.516  0.00  0.00    +0.000 C 
BRANCH  13  14
ATOM     14  C   UNL     1       6.692   1.095  11.026  0.00  0.00    +0.000 C 
BRANCH  14  15
ATOM     15  N   UNL     1       6.262  -0.239  11.450  0.00  0.00    +0.000 NA
ATOM     16  H   UNL     1       5.743  -0.692  10.697  0.00  0.00    +0.000 HD
ATOM     17  H   UNL     1       5.622  -0.168  12.244  0.00  0.00    +0.000 HD
ENDBRANCH  14  15
ENDBRANCH  13  14
ENDBRANCH  12  13
ENDBRANCH  11  12
ENDBRANCH   7  11
ENDBRANCH   6   8
ENDBRANCH   5   6
ENDBRANCH   1   5
BRANCH   3  18
ATOM     18  C   UNL     1       4.796   3.822  19.398  0.00  0.00    +0.000 C 
BRANCH  18  19
ATOM     19  C   UNL     1       4.516   2.379  19.821  0.00  0.00    +0.000 C 
BRANCH  19  20
ATOM     20  C   UNL     1       3.307   2.217  20.733  0.00  0.00    +0.000 C 
BRANCH  20  21
ATOM     21  C   UNL     1       1.981   2.468  19.990  0.00  0.00    +0.000 C 
BRANCH  21  22
ATOM     22  C   UNL     1       0.955   3.420  20.669  0.00  0.00    +0.000 C 
BRANCH  22  23
ATOM     23  C   UNL     1       1.343   4.880  20.503  0.00  0.00    +0.000 C 
BRANCH  23  24
ATOM     24  N   UNL     1       1.904   5.283  19.200  0.00  0.00    +0.000 NA
ATOM     25  C   UNL     1       2.430   6.445  19.090  0.00  0.00    +0.000 C 
ATOM     26  N   UNL     1       2.446   7.446  19.976  0.00  0.00    +0.000 N 
ATOM     27  N   UNL     1       3.194   6.775  18.018  0.00  0.00    +0.000 N 
ATOM     28  H   UNL     1       2.028   7.368  20.886  0.00  0.00    +0.000 HD
ATOM     29  H   UNL     1       2.933   8.303  19.792  0.00  0.00    +0.000 HD
ATOM     30  H   UNL     1       3.497   5.945  17.522  0.00  0.00    +0.000 HD
ATOM     31  H   UNL     1       3.978   7.381  18.226  0.00  0.00    +0.000 HD
ENDBRANCH  23  24
ENDBRANCH  22  23
ENDBRANCH  21  22
ENDBRANCH  20  21
ENDBRANCH  19  20
ENDBRANCH  18  19
ENDBRANCH   3  18
TORSDOF 15
ENDMDL
MODEL 5
REMARK VINA RESULT:      -5.9      2.354     10.385
REMARK  Name = 
REMARK  15 active torsions:
REMARK  status: ('A' for Active; 'I' for Inactive)
REMARK    1  A    between atoms: N_1  and  C_2
REMARK    2  A    between atoms: C_2  and  C_3
REMARK    3  A    between atoms: C_3  and  C_4
REMARK    4  A    between atoms: C_4  and  C_5
REMARK    5  A    between atoms: C_5  and  N_6
REMARK    6  A    between atoms: C_7  and  O_9
REMARK    7  A    between atoms: O_9  and  C_10
REMARK    8  A    between atoms: C_10  and  C_11
REMARK    9  A    between atoms: N_13  and  C_14
REMARK   10  A    between atoms: C_14  and  C_15
REMARK   11  A    between atoms: C_15  and  C_16
REMARK   12  A    between atoms: C_16  and  C_17
REMARK   13  A    between atoms: C_17  and  C_18
REMARK   14  A    between atoms: C_18  and  C_19
REMARK   15  A    between atoms: C_19  and  N_20
REMARK                            x       y       z     vdW  Elec       q    Type
REMARK                         _______ _______ _______ _____ _____    ______ ____
ROOT
ATOM      1  C   UNL     1       7.833   7.979  17.799  0.00  0.00    +0.000 C 
ATOM      2  O   UNL     1       7.107   7.696  16.861  0.00  0.00    +0.000 OA
ATOM      3  N   UNL     1       8.281   7.057  18.726  0.00  0.00    +0.000 N 
ATOM      4  H   UNL     1       8.796   7.381  19.537  0.00  0.00    +0.000 HD
ENDROOT
BRANCH   1   5
ATOM      5  C   UNL     1       8.335   9.419  18.018  0.00  0.00    +0.000 C 
BRANCH   5   6
ATOM      6  O   UNL     1       9.042   9.563  19.263  0.00  0.00    +0.000 OA
BRANCH   6   8
ATOM      7  N   UNL     1      10.322  11.079  18.266  0.00  0.00    +0.000 N 
ATOM      8  C   UNL     1       9.722  10.730  19.433  0.00  0.00    +0.000 C 
ATOM      9  O   UNL     1       9.818  11.311  20.500  0.00  0.00    +0.000 OA
ATOM     10  H   UNL     1       9.946  10.594  17.462  0.00  0.00    +0.000 HD
BRANCH   7  11
ATOM     11  C   UNL     1      11.611  11.750  18.100  0.00  0.00    +0.000 C 
BRANCH  11  12
ATOM     12  C   UNL     1      11.677  13.154  17.496  0.00  0.00    +0.000 C 
BRANCH  12  13
ATOM     13  C   UNL     1      10.402  14.007  17.525  0.00  0.00    +0.000 C 
BRANCH  13  14
ATOM     14  C   UNL     1      10.659  15.504  17.434  0.00  0.00    +0.000 C 
BRANCH  14  15
ATOM     15  N   UNL     1      10.693  15.869  16.017  0.00  0.00    +0.000 NA
ATOM     16  H   UNL     1      10.836  16.874  15.920  0.00  0.00    +0.000 HD
ATOM     17  H   UNL     1       9.795  15.658  15.576  0.00  0.00    +0.000 HD
ENDBRANCH  14  15
ENDBRANCH  13  14
ENDBRANCH  12  13
ENDBRANCH  11  12
ENDBRANCH   7  11
ENDBRANCH   6   8
ENDBRANCH   5   6
ENDBRANCH   1   5
BRANCH   3  18
ATOM     18  C   UNL     1       7.823   5.676  18.743  0.00  0.00    +0.000 C 
BRANCH  18  19
ATOM     19  C   UNL     1       6.473   5.461  19.429  0.00  0.00    +0.000 C 
BRANCH  19  20
ATOM     20  C   UNL     1       5.502   4.589  18.642  0.00  0.00    +0.000 C 
BRANCH  20  21
ATOM     21  C   UNL     1       4.649   5.412  17.658  0.00  0.00    +0.000 C 
BRANCH  21  22
ATOM     22  C   UNL     1       3.507   6.280  18.262  0.00  0.00    +0.000 C 
BRANCH  22  23
ATOM     23  C   UNL     1       3.023   5.730  19.594  0.00  0.00    +0.000 C 
BRANCH  23  24
ATOM     24  N   UNL     1       1.791   4.920  19.578  0.00  0.00    +0.000 NA
ATOM     25  C   UNL     1       1.803   3.772  20.146  0.00  0.00    +0.000 C 
ATOM     26  N   UNL     1       2.836   3.107  20.671  0.00  0.00    +0.000 N 
ATOM     27  N   UNL     1       0.652   3.100  20.403  0.00  0.00    +0.000 N 
ATOM     28  H   UNL     1       3.769   3.481  20.684  0.00  0.00    +0.000 HD
ATOM     29  H   UNL     1       2.714   2.226  21.133  0.00  0.00    +0.000 HD
ATOM     30  H   UNL     1      -0.147   3.722  20.353  0.00  0.00    +0.000 HD
ATOM     31  H   UNL     1       0.651   2.576  21.269  0.00  0.00    +0.000 HD
ENDBRANCH  23  24
ENDBRANCH  22  23
ENDBRANCH  21  22
ENDBRANCH  20  21
ENDBRANCH  19  20
ENDBRANCH  18  19
ENDBRANCH   3  18
TORSDOF 15
ENDMDL
MODEL 6
REMARK VINA RESULT:      -5.8      1.496      2.136
REMARK  Name = 
REMARK  15 active torsions:
REMARK  status: ('A' for Active; 'I' for Inactive)
REMARK    1  A    between atoms: N_1  and  C_2
REMARK    2  A    between atoms: C_2  and  C_3
REMARK    3  A    between atoms: C_3  and  C_4
REMARK    4  A    between atoms: C_4  and  C_5
REMARK    5  A    between atoms: C_5  and  N_6
REMARK    6  A    between atoms: C_7  and  O_9
REMARK    7  A    between atoms: O_9  and  C_10
REMARK    8  A    between atoms: C_10  and  C_11
REMARK    9  A    between atoms: N_13  and  C_14
REMARK   10  A    between atoms: C_14  and  C_15
REMARK   11  A    between atoms: C_15  and  C_16
REMARK   12  A    between atoms: C_16  and  C_17
REMARK   13  A    between atoms: C_17  and  C_18
REMARK   14  A    between atoms: C_18  and  C_19
REMARK   15  A    between atoms: C_19  and  N_20
REMARK                            x       y       z     vdW  Elec       q    Type
REMARK                         _______ _______ _______ _____ _____    ______ ____
ROOT
ATOM      1  C   UNL     1       6.516   5.163  18.327  0.00  0.00    +0.000 C 
ATOM      2  O   UNL     1       7.567   4.559  18.463  0.00  0.00    +0.000 OA
ATOM      3  N   UNL     1       6.415   6.390  17.698  0.00  0.00    +0.000 N 
ATOM      4  H   UNL     1       5.528   6.881  17.712  0.00  0.00    +0.000 HD
ENDROOT
BRANCH   1   5
ATOM      5  C   UNL     1       5.185   4.584  18.841  0.00  0.00    +0.000 C 
BRANCH   5   6
ATOM      6  O   UNL     1       5.387   3.500  19.766  0.00  0.00    +0.000 OA
BRANCH   6   8
ATOM      7  N   UNL     1       3.993   2.323  18.500  0.00  0.00    +0.000 N 
ATOM      8  C   UNL     1       4.431   2.531  19.768  0.00  0.00    +0.000 C 
ATOM      9  O   UNL     1       4.005   1.999  20.779  0.00  0.00    +0.000 OA
ATOM     10  H   UNL     1       4.615   2.696  17.795  0.00  0.00    +0.000 HD
BRANCH   7  11
ATOM     11  C   UNL     1       2.635   1.976  18.078  0.00  0.00    +0.000 C 
BRANCH  11  12
ATOM     12  C   UNL     1       1.431   2.685  18.698  0.00  0.00    +0.000 C 
BRANCH  12  13
ATOM     13  C   UNL     1       1.567   4.178  19.024  0.00  0.00    +0.000 C 
BRANCH  13  14
ATOM     14  C   UNL     1       1.325   4.515  20.487  0.00  0.00    +0.000 C 
BRANCH  14  15
ATOM     15  N   UNL     1       2.265   5.572  20.866  0.00  0.00    +0.000 NA
ATOM     16  H   UNL     1       2.910   5.225  21.576  0.00  0.00    +0.000 HD
ATOM     17  H   UNL     1       1.763   6.357  21.286  0.00  0.00    +0.000 HD
ENDBRANCH  14  15
ENDBRANCH  13  14
ENDBRANCH  12  13
ENDBRANCH  11  12
ENDBRANCH   7  11
ENDBRANCH   6   8
ENDBRANCH   5   6
ENDBRANCH   1   5
BRANCH   3  18
ATOM     18  C   UNL     1       7.578   7.139  17.247  0.00  0.00    +0.000 C 
BRANCH  18  19
ATOM     19  C   UNL     1       8.229   8.012  18.322  0.00  0.00    +0.000 C 
BRANCH  19  20
ATOM     20  C   UNL     1       8.225   9.502  18.006  0.00  0.00    +0.000 C 
BRANCH  20  21
ATOM     21  C   UNL     1       9.214  10.285  18.890  0.00  0.00    +0.000 C 
BRANCH  21  22
ATOM     22  C   UNL     1      10.157  11.297  18.178  0.00  0.00    +0.000 C 
BRANCH  22  23
ATOM     23  C   UNL     1       9.454  12.611  17.880  0.00  0.00    +0.000 C 
BRANCH  23  24
ATOM     24  N   UNL     1      10.299  13.744  17.458  0.00  0.00    +0.000 NA
ATOM     25  C   UNL     1      10.657  14.603  18.336  0.00  0.00    +0.000 C 
ATOM     26  N   UNL     1      10.272  14.711  19.612  0.00  0.00    +0.000 N 
ATOM     27  N   UNL     1      11.639  15.505  18.082  0.00  0.00    +0.000 N 
ATOM     28  H   UNL     1       9.627  14.067  20.036  0.00  0.00    +0.000 HD
ATOM     29  H   UNL     1      10.660  15.405  20.221  0.00  0.00    +0.000 HD
ATOM     30  H   UNL     1      12.190  15.221  17.279  0.00  0.00    +0.000 HD
ATOM     31  H   UNL     1      12.233  15.721  18.872  0.00  0.00    +0.000 HD
ENDBRANCH  23  24
ENDBRANCH  22  23
ENDBRANCH  21  22
ENDBRANCH  20  21
ENDBRANCH  19  20
ENDBRANCH  18  19
ENDBRANCH   3  18
TORSDOF 15
ENDMDL
MODEL 7
REMARK VINA RESULT:      -5.8      2.437      9.761
REMARK  Name = 
REMARK  15 active torsions:
REMARK  status: ('A' for Active; 'I' for Inactive)
REMARK    1  A    between atoms: N_1  and  C_2
REMARK    2  A    between atoms: C_2  and  C_3
REMARK    3  A    between atoms: C_3  and  C_4
REMARK    4  A    between atoms: C_4  and  C_5
REMARK    5  A    between atoms: C_5  and  N_6
REMARK    6  A    between atoms: C_7  and  O_9
REMARK    7  A    between atoms: O_9  and  C_10
REMARK    8  A    between atoms: C_10  and  C_11
REMARK    9  A    between atoms: N_13  and  C_14
REMARK   10  A    between atoms: C_14  and  C_15
REMARK   11  A    between atoms: C_15  and  C_16
REMARK   12  A    between atoms: C_16  and  C_17
REMARK   13  A    between atoms: C_17  and  C_18
REMARK   14  A    between atoms: C_18  and  C_19
REMARK   15  A    between atoms: C_19  and  N_20
REMARK                            x       y       z     vdW  Elec       q    Type
REMARK                         _______ _______ _______ _____ _____    ______ ____
ROOT
ATOM      1  C   UNL     1       5.371   5.843  18.505  0.00  0.00    +0.000 C 
ATOM      2  O   UNL     1       5.142   5.431  19.630  0.00  0.00    +0.000 OA
ATOM      3  N   UNL     1       4.443   6.516  17.732  0.00  0.00    +0.000 N 
ATOM      4  H   UNL     1       4.669   6.737  16.769  0.00  0.00    +0.000 HD
ENDROOT
BRANCH   1   5
ATOM      5  C   UNL     1       6.752   5.657  17.849  0.00  0.00    +0.000 C 
BRANCH   5   6
ATOM      6  O   UNL     1       7.776   6.414  18.518  0.00  0.00    +0.000 OA
BRANCH   6   8
ATOM      7  N   UNL     1       8.841   8.332  18.864  0.00  0.00    +0.000 N 
ATOM      8  C   UNL     1       8.034   7.650  18.011  0.00  0.00    +0.000 C 
ATOM      9  O   UNL     1       7.543   8.077  16.980  0.00  0.00    +0.000 OA
ATOM     10  H   UNL     1       9.306   7.738  19.537  0.00  0.00    +0.000 HD
BRANCH   7  11
ATOM     11  C   UNL     1       8.825   9.769  19.139  0.00  0.00    +0.000 C 
BRANCH  11  12
ATOM     12  C   UNL     1       9.494  10.746  18.172  0.00  0.00    +0.000 C 
BRANCH  12  13
ATOM     13  C   UNL     1       9.014  12.203  18.178  0.00  0.00    +0.000 C 
BRANCH  13  14
ATOM     14  C   UNL     1       7.817  12.463  17.274  0.00  0.00    +0.000 C 
BRANCH  14  15
ATOM     15  N   UNL     1       7.551  13.903  17.285  0.00  0.00    +0.000 NA
ATOM     16  H   UNL     1       7.389  14.218  18.241  0.00  0.00    +0.000 HD
ATOM     17  H   UNL     1       6.696  14.107  16.762  0.00  0.00    +0.000 HD
ENDBRANCH  14  15
ENDBRANCH  13  14
ENDBRANCH  12  13
ENDBRANCH  11  12
ENDBRANCH   7  11
ENDBRANCH   6   8
ENDBRANCH   5   6
ENDBRANCH   1   5
BRANCH   3  18
ATOM     18  C   UNL     1       3.057   6.686  18.142  0.00  0.00    +0.000 C 
BRANCH  18  19
ATOM     19  C   UNL     1       2.366   5.402  18.603  0.00  0.00    +0.000 C 
BRANCH  19  20
ATOM     20  C   UNL     1       1.821   5.459  20.025  0.00  0.00    +0.000 C 
BRANCH  20  21
ATOM     21  C   UNL     1       1.071   4.171  20.411  0.00  0.00    +0.000 C 
BRANCH  21  22
ATOM     22  C   UNL     1       1.621   3.363  21.621  0.00  0.00    +0.000 C 
BRANCH  22  23
ATOM     23  C   UNL     1       2.763   2.446  21.216  0.00  0.00    +0.000 C 
BRANCH  23  24
ATOM     24  N   UNL     1       2.811   2.014  19.807  0.00  0.00    +0.000 NA
ATOM     25  C   UNL     1       3.941   2.008  19.205  0.00  0.00    +0.000 C 
ATOM     26  N   UNL     1       5.122   2.467  19.631  0.00  0.00    +0.000 N 
ATOM     27  N   UNL     1       4.102   1.377  18.014  0.00  0.00    +0.000 N 
ATOM     28  H   UNL     1       5.245   2.876  20.541  0.00  0.00    +0.000 HD
ATOM     29  H   UNL     1       5.954   2.365  19.082  0.00  0.00    +0.000 HD
ATOM     30  H   UNL     1       3.343   0.726  17.846  0.00  0.00    +0.000 HD
ATOM     31  H   UNL     1       5.001   0.929  17.889  0.00  0.00    +0.000 HD
ENDBRANCH  23  24
ENDBRANCH  22  23
ENDBRANCH  21  22
ENDBRANCH  20  21
ENDBRANCH  19  20
ENDBRANCH  18  19
ENDBRANCH   3  18
TORSDOF 15
ENDMDL
MODEL 8
REMARK VINA RESULT:      -5.8      5.385      7.394
REMARK  Name = 
REMARK  15 active torsions:
REMARK  status: ('A' for Active; 'I' for Inactive)
REMARK    1  A    between atoms: N_1  and  C_2
REMARK    2  A    between atoms: C_2  and  C_3
REMARK    3  A    between atoms: C_3  and  C_4
REMARK    4  A    between atoms: C_4  and  C_5
REMARK    5  A    between atoms: C_5  and  N_6
REMARK    6  A    between atoms: C_7  and  O_9
REMARK    7  A    between atoms: O_9  and  C_10
REMARK    8  A    between atoms: C_10  and  C_11
REMARK    9  A    between atoms: N_13  and  C_14
REMARK   10  A    between atoms: C_14  and  C_15
REMARK   11  A    between atoms: C_15  and  C_16
REMARK   12  A    between atoms: C_16  and  C_17
REMARK   13  A    between atoms: C_17  and  C_18
REMARK   14  A    between atoms: C_18  and  C_19
REMARK   15  A    between atoms: C_19  and  N_20
REMARK                            x       y       z     vdW  Elec       q    Type
REMARK                         _______ _______ _______ _____ _____    ______ ____
ROOT
ATOM      1  C   UNL     1       2.849   3.005  20.268  0.00  0.00    +0.000 C 
ATOM      2  O   UNL     1       3.994   2.624  20.443  0.00  0.00    +0.000 OA
ATOM      3  N   UNL     1       2.120   2.739  19.124  0.00  0.00    +0.000 N 
ATOM      4  H   UNL     1       1.213   3.175  19.003  0.00  0.00    +0.000 HD
ENDROOT
BRANCH   1   5
ATOM      5  C   UNL     1       2.101   3.816  21.342  0.00  0.00    +0.000 C 
BRANCH   5   6
ATOM      6  O   UNL     1       1.114   4.693  20.770  0.00  0.00    +0.000 OA
BRANCH   6   8
ATOM      7  N   UNL     1       2.082   5.960  19.225  0.00  0.00    +0.000 N 
ATOM      8  C   UNL     1       1.536   5.951  20.468  0.00  0.00    +0.000 C 
ATOM      9  O   UNL     1       1.484   6.890  21.243  0.00  0.00    +0.000 OA
ATOM     10  H   UNL     1       1.834   5.150  18.673  0.00  0.00    +0.000 HD
BRANCH   7  11
ATOM     11  C   UNL     1       3.210   6.767  18.759  0.00  0.00    +0.000 C 
BRANCH  11  12
ATOM     12  C   UNL     1       2.986   7.900  17.756  0.00  0.00    +0.000 C 
BRANCH  12  13
ATOM     13  C   UNL     1       1.628   8.615  17.774  0.00  0.00    +0.000 C 
BRANCH  13  14
ATOM     14  C   UNL     1       1.597   9.859  18.649  0.00  0.00    +0.000 C 
BRANCH  14  15
ATOM     15  N   UNL     1       0.884   9.522  19.883  0.00  0.00    +0.000 NA
ATOM     16  H   UNL     1      -0.076   9.860  19.832  0.00  0.00    +0.000 HD
ATOM     17  H   UNL     1       1.318   9.992  20.681  0.00  0.00    +0.000 HD
ENDBRANCH  14  15
ENDBRANCH  13  14
ENDBRANCH  12  13
ENDBRANCH  11  12
ENDBRANCH   7  11
ENDBRANCH   6   8
ENDBRANCH   5   6
ENDBRANCH   1   5
BRANCH   3  18
ATOM     18  C   UNL     1       2.697   2.083  17.960  0.00  0.00    +0.000 C 
BRANCH  18  19
ATOM     19  C   UNL     1       3.164   3.035  16.858  0.00  0.00    +0.000 C 
BRANCH  19  20
ATOM     20  C   UNL     1       4.536   3.651  17.101  0.00  0.00    +0.000 C 
BRANCH  20  21
ATOM     21  C   UNL     1       5.117   4.294  15.827  0.00  0.00    +0.000 C 
BRANCH  21  22
ATOM     22  C   UNL     1       5.362   5.830  15.854  0.00  0.00    +0.000 C 
BRANCH  22  23
ATOM     23  C   UNL     1       6.746   6.173  16.380  0.00  0.00    +0.000 C 
BRANCH  23  24
ATOM     24  N   UNL     1       6.897   6.303  17.841  0.00  0.00    +0.000 NA
ATOM     25  C   UNL     1       7.568   5.413  18.471  0.00  0.00    +0.000 C 
ATOM     26  N   UNL     1       8.077   4.264  18.012  0.00  0.00    +0.000 N 
ATOM     27  N   UNL     1       7.971   5.608  19.752  0.00  0.00    +0.000 N 
ATOM     28  H   UNL     1       7.986   3.980  17.053  0.00  0.00    +0.000 HD
ATOM     29  H   UNL     1       8.628   3.664  18.595  0.00  0.00    +0.000 HD
ATOM     30  H   UNL     1       7.921   6.590  19.999  0.00  0.00    +0.000 HD
ATOM     31  H   UNL     1       8.881   5.222  19.975  0.00  0.00    +0.000 HD
ENDBRANCH  23  24
ENDBRANCH  22  23
ENDBRANCH  21  22
ENDBRANCH  20  21
ENDBRANCH  19  20
ENDBRANCH  18  19
ENDBRANCH   3  18
TORSDOF 15
ENDMDL
MODEL 9
REMARK VINA RESULT:      -5.8      5.559      9.608
REMARK  Name = 
REMARK  15 active torsions:
REMARK  status: ('A' for Active; 'I' for Inactive)
REMARK    1  A    between atoms: N_1  and  C_2
REMARK    2  A    between atoms: C_2  and  C_3
REMARK    3  A    between atoms: C_3  and  C_4
REMARK    4  A    between atoms: C_4  and  C_5
REMARK    5  A    between atoms: C_5  and  N_6
REMARK    6  A    between atoms: C_7  and  O_9
REMARK    7  A    between atoms: O_9  and  C_10
REMARK    8  A    between atoms: C_10  and  C_11
REMARK    9  A    between atoms: N_13  and  C_14
REMARK   10  A    between atoms: C_14  and  C_15
REMARK   11  A    between atoms: C_15  and  C_16
REMARK   12  A    between atoms: C_16  and  C_17
REMARK   13  A    between atoms: C_17  and  C_18
REMARK   14  A    between atoms: C_18  and  C_19
REMARK   15  A    between atoms: C_19  and  N_20
REMARK                            x       y       z     vdW  Elec       q    Type
REMARK                         _______ _______ _______ _____ _____    ______ ____
ROOT
ATOM      1  C   UNL     1       5.674   5.862  18.344  0.00  0.00    +0.000 C 
ATOM      2  O   UNL     1       5.868   5.378  19.447  0.00  0.00    +0.000 OA
ATOM      3  N   UNL     1       4.416   6.074  17.812  0.00  0.00    +0.000 N 
ATOM      4  H   UNL     1       4.332   6.383  16.850  0.00  0.00    +0.000 HD
ENDROOT
BRANCH   1   5
ATOM      5  C   UNL     1       6.844   6.303  17.445  0.00  0.00    +0.000 C 
BRANCH   5   6
ATOM      6  O   UNL     1       6.511   6.231  16.047  0.00  0.00    +0.000 OA
BRANCH   6   8
ATOM      7  N   UNL     1       6.224   4.960  14.249  0.00  0.00    +0.000 N 
ATOM      8  C   UNL     1       6.950   5.127  15.384  0.00  0.00    +0.000 C 
ATOM      9  O   UNL     1       7.818   4.381  15.806  0.00  0.00    +0.000 OA
ATOM     10  H   UNL     1       5.715   5.789  13.974  0.00  0.00    +0.000 HD
BRANCH   7  11
ATOM     11  C   UNL     1       5.826   3.695  13.630  0.00  0.00    +0.000 C 
BRANCH  11  12
ATOM     12  C   UNL     1       5.480   3.640  12.142  0.00  0.00    +0.000 C 
BRANCH  12  13
ATOM     13  C   UNL     1       5.344   2.260  11.487  0.00  0.00    +0.000 C 
BRANCH  13  14
ATOM     14  C   UNL     1       6.655   1.495  11.381  0.00  0.00    +0.000 C 
BRANCH  14  15
ATOM     15  N   UNL     1       6.337   0.069  11.287  0.00  0.00    +0.000 NA
ATOM     16  H   UNL     1       5.532  -0.067  10.676  0.00  0.00    +0.000 HD
ATOM     17  H   UNL     1       6.071  -0.295  12.205  0.00  0.00    +0.000 HD
ENDBRANCH  14  15
ENDBRANCH  13  14
ENDBRANCH  12  13
ENDBRANCH  11  12
ENDBRANCH   7  11
ENDBRANCH   6   8
ENDBRANCH   5   6
ENDBRANCH   1   5
BRANCH   3  18
ATOM     18  C   UNL     1       3.199   5.621  18.469  0.00  0.00    +0.000 C 
BRANCH  18  19
ATOM     19  C   UNL     1       2.323   4.699  17.620  0.00  0.00    +0.000 C 
BRANCH  19  20
ATOM     20  C   UNL     1       3.008   3.411  17.180  0.00  0.00    +0.000 C 
BRANCH  20  21
ATOM     21  C   UNL     1       2.814   2.273  18.200  0.00  0.00    +0.000 C 
BRANCH  21  22
ATOM     22  C   UNL     1       4.051   1.858  19.046  0.00  0.00    +0.000 C 
BRANCH  22  23
ATOM     23  C   UNL     1       4.091   2.584  20.382  0.00  0.00    +0.000 C 
BRANCH  23  24
ATOM     24  N   UNL     1       3.116   2.162  21.405  0.00  0.00    +0.000 NA
ATOM     25  C   UNL     1       2.112   2.918  21.645  0.00  0.00    +0.000 C 
ATOM     26  N   UNL     1       1.855   4.145  21.181  0.00  0.00    +0.000 N 
ATOM     27  N   UNL     1       1.050   2.474  22.364  0.00  0.00    +0.000 N 
ATOM     28  H   UNL     1       2.467   4.618  20.539  0.00  0.00    +0.000 HD
ATOM     29  H   UNL     1       1.005   4.625  21.407  0.00  0.00    +0.000 HD
ATOM     30  H   UNL     1       1.048   1.461  22.416  0.00  0.00    +0.000 HD
ATOM     31  H   UNL     1       0.151   2.823  22.056  0.00  0.00    +0.000 HD
ENDBRANCH  23  24
ENDBRANCH  22  23
ENDBRANCH  21  22
ENDBRANCH  20  21
ENDBRANCH  19  20
ENDBRANCH  18  19
ENDBRANCH   3  18
TORSDOF 15
ENDMDL
