MODEL 1
REMARK VINA RESULT:      -6.6      0.000      0.000
REMARK  Name = 
REMARK  7 active torsions:
REMARK  status: ('A' for Active; 'I' for Inactive)
REMARK    1  A    between atoms: C_1  and  O_2
REMARK    2  A    between atoms: O_2  and  C_3
REMARK    3  A    between atoms: C_3  and  C_5
REMARK    4  A    between atoms: C_7  and  O_8
REMARK    5  A    between atoms: N_10  and  C_11
REMARK    6  A    between atoms: C_11  and  C_12
REMARK    7  A    between atoms: C_12  and  C_13
REMARK                            x       y       z     vdW  Elec       q    Type
REMARK                         _______ _______ _______ _____ _____    ______ ____
ROOT
ATOM      1  C   UNL     1       6.548   5.637  17.674  0.00  0.00    +0.000 C 
ATOM      2  C   UNL     1       7.205   4.552  16.824  0.00  0.00    +0.000 C 
ATOM      3  C   UNL     1       6.081   4.080  15.928  0.00  0.00    +0.000 C 
ATOM      4  C   UNL     1       5.313   5.365  15.638  0.00  0.00    +0.000 C 
ATOM      5  N   UNL     1       5.454   6.214  16.839  0.00  0.00    +0.000 NA
ENDROOT
BRANCH   1   6
ATOM      6  C   UNL     1       7.565   6.707  18.091  0.00  0.00    +0.000 C 
ATOM      7  O   UNL     1       8.334   6.651  19.043  0.00  0.00    +0.000 OA
BRANCH   6   9
ATOM      8  C   UNL     1       7.968   8.987  17.726  0.00  0.00    +0.000 C 
ATOM      9  O   UNL     1       7.519   7.741  17.196  0.00  0.00    +0.000 OA
ENDBRANCH   6   9
ENDBRANCH   1   6
BRANCH   3  10
ATOM     10  O   UNL     1       5.273   3.125  16.612  0.00  0.00    +0.000 OA
ATOM     11  H   UNL     1       4.493   3.582  16.967  0.00  0.00    +0.000 HD
ENDBRANCH   3  10
BRANCH   5  12
ATOM     12  C   UNL     1       4.185   6.363  17.576  0.00  0.00    +0.000 C 
BRANCH  12  13
ATOM     13  C   UNL     1       4.181   5.685  18.957  0.00  0.00    +0.000 C 
BRANCH  13  14
ATOM     14  C   UNL     1       2.998   4.762  19.112  0.00  0.00    +0.000 A 
ATOM     15  C   UNL     1       2.228   4.779  20.272  0.00  0.00    +0.000 A 
ATOM     16  C   UNL     1       1.165   3.888  20.387  0.00  0.00    +0.000 A 
ATOM     17  C   UNL     1       0.901   3.002  19.351  0.00  0.00    +0.000 A 
ATOM     18  C   UNL     1       1.718   3.044  18.235  0.00  0.00    +0.000 A 
ATOM     19  N   UNL     1       2.758   3.896  18.095  0.00  0.00    +0.000 NA
ENDBRANCH  13  14
ENDBRANCH  12  13
ENDBRANCH   5  12
TORSDOF 6
ENDMDL
MODEL 2
REMARK VINA RESULT:      -6.2      0.749      1.285
REMARK  Name = 
REMARK  7 active torsions:
REMARK  status: ('A' for Active; 'I' for Inactive)
REMARK    1  A    between atoms: C_1  and  O_2
REMARK    2  A    between atoms: O_2  and  C_3
REMARK    3  A    between atoms: C_3  and  C_5
REMARK    4  A    between atoms: C_7  and  O_8
REMARK    5  A    between atoms: N_10  and  C_11
REMARK    6  A    between atoms: C_11  and  C_12
REMARK    7  A    between atoms: C_12  and  C_13
REMARK                            x       y       z     vdW  Elec       q    Type
REMARK                         _______ _______ _______ _____ _____    ______ ____
ROOT
ATOM      1  C   UNL     1       6.549   5.646  17.478  0.00  0.00    +0.000 C 
ATOM      2  C   UNL     1       7.046   4.534  16.557  0.00  0.00    +0.000 C 
ATOM      3  C   UNL     1       5.772   3.968  15.970  0.00  0.00    +0.000 C 
ATOM      4  C   UNL     1       4.896   5.204  15.799  0.00  0.00    +0.000 C 
ATOM      5  N   UNL     1       5.266   6.130  16.889  0.00  0.00    +0.000 NA
ENDROOT
BRANCH   1   6
ATOM      6  C   UNL     1       7.581   6.775  17.592  0.00  0.00    +0.000 C 
ATOM      7  O   UNL     1       7.927   7.539  16.700  0.00  0.00    +0.000 OA
BRANCH   6   9
ATOM      8  C   UNL     1       7.936   5.602  19.590  0.00  0.00    +0.000 C 
ATOM      9  O   UNL     1       8.037   6.836  18.880  0.00  0.00    +0.000 OA
ENDBRANCH   6   9
ENDBRANCH   1   6
BRANCH   3  10
ATOM     10  O   UNL     1       5.190   3.029  16.872  0.00  0.00    +0.000 OA
ATOM     11  H   UNL     1       5.207   2.152  16.455  0.00  0.00    +0.000 HD
ENDBRANCH   3  10
BRANCH   5  12
ATOM     12  C   UNL     1       4.194   6.280  17.891  0.00  0.00    +0.000 C 
BRANCH  12  13
ATOM     13  C   UNL     1       4.399   5.431  19.157  0.00  0.00    +0.000 C 
BRANCH  13  14
ATOM     14  C   UNL     1       3.186   4.583  19.451  0.00  0.00    +0.000 A 
ATOM     15  C   UNL     1       2.167   5.059  20.272  0.00  0.00    +0.000 A 
ATOM     16  C   UNL     1       1.080   4.231  20.544  0.00  0.00    +0.000 A 
ATOM     17  C   UNL     1       1.041   2.954  19.999  0.00  0.00    +0.000 A 
ATOM     18  C   UNL     1       2.097   2.556  19.199  0.00  0.00    +0.000 A 
ATOM     19  N   UNL     1       3.165   3.335  18.918  0.00  0.00    +0.000 NA
ENDBRANCH  13  14
ENDBRANCH  12  13
ENDBRANCH   5  12
TORSDOF 6
ENDMDL
MODEL 3
REMARK VINA RESULT:      -6.2      1.370      1.746
REMARK  Name = 
REMARK  7 active torsions:
REMARK  status: ('A' for Active; 'I' for Inactive)
REMARK    1  A    between atoms: C_1  and  O_2
REMARK    2  A    between atoms: O_2  and  C_3
REMARK    3  A    between atoms: C_3  and  C_5
REMARK    4  A    between atoms: C_7  and  O_8
REMARK    5  A    between atoms: N_10  and  C_11
REMARK    6  A    between atoms: C_11  and  C_12
REMARK    7  A    between atoms: C_12  and  C_13
REMARK                            x       y       z     vdW  Elec       q    Type
REMARK                         _______ _______ _______ _____ _____    ______ ____
ROOT
ATOM      1  C   UNL     1       6.995   5.090  17.306  0.00  0.00    +0.000 C 
ATOM      2  C   UNL     1       7.192   5.160  15.794  0.00  0.00    +0.000 C 
ATOM      3  C   UNL     1       5.971   4.453  15.247  0.00  0.00    +0.000 C 
ATOM      4  C   UNL     1       4.871   4.874  16.216  0.00  0.00    +0.000 C 
ATOM      5  N   UNL     1       5.520   5.049  17.532  0.00  0.00    +0.000 NA
ENDROOT
BRANCH   1   6
ATOM      6  C   UNL     1       7.641   6.292  18.007  0.00  0.00    +0.000 C 
ATOM      7  O   UNL     1       8.131   6.305  19.129  0.00  0.00    +0.000 OA
BRANCH   6   9
ATOM      8  C   UNL     1       8.070   8.582  17.754  0.00  0.00    +0.000 C 
ATOM      9  O   UNL     1       7.631   7.363  17.157  0.00  0.00    +0.000 OA
ENDBRANCH   6   9
ENDBRANCH   1   6
BRANCH   3  10
ATOM     10  O   UNL     1       6.173   3.042  15.259  0.00  0.00    +0.000 OA
ATOM     11  H   UNL     1       6.121   2.718  14.345  0.00  0.00    +0.000 HD
ENDBRANCH   3  10
BRANCH   5  12
ATOM     12  C   UNL     1       5.114   4.016  18.503  0.00  0.00    +0.000 C 
BRANCH  12  13
ATOM     13  C   UNL     1       3.882   3.203  18.072  0.00  0.00    +0.000 C 
BRANCH  13  14
ATOM     14  C   UNL     1       2.910   3.033  19.214  0.00  0.00    +0.000 A 
ATOM     15  C   UNL     1       1.536   3.050  18.988  0.00  0.00    +0.000 A 
ATOM     16  C   UNL     1       0.674   2.922  20.074  0.00  0.00    +0.000 A 
ATOM     17  C   UNL     1       1.201   2.789  21.352  0.00  0.00    +0.000 A 
ATOM     18  C   UNL     1       2.577   2.790  21.491  0.00  0.00    +0.000 A 
ATOM     19  N   UNL     1       3.439   2.913  20.458  0.00  0.00    +0.000 NA
ENDBRANCH  13  14
ENDBRANCH  12  13
ENDBRANCH   5  12
TORSDOF 6
ENDMDL
MODEL 4
REMARK VINA RESULT:      -6.2      0.862      1.642
REMARK  Name = 
REMARK  7 active torsions:
REMARK  status: ('A' for Active; 'I' for Inactive)
REMARK    1  A    between atoms: C_1  and  O_2
REMARK    2  A    between atoms: O_2  and  C_3
REMARK    3  A    between atoms: C_3  and  C_5
REMARK    4  A    between atoms: C_7  and  O_8
REMARK    5  A    between atoms: N_10  and  C_11
REMARK    6  A    between atoms: C_11  and  C_12
REMARK    7  A    between atoms: C_12  and  C_13
REMARK                            x       y       z     vdW  Elec       q    Type
REMARK                         _______ _______ _______ _____ _____    ______ ____
ROOT
ATOM      1  C   UNL     1       6.548   5.823  17.405  0.00  0.00    +0.000 C 
ATOM      2  C   UNL     1       7.249   4.747  16.579  0.00  0.00    +0.000 C 
ATOM      3  C   UNL     1       6.123   4.125  15.783  0.00  0.00    +0.000 C 
ATOM      4  C   UNL     1       5.228   5.319  15.469  0.00  0.00    +0.000 C 
ATOM      5  N   UNL     1       5.361   6.250  16.608  0.00  0.00    +0.000 NA
ENDROOT
BRANCH   1   6
ATOM      6  C   UNL     1       7.488   7.000  17.695  0.00  0.00    +0.000 C 
ATOM      7  O   UNL     1       7.549   8.054  17.075  0.00  0.00    +0.000 OA
BRANCH   6   9
ATOM      8  C   UNL     1       7.665   5.710  19.645  0.00  0.00    +0.000 C 
ATOM      9  O   UNL     1       8.237   6.711  18.803  0.00  0.00    +0.000 OA
ENDBRANCH   6   9
ENDBRANCH   1   6
BRANCH   3  10
ATOM     10  O   UNL     1       5.443   3.149  16.571  0.00  0.00    +0.000 OA
ATOM     11  H   UNL     1       5.184   3.560  17.411  0.00  0.00    +0.000 HD
ENDBRANCH   3  10
BRANCH   5  12
ATOM     12  C   UNL     1       4.128   6.336  17.413  0.00  0.00    +0.000 C 
BRANCH  12  13
ATOM     13  C   UNL     1       4.251   5.709  18.812  0.00  0.00    +0.000 C 
BRANCH  13  14
ATOM     14  C   UNL     1       3.062   4.834  19.127  0.00  0.00    +0.000 A 
ATOM     15  C   UNL     1       2.391   4.154  18.115  0.00  0.00    +0.000 A 
ATOM     16  C   UNL     1       1.279   3.383  18.445  0.00  0.00    +0.000 A 
ATOM     17  C   UNL     1       0.863   3.317  19.768  0.00  0.00    +0.000 A 
ATOM     18  C   UNL     1       1.581   4.029  20.713  0.00  0.00    +0.000 A 
ATOM     19  N   UNL     1       2.662   4.786  20.423  0.00  0.00    +0.000 NA
ENDBRANCH  13  14
ENDBRANCH  12  13
ENDBRANCH   5  12
TORSDOF 6
ENDMDL
MODEL 5
REMARK VINA RESULT:      -6.2      0.902      1.343
REMARK  Name = 
REMARK  7 active torsions:
REMARK  status: ('A' for Active; 'I' for Inactive)
REMARK    1  A    between atoms: C_1  and  O_2
REMARK    2  A    between atoms: O_2  and  C_3
REMARK    3  A    between atoms: C_3  and  C_5
REMARK    4  A    between atoms: C_7  and  O_8
REMARK    5  A    between atoms: N_10  and  C_11
REMARK    6  A    between atoms: C_11  and  C_12
REMARK    7  A    between atoms: C_12  and  C_13
REMARK                            x       y       z     vdW  Elec       q    Type
REMARK                         _______ _______ _______ _____ _____    ______ ____
ROOT
ATOM      1  C   UNL     1       6.714   5.411  17.165  0.00  0.00    +0.000 C 
ATOM      2  C   UNL     1       7.562   4.796  16.053  0.00  0.00    +0.000 C 
ATOM      3  C   UNL     1       6.536   4.337  15.041  0.00  0.00    +0.000 C 
ATOM      4  C   UNL     1       5.473   5.429  15.114  0.00  0.00    +0.000 C 
ATOM      5  N   UNL     1       5.473   5.917  16.508  0.00  0.00    +0.000 NA
ENDROOT
BRANCH   1   6
ATOM      6  C   UNL     1       7.472   6.534  17.884  0.00  0.00    +0.000 C 
ATOM      7  O   UNL     1       8.059   6.448  18.955  0.00  0.00    +0.000 OA
BRANCH   6   9
ATOM      8  C   UNL     1       7.959   8.824  17.758  0.00  0.00    +0.000 C 
ATOM      9  O   UNL     1       7.434   7.664  17.113  0.00  0.00    +0.000 OA
ENDBRANCH   6   9
ENDBRANCH   1   6
BRANCH   3  10
ATOM     10  O   UNL     1       6.011   3.064  15.414  0.00  0.00    +0.000 OA
ATOM     11  H   UNL     1       5.131   3.198  15.801  0.00  0.00    +0.000 HD
ENDBRANCH   3  10
BRANCH   5  12
ATOM     12  C   UNL     1       4.245   5.547  17.236  0.00  0.00    +0.000 C 
BRANCH  12  13
ATOM     13  C   UNL     1       4.393   4.290  18.110  0.00  0.00    +0.000 C 
BRANCH  13  14
ATOM     14  C   UNL     1       3.161   4.059  18.951  0.00  0.00    +0.000 A 
ATOM     15  C   UNL     1       2.184   3.153  18.547  0.00  0.00    +0.000 A 
ATOM     16  C   UNL     1       1.047   2.993  19.335  0.00  0.00    +0.000 A 
ATOM     17  C   UNL     1       0.911   3.742  20.497  0.00  0.00    +0.000 A 
ATOM     18  C   UNL     1       1.924   4.626  20.823  0.00  0.00    +0.000 A 
ATOM     19  N   UNL     1       3.038   4.804  20.078  0.00  0.00    +0.000 NA
ENDBRANCH  13  14
ENDBRANCH  12  13
ENDBRANCH   5  12
TORSDOF 6
ENDMDL
MODEL 6
REMARK VINA RESULT:      -6.1      2.151      2.978
REMARK  Name = 
REMARK  7 active torsions:
REMARK  status: ('A' for Active; 'I' for Inactive)
REMARK    1  A    between atoms: C_1  and  O_2
REMARK    2  A    between atoms: O_2  and  C_3
REMARK    3  A    between atoms: C_3  and  C_5
REMARK    4  A    between atoms: C_7  and  O_8
REMARK    5  A    between atoms: N_10  and  C_11
REMARK    6  A    between atoms: C_11  and  C_12
REMARK    7  A    between atoms: C_12  and  C_13
REMARK                            x       y       z     vdW  Elec       q    Type
REMARK                         _______ _______ _______ _____ _____    ______ ____
ROOT
ATOM      1  C   UNL     1       4.923   5.653  17.936  0.00  0.00    +0.000 C 
ATOM      2  C   UNL     1       6.075   6.536  17.462  0.00  0.00    +0.000 C 
ATOM      3  C   UNL     1       6.750   5.695  16.401  0.00  0.00    +0.000 C 
ATOM      4  C   UNL     1       5.577   4.993  15.726  0.00  0.00    +0.000 C 
ATOM      5  N   UNL     1       4.552   4.796  16.771  0.00  0.00    +0.000 NA
ENDROOT
BRANCH   1   6
ATOM      6  C   UNL     1       3.737   6.498  18.416  0.00  0.00    +0.000 C 
ATOM      7  O   UNL     1       3.154   6.394  19.488  0.00  0.00    +0.000 OA
BRANCH   6   9
ATOM      8  C   UNL     1       2.469   8.395  17.879  0.00  0.00    +0.000 C 
ATOM      9  O   UNL     1       3.446   7.440  17.467  0.00  0.00    +0.000 OA
ENDBRANCH   6   9
ENDBRANCH   1   6
BRANCH   3  10
ATOM     10  O   UNL     1       7.645   4.764  17.006  0.00  0.00    +0.000 OA
ATOM     11  H   UNL     1       8.359   4.572  16.376  0.00  0.00    +0.000 HD
ENDBRANCH   3  10
BRANCH   5  12
ATOM     12  C   UNL     1       4.381   3.376  17.134  0.00  0.00    +0.000 C 
BRANCH  12  13
ATOM     13  C   UNL     1       2.913   2.943  17.285  0.00  0.00    +0.000 C 
BRANCH  13  14
ATOM     14  C   UNL     1       2.464   3.019  18.724  0.00  0.00    +0.000 A 
ATOM     15  C   UNL     1       1.206   3.517  19.052  0.00  0.00    +0.000 A 
ATOM     16  C   UNL     1       0.844   3.599  20.394  0.00  0.00    +0.000 A 
ATOM     17  C   UNL     1       1.744   3.192  21.370  0.00  0.00    +0.000 A 
ATOM     18  C   UNL     1       2.977   2.716  20.960  0.00  0.00    +0.000 A 
ATOM     19  N   UNL     1       3.357   2.625  19.667  0.00  0.00    +0.000 NA
ENDBRANCH  13  14
ENDBRANCH  12  13
ENDBRANCH   5  12
TORSDOF 6
ENDMDL
MODEL 7
REMARK VINA RESULT:      -6.1      2.000      3.110
REMARK  Name = 
REMARK  7 active torsions:
REMARK  status: ('A' for Active; 'I' for Inactive)
REMARK    1  A    between atoms: C_1  and  O_2
REMARK    2  A    between atoms: O_2  and  C_3
REMARK    3  A    between atoms: C_3  and  C_5
REMARK    4  A    between atoms: C_7  and  O_8
REMARK    5  A    between atoms: N_10  and  C_11
REMARK    6  A    between atoms: C_11  and  C_12
REMARK    7  A    between atoms: C_12  and  C_13
REMARK                            x       y       z     vdW  Elec       q    Type
REMARK                         _______ _______ _______ _____ _____    ______ ____
ROOT
ATOM      1  C   UNL     1       5.840   5.338  16.552  0.00  0.00    +0.000 C 
ATOM      2  C   UNL     1       5.939   6.790  17.014  0.00  0.00    +0.000 C 
ATOM      3  C   UNL     1       4.701   6.973  17.864  0.00  0.00    +0.000 C 
ATOM      4  C   UNL     1       4.562   5.624  18.559  0.00  0.00    +0.000 C 
ATOM      5  N   UNL     1       5.086   4.614  17.617  0.00  0.00    +0.000 NA
ENDROOT
BRANCH   1   6
ATOM      6  C   UNL     1       7.231   4.730  16.330  0.00  0.00    +0.000 C 
ATOM      7  O   UNL     1       8.002   4.340  17.198  0.00  0.00    +0.000 OA
BRANCH   6   9
ATOM      8  C   UNL     1       6.311   4.364  14.206  0.00  0.00    +0.000 C 
ATOM      9  O   UNL     1       7.472   4.644  14.987  0.00  0.00    +0.000 OA
ENDBRANCH   6   9
ENDBRANCH   1   6
BRANCH   3  10
ATOM     10  O   UNL     1       3.574   7.260  17.038  0.00  0.00    +0.000 OA
ATOM     11  H   UNL     1       3.274   8.163  17.233  0.00  0.00    +0.000 HD
ENDBRANCH   3  10
BRANCH   5  12
ATOM     12  C   UNL     1       4.026   3.740  17.079  0.00  0.00    +0.000 C 
BRANCH  12  13
ATOM     13  C   UNL     1       3.842   2.428  17.861  0.00  0.00    +0.000 C 
BRANCH  13  14
ATOM     14  C   UNL     1       2.907   2.613  19.030  0.00  0.00    +0.000 A 
ATOM     15  C   UNL     1       1.559   2.899  18.825  0.00  0.00    +0.000 A 
ATOM     16  C   UNL     1       0.737   3.093  19.932  0.00  0.00    +0.000 A 
ATOM     17  C   UNL     1       1.278   3.007  21.208  0.00  0.00    +0.000 A 
ATOM     18  C   UNL     1       2.628   2.727  21.325  0.00  0.00    +0.000 A 
ATOM     19  N   UNL     1       3.451   2.534  20.270  0.00  0.00    +0.000 NA
ENDBRANCH  13  14
ENDBRANCH  12  13
ENDBRANCH   5  12
TORSDOF 6
ENDMDL
MODEL 8
REMARK VINA RESULT:      -6.1      1.354      1.952
REMARK  Name = 
REMARK  7 active torsions:
REMARK  status: ('A' for Active; 'I' for Inactive)
REMARK    1  A    between atoms: C_1  and  O_2
REMARK    2  A    between atoms: O_2  and  C_3
REMARK    3  A    between atoms: C_3  and  C_5
REMARK    4  A    between atoms: C_7  and  O_8
REMARK    5  A    between atoms: N_10  and  C_11
REMARK    6  A    between atoms: C_11  and  C_12
REMARK    7  A    between atoms: C_12  and  C_13
REMARK                            x       y       z     vdW  Elec       q    Type
REMARK                         _______ _______ _______ _____ _____    ______ ____
ROOT
ATOM      1  C   UNL     1       6.965   6.843  17.828  0.00  0.00    +0.000 C 
ATOM      2  C   UNL     1       7.897   5.834  18.494  0.00  0.00    +0.000 C 
ATOM      3  C   UNL     1       7.525   4.524  17.836  0.00  0.00    +0.000 C 
ATOM      4  C   UNL     1       7.227   4.936  16.399  0.00  0.00    +0.000 C 
ATOM      5  N   UNL     1       6.680   6.307  16.464  0.00  0.00    +0.000 NA
ENDROOT
BRANCH   1   6
ATOM      6  C   UNL     1       7.608   8.235  17.765  0.00  0.00    +0.000 C 
ATOM      7  O   UNL     1       7.260   9.166  17.050  0.00  0.00    +0.000 OA
BRANCH   6   9
ATOM      8  C   UNL     1       9.018   9.630  19.013  0.00  0.00    +0.000 C 
ATOM      9  O   UNL     1       8.622   8.300  18.680  0.00  0.00    +0.000 OA
ENDBRANCH   6   9
ENDBRANCH   1   6
BRANCH   3  10
ATOM     10  O   UNL     1       6.379   3.961  18.472  0.00  0.00    +0.000 OA
ATOM     11  H   UNL     1       6.536   3.947  19.430  0.00  0.00    +0.000 HD
ENDBRANCH   3  10
BRANCH   5  12
ATOM     12  C   UNL     1       5.248   6.360  16.113  0.00  0.00    +0.000 C 
BRANCH  12  13
ATOM     13  C   UNL     1       4.323   6.653  17.307  0.00  0.00    +0.000 C 
BRANCH  13  14
ATOM     14  C   UNL     1       3.449   5.465  17.627  0.00  0.00    +0.000 A 
ATOM     15  C   UNL     1       2.391   5.582  18.526  0.00  0.00    +0.000 A 
ATOM     16  C   UNL     1       1.629   4.454  18.818  0.00  0.00    +0.000 A 
ATOM     17  C   UNL     1       1.944   3.243  18.216  0.00  0.00    +0.000 A 
ATOM     18  C   UNL     1       3.015   3.210  17.340  0.00  0.00    +0.000 A 
ATOM     19  N   UNL     1       3.773   4.287  17.038  0.00  0.00    +0.000 NA
ENDBRANCH  13  14
ENDBRANCH  12  13
ENDBRANCH   5  12
TORSDOF 6
ENDMDL
MODEL 9
REMARK VINA RESULT:      -6.1      1.611      1.935
REMARK  Name = 
REMARK  7 active torsions:
REMARK  status: ('A' for Active; 'I' for Inactive)
REMARK    1  A    between atoms: C_1  and  O_2
REMARK    2  A    between atoms: O_2  and  C_3
REMARK    3  A    between atoms: C_3  and  C_5
REMARK    4  A    between atoms: C_7  and  O_8
REMARK    5  A    between atoms: N_10  and  C_11
REMARK    6  A    between atoms: C_11  and  C_12
REMARK    7  A    between atoms: C_12  and  C_13
REMARK                            x       y       z     vdW  Elec       q    Type
REMARK                         _______ _______ _______ _____ _____    ______ ____
ROOT
ATOM      1  C   UNL     1       6.701   4.421  16.726  0.00  0.00    +0.000 C 
ATOM      2  C   UNL     1       7.336   4.835  15.400  0.00  0.00    +0.000 C 
ATOM      3  C   UNL     1       6.237   4.586  14.391  0.00  0.00    +0.000 C 
ATOM      4  C   UNL     1       4.977   4.976  15.156  0.00  0.00    +0.000 C 
ATOM      5  N   UNL     1       5.235   4.655  16.574  0.00  0.00    +0.000 NA
ENDROOT
BRANCH   1   6
ATOM      6  C   UNL     1       7.284   5.224  17.895  0.00  0.00    +0.000 C 
ATOM      7  O   UNL     1       7.203   4.944  19.085  0.00  0.00    +0.000 OA
BRANCH   6   9
ATOM      8  C   UNL     1       7.395   7.562  17.759  0.00  0.00    +0.000 C 
ATOM      9  O   UNL     1       7.965   6.303  17.401  0.00  0.00    +0.000 OA
ENDBRANCH   6   9
ENDBRANCH   1   6
BRANCH   3  10
ATOM     10  O   UNL     1       6.219   3.212  14.011  0.00  0.00    +0.000 OA
ATOM     11  H   UNL     1       6.944   2.757  14.471  0.00  0.00    +0.000 HD
ENDBRANCH   3  10
BRANCH   5  12
ATOM     12  C   UNL     1       4.419   3.524  17.054  0.00  0.00    +0.000 C 
BRANCH  12  13
ATOM     13  C   UNL     1       2.955   3.891  17.351  0.00  0.00    +0.000 C 
BRANCH  13  14
ATOM     14  C   UNL     1       2.577   3.536  18.768  0.00  0.00    +0.000 A 
ATOM     15  C   UNL     1       1.309   3.832  19.262  0.00  0.00    +0.000 A 
ATOM     16  C   UNL     1       1.012   3.517  20.585  0.00  0.00    +0.000 A 
ATOM     17  C   UNL     1       1.984   2.925  21.381  0.00  0.00    +0.000 A 
ATOM     18  C   UNL     1       3.222   2.671  20.816  0.00  0.00    +0.000 A 
ATOM     19  N   UNL     1       3.540   2.966  19.536  0.00  0.00    +0.000 NA
ENDBRANCH  13  14
ENDBRANCH  12  13
ENDBRANCH   5  12
TORSDOF 6
ENDMDL
