MODEL 1
REMARK VINA RESULT:      -8.6      0.000      0.000
REMARK  Name = 
REMARK  9 active torsions:
REMARK  status: ('A' for Active; 'I' for Inactive)
REMARK    1  A    between atoms: C_1  and  C_2
REMARK    2  A    between atoms: C_5  and  C_6
REMARK    3  A    between atoms: C_6  and  N_7
REMARK    4  A    between atoms: C_8  and  C_10
REMARK    5  A    between atoms: C_10  and  N_11
REMARK    6  A    between atoms: C_14  and  S_15
REMARK    7  A    between atoms: S_15  and  C_16
REMARK    8  A    between atoms: C_19  and  C_20
REMARK    9  A    between atoms: C_22  and  C_23
REMARK                            x       y       z     vdW  Elec       q    Type
REMARK                         _______ _______ _______ _____ _____    ______ ____
ROOT
ATOM      1  N   UNL     1       6.118   5.366  18.492  0.00  0.00    +0.000 N 
ATOM      2  N   UNL     1       5.068   5.661  19.346  0.00  0.00    +0.000 NA
ATOM      3  C   UNL     1       4.070   5.002  18.829  0.00  0.00    +0.000 A 
ATOM      4  C   UNL     1       2.640   4.890  19.248  0.00  0.00    +0.000 A 
ATOM      5  N   UNL     1       1.743   4.183  18.628  0.00  0.00    +0.000 NA
ATOM      6  C   UNL     1       2.186   3.498  17.514  0.00  0.00    +0.000 A 
ATOM      7  C   UNL     1       3.445   3.533  17.049  0.00  0.00    +0.000 A 
ATOM      8  N   UNL     1       4.367   4.282  17.717  0.00  0.00    +0.000 N 
ATOM      9  C   UNL     1       5.696   4.505  17.462  0.00  0.00    +0.000 A 
ATOM     10  O   UNL     1       6.365   4.070  16.540  0.00  0.00    +0.000 OA
ENDROOT
BRANCH   1  11
ATOM     11  C   UNL     1       7.433   5.956  18.604  0.00  0.00    +0.000 C 
BRANCH  11  13
ATOM     12  N   UNL     1       8.219   8.275  18.333  0.00  0.00    +0.000 N 
ATOM     13  C   UNL     1       7.584   7.204  17.741  0.00  0.00    +0.000 C 
ATOM     14  O   UNL     1       7.053   7.283  16.632  0.00  0.00    +0.000 OA
ATOM     15  H   UNL     1       8.587   8.146  19.269  0.00  0.00    +0.000 HD
BRANCH  12  16
ATOM     16  C   UNL     1       8.488   9.502  17.616  0.00  0.00    +0.000 C 
BRANCH  16  21
ATOM     17  C   UNL     1      10.363  13.800  21.095  0.00  0.00    +0.000 C 
ATOM     18  C   UNL     1       9.886  12.707  20.184  0.00  0.00    +0.000 A 
ATOM     19  C   UNL     1       9.814  11.395  20.645  0.00  0.00    +0.000 A 
ATOM     20  C   UNL     1       9.333  10.362  19.833  0.00  0.00    +0.000 A 
ATOM     21  C   UNL     1       8.949  10.619  18.516  0.00  0.00    +0.000 A 
ATOM     22  C   UNL     1       9.062  11.933  18.036  0.00  0.00    +0.000 A 
ATOM     23  C   UNL     1       9.525  12.967  18.862  0.00  0.00    +0.000 A 
ENDBRANCH  16  21
ENDBRANCH  12  16
ENDBRANCH  11  13
ENDBRANCH   1  11
BRANCH   4  24
ATOM     24  S   UNL     1       2.360   5.882  20.623  0.00  0.00    +0.000 S 
BRANCH  24  25
ATOM     25  C   UNL     1       1.950   7.436  19.841  0.00  0.00    +0.000 A 
ATOM     26  C   UNL     1       2.378   7.681  18.525  0.00  0.00    +0.000 A 
ATOM     27  C   UNL     1       2.106   8.897  17.890  0.00  0.00    +0.000 A 
ATOM     28  C   UNL     1       1.450   9.912  18.579  0.00  0.00    +0.000 A 
ATOM     29  C   UNL     1       1.110  11.223  17.931  0.00  0.00    +0.000 C 
ATOM     30  C   UNL     1       1.085   9.685  19.909  0.00  0.00    +0.000 A 
ATOM     31  C   UNL     1       1.267   8.444  20.537  0.00  0.00    +0.000 A 
ATOM     32  C   UNL     1       0.704   8.252  21.922  0.00  0.00    +0.000 C 
ENDBRANCH  24  25
ENDBRANCH   4  24
TORSDOF 6
ENDMDL
MODEL 2
REMARK VINA RESULT:      -8.5      0.794      1.206
REMARK  Name = 
REMARK  9 active torsions:
REMARK  status: ('A' for Active; 'I' for Inactive)
REMARK    1  A    between atoms: C_1  and  C_2
REMARK    2  A    between atoms: C_5  and  C_6
REMARK    3  A    between atoms: C_6  and  N_7
REMARK    4  A    between atoms: C_8  and  C_10
REMARK    5  A    between atoms: C_10  and  N_11
REMARK    6  A    between atoms: C_14  and  S_15
REMARK    7  A    between atoms: S_15  and  C_16
REMARK    8  A    between atoms: C_19  and  C_20
REMARK    9  A    between atoms: C_22  and  C_23
REMARK                            x       y       z     vdW  Elec       q    Type
REMARK                         _______ _______ _______ _____ _____    ______ ____
ROOT
ATOM      1  N   UNL     1       6.795   5.665  18.633  0.00  0.00    +0.000 N 
ATOM      2  N   UNL     1       5.620   5.745  19.362  0.00  0.00    +0.000 NA
ATOM      3  C   UNL     1       4.794   5.006  18.676  0.00  0.00    +0.000 A 
ATOM      4  C   UNL     1       3.355   4.670  18.898  0.00  0.00    +0.000 A 
ATOM      5  N   UNL     1       2.647   3.907  18.120  0.00  0.00    +0.000 NA
ATOM      6  C   UNL     1       3.312   3.385  17.029  0.00  0.00    +0.000 A 
ATOM      7  C   UNL     1       4.599   3.626  16.734  0.00  0.00    +0.000 A 
ATOM      8  N   UNL     1       5.320   4.430  17.565  0.00  0.00    +0.000 N 
ATOM      9  C   UNL     1       6.625   4.848  17.501  0.00  0.00    +0.000 A 
ATOM     10  O   UNL     1       7.453   4.586  16.645  0.00  0.00    +0.000 OA
ENDROOT
BRANCH   1  11
ATOM     11  C   UNL     1       7.990   6.412  18.954  0.00  0.00    +0.000 C 
BRANCH  11  13
ATOM     12  N   UNL     1       8.730   8.757  18.798  0.00  0.00    +0.000 N 
ATOM     13  C   UNL     1       8.092   7.712  18.165  0.00  0.00    +0.000 C 
ATOM     14  O   UNL     1       7.521   7.848  17.080  0.00  0.00    +0.000 OA
ATOM     15  H   UNL     1       9.133   8.578  19.711  0.00  0.00    +0.000 HD
BRANCH  12  16
ATOM     16  C   UNL     1       8.956  10.029  18.148  0.00  0.00    +0.000 C 
BRANCH  16  21
ATOM     17  C   UNL     1       9.815  14.401  21.921  0.00  0.00    +0.000 C 
ATOM     18  C   UNL     1       9.589  13.265  20.968  0.00  0.00    +0.000 A 
ATOM     19  C   UNL     1       9.314  13.522  19.626  0.00  0.00    +0.000 A 
ATOM     20  C   UNL     1       9.142  12.483  18.705  0.00  0.00    +0.000 A 
ATOM     21  C   UNL     1       9.201  11.152  19.122  0.00  0.00    +0.000 A 
ATOM     22  C   UNL     1       9.434  10.892  20.481  0.00  0.00    +0.000 A 
ATOM     23  C   UNL     1       9.627  11.937  21.395  0.00  0.00    +0.000 A 
ENDBRANCH  16  21
ENDBRANCH  12  16
ENDBRANCH  11  13
ENDBRANCH   1  11
BRANCH   4  24
ATOM     24  S   UNL     1       2.775   5.496  20.290  0.00  0.00    +0.000 S 
BRANCH  24  25
ATOM     25  C   UNL     1       2.266   7.052  19.574  0.00  0.00    +0.000 A 
ATOM     26  C   UNL     1       2.691   7.387  18.277  0.00  0.00    +0.000 A 
ATOM     27  C   UNL     1       2.341   8.609  17.694  0.00  0.00    +0.000 A 
ATOM     28  C   UNL     1       1.608   9.543  18.420  0.00  0.00    +0.000 A 
ATOM     29  C   UNL     1       1.184  10.855  17.827  0.00  0.00    +0.000 C 
ATOM     30  C   UNL     1       1.245   9.229  19.732  0.00  0.00    +0.000 A 
ATOM     31  C   UNL     1       1.506   7.976  20.306  0.00  0.00    +0.000 A 
ATOM     32  C   UNL     1       0.942   7.681  21.671  0.00  0.00    +0.000 C 
ENDBRANCH  24  25
ENDBRANCH   4  24
TORSDOF 6
ENDMDL
MODEL 3
REMARK VINA RESULT:      -8.4      4.228      6.424
REMARK  Name = 
REMARK  9 active torsions:
REMARK  status: ('A' for Active; 'I' for Inactive)
REMARK    1  A    between atoms: C_1  and  C_2
REMARK    2  A    between atoms: C_5  and  C_6
REMARK    3  A    between atoms: C_6  and  N_7
REMARK    4  A    between atoms: C_8  and  C_10
REMARK    5  A    between atoms: C_10  and  N_11
REMARK    6  A    between atoms: C_14  and  S_15
REMARK    7  A    between atoms: S_15  and  C_16
REMARK    8  A    between atoms: C_19  and  C_20
REMARK    9  A    between atoms: C_22  and  C_23
REMARK                            x       y       z     vdW  Elec       q    Type
REMARK                         _______ _______ _______ _____ _____    ______ ____
ROOT
ATOM      1  N   UNL     1       5.409   4.789  18.872  0.00  0.00    +0.000 N 
ATOM      2  N   UNL     1       4.595   5.907  18.811  0.00  0.00    +0.000 NA
ATOM      3  C   UNL     1       3.518   5.526  19.438  0.00  0.00    +0.000 A 
ATOM      4  C   UNL     1       2.239   6.243  19.727  0.00  0.00    +0.000 A 
ATOM      5  N   UNL     1       1.237   5.730  20.375  0.00  0.00    +0.000 NA
ATOM      6  C   UNL     1       1.409   4.434  20.817  0.00  0.00    +0.000 A 
ATOM      7  C   UNL     1       2.513   3.699  20.608  0.00  0.00    +0.000 A 
ATOM      8  N   UNL     1       3.551   4.259  19.925  0.00  0.00    +0.000 N 
ATOM      9  C   UNL     1       4.770   3.744  19.563  0.00  0.00    +0.000 A 
ATOM     10  O   UNL     1       5.202   2.624  19.777  0.00  0.00    +0.000 OA
ENDROOT
BRANCH   1  11
ATOM     11  C   UNL     1       6.694   4.696  18.217  0.00  0.00    +0.000 C 
BRANCH  11  13
ATOM     12  N   UNL     1       5.596   4.884  16.019  0.00  0.00    +0.000 N 
ATOM     13  C   UNL     1       6.667   5.260  16.801  0.00  0.00    +0.000 C 
ATOM     14  O   UNL     1       7.616   5.905  16.351  0.00  0.00    +0.000 OA
ATOM     15  H   UNL     1       4.877   4.311  16.450  0.00  0.00    +0.000 HD
BRANCH  12  16
ATOM     16  C   UNL     1       5.406   5.389  14.678  0.00  0.00    +0.000 C 
BRANCH  16  21
ATOM     17  C   UNL     1       7.024   1.654  10.492  0.00  0.00    +0.000 C 
ATOM     18  C   UNL     1       6.624   2.627  11.563  0.00  0.00    +0.000 A 
ATOM     19  C   UNL     1       5.309   2.659  12.022  0.00  0.00    +0.000 A 
ATOM     20  C   UNL     1       4.917   3.525  13.050  0.00  0.00    +0.000 A 
ATOM     21  C   UNL     1       5.835   4.413  13.614  0.00  0.00    +0.000 A 
ATOM     22  C   UNL     1       7.149   4.411  13.123  0.00  0.00    +0.000 A 
ATOM     23  C   UNL     1       7.541   3.527  12.108  0.00  0.00    +0.000 A 
ENDBRANCH  16  21
ENDBRANCH  12  16
ENDBRANCH  11  13
ENDBRANCH   1  11
BRANCH   4  24
ATOM     24  S   UNL     1       2.280   7.808  19.018  0.00  0.00    +0.000 S 
BRANCH  24  25
ATOM     25  C   UNL     1       1.304   8.737  20.194  0.00  0.00    +0.000 A 
ATOM     26  C   UNL     1       1.484   8.515  21.569  0.00  0.00    +0.000 A 
ATOM     27  C   UNL     1       0.717   9.197  22.519  0.00  0.00    +0.000 A 
ATOM     28  C   UNL     1      -0.283  10.072  22.109  0.00  0.00    +0.000 A 
ATOM     29  C   UNL     1      -1.112  10.849  23.090  0.00  0.00    +0.000 C 
ATOM     30  C   UNL     1      -0.500  10.239  20.738  0.00  0.00    +0.000 A 
ATOM     31  C   UNL     1       0.314   9.635  19.769  0.00  0.00    +0.000 A 
ATOM     32  C   UNL     1       0.095   9.996  18.322  0.00  0.00    +0.000 C 
ENDBRANCH  24  25
ENDBRANCH   4  24
TORSDOF 6
ENDMDL
MODEL 4
REMARK VINA RESULT:      -8.4      1.186      2.182
REMARK  Name = 
REMARK  9 active torsions:
REMARK  status: ('A' for Active; 'I' for Inactive)
REMARK    1  A    between atoms: C_1  and  C_2
REMARK    2  A    between atoms: C_5  and  C_6
REMARK    3  A    between atoms: C_6  and  N_7
REMARK    4  A    between atoms: C_8  and  C_10
REMARK    5  A    between atoms: C_10  and  N_11
REMARK    6  A    between atoms: C_14  and  S_15
REMARK    7  A    between atoms: S_15  and  C_16
REMARK    8  A    between atoms: C_19  and  C_20
REMARK    9  A    between atoms: C_22  and  C_23
REMARK                            x       y       z     vdW  Elec       q    Type
REMARK                         _______ _______ _______ _____ _____    ______ ____
ROOT
ATOM      1  N   UNL     1       5.913   5.652  18.636  0.00  0.00    +0.000 N 
ATOM      2  N   UNL     1       4.958   6.632  18.423  0.00  0.00    +0.000 NA
ATOM      3  C   UNL     1       3.845   5.956  18.366  0.00  0.00    +0.000 A 
ATOM      4  C   UNL     1       2.434   6.397  18.148  0.00  0.00    +0.000 A 
ATOM      5  N   UNL     1       1.409   5.599  18.118  0.00  0.00    +0.000 NA
ATOM      6  C   UNL     1       1.686   4.261  18.313  0.00  0.00    +0.000 A 
ATOM      7  C   UNL     1       2.915   3.759  18.511  0.00  0.00    +0.000 A 
ATOM      8  N   UNL     1       3.974   4.616  18.538  0.00  0.00    +0.000 N 
ATOM      9  C   UNL     1       5.315   4.381  18.707  0.00  0.00    +0.000 A 
ATOM     10  O   UNL     1       5.872   3.308  18.867  0.00  0.00    +0.000 OA
ENDROOT
BRANCH   1  11
ATOM     11  C   UNL     1       7.334   5.911  18.671  0.00  0.00    +0.000 C 
BRANCH  11  13
ATOM     12  N   UNL     1       7.927   8.274  18.299  0.00  0.00    +0.000 N 
ATOM     13  C   UNL     1       7.744   7.035  17.725  0.00  0.00    +0.000 C 
ATOM     14  O   UNL     1       7.779   6.862  16.505  0.00  0.00    +0.000 OA
ATOM     15  H   UNL     1       7.834   8.344  19.307  0.00  0.00    +0.000 HD
BRANCH  12  16
ATOM     16  C   UNL     1       8.376   9.418  17.537  0.00  0.00    +0.000 C 
BRANCH  16  21
ATOM     17  C   UNL     1      10.412  13.736  20.897  0.00  0.00    +0.000 C 
ATOM     18  C   UNL     1       9.884  12.615  20.051  0.00  0.00    +0.000 A 
ATOM     19  C   UNL     1       9.447  12.866  18.752  0.00  0.00    +0.000 A 
ATOM     20  C   UNL     1       8.990  11.834  17.924  0.00  0.00    +0.000 A 
ATOM     21  C   UNL     1       8.923  10.523  18.401  0.00  0.00    +0.000 A 
ATOM     22  C   UNL     1       9.322  10.276  19.723  0.00  0.00    +0.000 A 
ATOM     23  C   UNL     1       9.799  11.311  20.540  0.00  0.00    +0.000 A 
ENDBRANCH  16  21
ENDBRANCH  12  16
ENDBRANCH  11  13
ENDBRANCH   1  11
BRANCH   4  24
ATOM     24  S   UNL     1       2.392   8.095  17.883  0.00  0.00    +0.000 S 
BRANCH  24  25
ATOM     25  C   UNL     1       1.608   8.653  19.389  0.00  0.00    +0.000 A 
ATOM     26  C   UNL     1       1.646   7.836  20.531  0.00  0.00    +0.000 A 
ATOM     27  C   UNL     1       1.017   8.222  21.719  0.00  0.00    +0.000 A 
ATOM     28  C   UNL     1       0.288   9.406  21.768  0.00  0.00    +0.000 A 
ATOM     29  C   UNL     1      -0.381   9.877  23.028  0.00  0.00    +0.000 C 
ATOM     30  C   UNL     1       0.199  10.182  20.609  0.00  0.00    +0.000 A 
ATOM     31  C   UNL     1       0.896   9.860  19.434  0.00  0.00    +0.000 A 
ATOM     32  C   UNL     1       0.857  10.837  18.288  0.00  0.00    +0.000 C 
ENDBRANCH  24  25
ENDBRANCH   4  24
TORSDOF 6
ENDMDL
MODEL 5
REMARK VINA RESULT:      -8.4      1.670      2.562
REMARK  Name = 
REMARK  9 active torsions:
REMARK  status: ('A' for Active; 'I' for Inactive)
REMARK    1  A    between atoms: C_1  and  C_2
REMARK    2  A    between atoms: C_5  and  C_6
REMARK    3  A    between atoms: C_6  and  N_7
REMARK    4  A    between atoms: C_8  and  C_10
REMARK    5  A    between atoms: C_10  and  N_11
REMARK    6  A    between atoms: C_14  and  S_15
REMARK    7  A    between atoms: S_15  and  C_16
REMARK    8  A    between atoms: C_19  and  C_20
REMARK    9  A    between atoms: C_22  and  C_23
REMARK                            x       y       z     vdW  Elec       q    Type
REMARK                         _______ _______ _______ _____ _____    ______ ____
ROOT
ATOM      1  N   UNL     1       6.198   6.661  17.464  0.00  0.00    +0.000 N 
ATOM      2  N   UNL     1       5.004   7.363  17.494  0.00  0.00    +0.000 NA
ATOM      3  C   UNL     1       4.132   6.454  17.826  0.00  0.00    +0.000 A 
ATOM      4  C   UNL     1       2.653   6.533  18.026  0.00  0.00    +0.000 A 
ATOM      5  N   UNL     1       1.900   5.530  18.363  0.00  0.00    +0.000 NA
ATOM      6  C   UNL     1       2.552   4.327  18.547  0.00  0.00    +0.000 A 
ATOM      7  C   UNL     1       3.873   4.145  18.388  0.00  0.00    +0.000 A 
ATOM      8  N   UNL     1       4.641   5.213  18.033  0.00  0.00    +0.000 N 
ATOM      9  C   UNL     1       5.988   5.309  17.795  0.00  0.00    +0.000 A 
ATOM     10  O   UNL     1       6.822   4.421  17.843  0.00  0.00    +0.000 OA
ENDROOT
BRANCH   1  11
ATOM     11  C   UNL     1       7.455   7.234  17.043  0.00  0.00    +0.000 C 
BRANCH  11  13
ATOM     12  N   UNL     1       8.506   9.255  17.985  0.00  0.00    +0.000 N 
ATOM     13  C   UNL     1       8.188   7.929  18.186  0.00  0.00    +0.000 C 
ATOM     14  O   UNL     1       8.584   7.298  19.169  0.00  0.00    +0.000 OA
ATOM     15  H   UNL     1       8.185   9.690  17.126  0.00  0.00    +0.000 HD
BRANCH  12  16
ATOM     16  C   UNL     1       9.145  10.057  19.004  0.00  0.00    +0.000 C 
BRANCH  16  21
ATOM     17  C   UNL     1      11.210  15.157  17.052  0.00  0.00    +0.000 C 
ATOM     18  C   UNL     1      10.700  13.838  17.554  0.00  0.00    +0.000 A 
ATOM     19  C   UNL     1       9.470  13.768  18.205  0.00  0.00    +0.000 A 
ATOM     20  C   UNL     1       8.947  12.547  18.646  0.00  0.00    +0.000 A 
ATOM     21  C   UNL     1       9.673  11.366  18.478  0.00  0.00    +0.000 A 
ATOM     22  C   UNL     1      10.931  11.442  17.862  0.00  0.00    +0.000 A 
ATOM     23  C   UNL     1      11.440  12.666  17.403  0.00  0.00    +0.000 A 
ENDBRANCH  16  21
ENDBRANCH  12  16
ENDBRANCH  11  13
ENDBRANCH   1  11
BRANCH   4  24
ATOM     24  S   UNL     1       2.106   8.126  17.680  0.00  0.00    +0.000 S 
BRANCH  24  25
ATOM     25  C   UNL     1       1.443   8.607  19.268  0.00  0.00    +0.000 A 
ATOM     26  C   UNL     1       1.832   7.906  20.421  0.00  0.00    +0.000 A 
ATOM     27  C   UNL     1       1.311   8.231  21.677  0.00  0.00    +0.000 A 
ATOM     28  C   UNL     1       0.346   9.227  21.795  0.00  0.00    +0.000 A 
ATOM     29  C   UNL     1      -0.221   9.631  23.125  0.00  0.00    +0.000 C 
ATOM     30  C   UNL     1      -0.084   9.876  20.635  0.00  0.00    +0.000 A 
ATOM     31  C   UNL     1       0.489   9.630  19.379  0.00  0.00    +0.000 A 
ATOM     32  C   UNL     1       0.062  10.487  18.216  0.00  0.00    +0.000 C 
ENDBRANCH  24  25
ENDBRANCH   4  24
TORSDOF 6
ENDMDL
MODEL 6
REMARK VINA RESULT:      -8.3      3.996      5.898
REMARK  Name = 
REMARK  9 active torsions:
REMARK  status: ('A' for Active; 'I' for Inactive)
REMARK    1  A    between atoms: C_1  and  C_2
REMARK    2  A    between atoms: C_5  and  C_6
REMARK    3  A    between atoms: C_6  and  N_7
REMARK    4  A    between atoms: C_8  and  C_10
REMARK    5  A    between atoms: C_10  and  N_11
REMARK    6  A    between atoms: C_14  and  S_15
REMARK    7  A    between atoms: S_15  and  C_16
REMARK    8  A    between atoms: C_19  and  C_20
REMARK    9  A    between atoms: C_22  and  C_23
REMARK                            x       y       z     vdW  Elec       q    Type
REMARK                         _______ _______ _______ _____ _____    ______ ____
ROOT
ATOM      1  N   UNL     1       5.578   4.971  19.058  0.00  0.00    +0.000 N 
ATOM      2  N   UNL     1       4.746   6.025  18.716  0.00  0.00    +0.000 NA
ATOM      3  C   UNL     1       3.580   5.456  18.594  0.00  0.00    +0.000 A 
ATOM      4  C   UNL     1       2.243   6.017  18.233  0.00  0.00    +0.000 A 
ATOM      5  N   UNL     1       1.149   5.321  18.151  0.00  0.00    +0.000 NA
ATOM      6  C   UNL     1       1.274   3.975  18.432  0.00  0.00    +0.000 A 
ATOM      7  C   UNL     1       2.426   3.370  18.761  0.00  0.00    +0.000 A 
ATOM      8  N   UNL     1       3.560   4.121  18.840  0.00  0.00    +0.000 N 
ATOM      9  C   UNL     1       4.851   3.769  19.136  0.00  0.00    +0.000 A 
ATOM     10  O   UNL     1       5.283   2.659  19.395  0.00  0.00    +0.000 OA
ENDROOT
BRANCH   1  11
ATOM     11  C   UNL     1       7.010   5.096  19.206  0.00  0.00    +0.000 C 
BRANCH  11  13
ATOM     12  N   UNL     1       7.231   5.437  16.776  0.00  0.00    +0.000 N 
ATOM     13  C   UNL     1       7.754   4.836  17.901  0.00  0.00    +0.000 C 
ATOM     14  O   UNL     1       8.686   4.031  17.845  0.00  0.00    +0.000 OA
ATOM     15  H   UNL     1       6.431   6.049  16.898  0.00  0.00    +0.000 HD
BRANCH  12  16
ATOM     16  C   UNL     1       7.865   5.330  15.481  0.00  0.00    +0.000 C 
BRANCH  16  21
ATOM     17  C   UNL     1       4.396   3.004  11.402  0.00  0.00    +0.000 C 
ATOM     18  C   UNL     1       5.275   3.593  12.465  0.00  0.00    +0.000 A 
ATOM     19  C   UNL     1       6.591   3.943  12.169  0.00  0.00    +0.000 A 
ATOM     20  C   UNL     1       7.422   4.534  13.127  0.00  0.00    +0.000 A 
ATOM     21  C   UNL     1       6.958   4.751  14.427  0.00  0.00    +0.000 A 
ATOM     22  C   UNL     1       5.647   4.359  14.738  0.00  0.00    +0.000 A 
ATOM     23  C   UNL     1       4.813   3.786  13.767  0.00  0.00    +0.000 A 
ENDBRANCH  16  21
ENDBRANCH  12  16
ENDBRANCH  11  13
ENDBRANCH   1  11
BRANCH   4  24
ATOM     24  S   UNL     1       2.392   7.694  17.885  0.00  0.00    +0.000 S 
BRANCH  24  25
ATOM     25  C   UNL     1       1.602   8.408  19.320  0.00  0.00    +0.000 A 
ATOM     26  C   UNL     1       1.809   7.829  20.583  0.00  0.00    +0.000 A 
ATOM     27  C   UNL     1       1.182   8.339  21.724  0.00  0.00    +0.000 A 
ATOM     28  C   UNL     1       0.292   9.402  21.615  0.00  0.00    +0.000 A 
ATOM     29  C   UNL     1      -0.382  10.003  22.814  0.00  0.00    +0.000 C 
ATOM     30  C   UNL     1       0.041   9.931  20.345  0.00  0.00    +0.000 A 
ATOM     31  C   UNL     1       0.724   9.496  19.201  0.00  0.00    +0.000 A 
ATOM     32  C   UNL     1       0.494  10.231  17.906  0.00  0.00    +0.000 C 
ENDBRANCH  24  25
ENDBRANCH   4  24
TORSDOF 6
ENDMDL
MODEL 7
REMARK VINA RESULT:      -8.3      1.553      2.590
REMARK  Name = 
REMARK  9 active torsions:
REMARK  status: ('A' for Active; 'I' for Inactive)
REMARK    1  A    between atoms: C_1  and  C_2
REMARK    2  A    between atoms: C_5  and  C_6
REMARK    3  A    between atoms: C_6  and  N_7
REMARK    4  A    between atoms: C_8  and  C_10
REMARK    5  A    between atoms: C_10  and  N_11
REMARK    6  A    between atoms: C_14  and  S_15
REMARK    7  A    between atoms: S_15  and  C_16
REMARK    8  A    between atoms: C_19  and  C_20
REMARK    9  A    between atoms: C_22  and  C_23
REMARK                            x       y       z     vdW  Elec       q    Type
REMARK                         _______ _______ _______ _____ _____    ______ ____
ROOT
ATOM      1  N   UNL     1       5.528   5.081  18.923  0.00  0.00    +0.000 N 
ATOM      2  N   UNL     1       4.675   6.169  18.843  0.00  0.00    +0.000 NA
ATOM      3  C   UNL     1       3.563   5.714  19.350  0.00  0.00    +0.000 A 
ATOM      4  C   UNL     1       2.234   6.365  19.556  0.00  0.00    +0.000 A 
ATOM      5  N   UNL     1       1.202   5.782  20.085  0.00  0.00    +0.000 NA
ATOM      6  C   UNL     1       1.390   4.472  20.477  0.00  0.00    +0.000 A 
ATOM      7  C   UNL     1       2.539   3.792  20.333  0.00  0.00    +0.000 A 
ATOM      8  N   UNL     1       3.608   4.426  19.775  0.00  0.00    +0.000 N 
ATOM      9  C   UNL     1       4.875   3.978  19.502  0.00  0.00    +0.000 A 
ATOM     10  O   UNL     1       5.334   2.866  19.699  0.00  0.00    +0.000 OA
ENDROOT
BRANCH   1  11
ATOM     11  C   UNL     1       6.868   5.072  18.384  0.00  0.00    +0.000 C 
BRANCH  11  13
ATOM     12  N   UNL     1       7.494   7.433  18.061  0.00  0.00    +0.000 N 
ATOM     13  C   UNL     1       7.129   6.252  17.453  0.00  0.00    +0.000 C 
ATOM     14  O   UNL     1       6.896   6.177  16.245  0.00  0.00    +0.000 OA
ATOM     15  H   UNL     1       7.619   7.426  19.068  0.00  0.00    +0.000 HD
BRANCH  12  16
ATOM     16  C   UNL     1       7.832   8.617  17.303  0.00  0.00    +0.000 C 
BRANCH  16  21
ATOM     17  C   UNL     1      10.348  12.768  20.548  0.00  0.00    +0.000 C 
ATOM     18  C   UNL     1       9.697  11.690  19.731  0.00  0.00    +0.000 A 
ATOM     19  C   UNL     1       9.187  11.982  18.468  0.00  0.00    +0.000 A 
ATOM     20  C   UNL     1       8.614  10.989  17.666  0.00  0.00    +0.000 A 
ATOM     21  C   UNL     1       8.503   9.678  18.136  0.00  0.00    +0.000 A 
ATOM     22  C   UNL     1       8.977   9.392  19.425  0.00  0.00    +0.000 A 
ATOM     23  C   UNL     1       9.569  10.388  20.215  0.00  0.00    +0.000 A 
ENDBRANCH  16  21
ENDBRANCH  12  16
ENDBRANCH  11  13
ENDBRANCH   1  11
BRANCH   4  24
ATOM     24  S   UNL     1       2.271   7.966  18.931  0.00  0.00    +0.000 S 
BRANCH  24  25
ATOM     25  C   UNL     1       1.284   8.827  20.149  0.00  0.00    +0.000 A 
ATOM     26  C   UNL     1       1.460   8.535  21.511  0.00  0.00    +0.000 A 
ATOM     27  C   UNL     1       0.685   9.162  22.492  0.00  0.00    +0.000 A 
ATOM     28  C   UNL     1      -0.320  10.051  22.123  0.00  0.00    +0.000 A 
ATOM     29  C   UNL     1      -1.158  10.771  23.139  0.00  0.00    +0.000 C 
ATOM     30  C   UNL     1      -0.532  10.287  20.762  0.00  0.00    +0.000 A 
ATOM     31  C   UNL     1       0.290   9.739  19.766  0.00  0.00    +0.000 A 
ATOM     32  C   UNL     1       0.075  10.173  18.340  0.00  0.00    +0.000 C 
ENDBRANCH  24  25
ENDBRANCH   4  24
TORSDOF 6
ENDMDL
MODEL 8
REMARK VINA RESULT:      -8.2      9.130     11.714
REMARK  Name = 
REMARK  9 active torsions:
REMARK  status: ('A' for Active; 'I' for Inactive)
REMARK    1  A    between atoms: C_1  and  C_2
REMARK    2  A    between atoms: C_5  and  C_6
REMARK    3  A    between atoms: C_6  and  N_7
REMARK    4  A    between atoms: C_8  and  C_10
REMARK    5  A    between atoms: C_10  and  N_11
REMARK    6  A    between atoms: C_14  and  S_15
REMARK    7  A    between atoms: S_15  and  C_16
REMARK    8  A    between atoms: C_19  and  C_20
REMARK    9  A    between atoms: C_22  and  C_23
REMARK                            x       y       z     vdW  Elec       q    Type
REMARK                         _______ _______ _______ _____ _____    ______ ____
ROOT
ATOM      1  N   UNL     1      -6.510  13.875  21.150  0.00  0.00    +0.000 N 
ATOM      2  N   UNL     1      -6.094  13.544  19.871  0.00  0.00    +0.000 NA
ATOM      3  C   UNL     1      -6.470  12.302  19.747  0.00  0.00    +0.000 A 
ATOM      4  C   UNL     1      -6.323  11.336  18.617  0.00  0.00    +0.000 A 
ATOM      5  N   UNL     1      -6.756  10.111  18.634  0.00  0.00    +0.000 NA
ATOM      6  C   UNL     1      -7.396   9.718  19.792  0.00  0.00    +0.000 A 
ATOM      7  C   UNL     1      -7.576  10.503  20.866  0.00  0.00    +0.000 A 
ATOM      8  N   UNL     1      -7.113  11.783  20.824  0.00  0.00    +0.000 N 
ATOM      9  C   UNL     1      -7.148  12.781  21.765  0.00  0.00    +0.000 A 
ATOM     10  O   UNL     1      -7.612  12.732  22.891  0.00  0.00    +0.000 OA
ENDROOT
BRANCH   1  11
ATOM     11  C   UNL     1      -6.224  15.141  21.784  0.00  0.00    +0.000 C 
BRANCH  11  13
ATOM     12  N   UNL     1      -3.889  14.361  21.874  0.00  0.00    +0.000 N 
ATOM     13  C   UNL     1      -4.732  15.450  21.820  0.00  0.00    +0.000 C 
ATOM     14  O   UNL     1      -4.321  16.607  21.926  0.00  0.00    +0.000 OA
ATOM     15  H   UNL     1      -4.309  13.438  21.830  0.00  0.00    +0.000 HD
BRANCH  12  16
ATOM     16  C   UNL     1      -2.450  14.499  21.851  0.00  0.00    +0.000 C 
BRANCH  16  21
ATOM     17  C   UNL     1       0.279   9.448  22.915  0.00  0.00    +0.000 C 
ATOM     18  C   UNL     1      -0.410  10.749  22.624  0.00  0.00    +0.000 A 
ATOM     19  C   UNL     1      -1.663  11.013  23.173  0.00  0.00    +0.000 A 
ATOM     20  C   UNL     1      -2.312  12.234  22.955  0.00  0.00    +0.000 A 
ATOM     21  C   UNL     1      -1.730  13.207  22.140  0.00  0.00    +0.000 A 
ATOM     22  C   UNL     1      -0.488  12.925  21.551  0.00  0.00    +0.000 A 
ATOM     23  C   UNL     1       0.166  11.708  21.791  0.00  0.00    +0.000 A 
ENDBRANCH  16  21
ENDBRANCH  12  16
ENDBRANCH  11  13
ENDBRANCH   1  11
BRANCH   4  24
ATOM     24  S   UNL     1      -5.447  12.073  17.335  0.00  0.00    +0.000 S 
BRANCH  24  25
ATOM     25  C   UNL     1      -3.819  11.381  17.597  0.00  0.00    +0.000 A 
ATOM     26  C   UNL     1      -3.126  11.676  18.783  0.00  0.00    +0.000 A 
ATOM     27  C   UNL     1      -1.838  11.181  19.011  0.00  0.00    +0.000 A 
ATOM     28  C   UNL     1      -1.197  10.430  18.031  0.00  0.00    +0.000 A 
ATOM     29  C   UNL     1       0.173   9.853  18.241  0.00  0.00    +0.000 C 
ATOM     30  C   UNL     1      -1.868  10.195  16.828  0.00  0.00    +0.000 A 
ATOM     31  C   UNL     1      -3.192  10.604  16.613  0.00  0.00    +0.000 A 
ATOM     32  C   UNL     1      -3.878  10.173  15.342  0.00  0.00    +0.000 C 
ENDBRANCH  24  25
ENDBRANCH   4  24
TORSDOF 6
ENDMDL
MODEL 9
REMARK VINA RESULT:      -8.1      4.005      6.162
REMARK  Name = 
REMARK  9 active torsions:
REMARK  status: ('A' for Active; 'I' for Inactive)
REMARK    1  A    between atoms: C_1  and  C_2
REMARK    2  A    between atoms: C_5  and  C_6
REMARK    3  A    between atoms: C_6  and  N_7
REMARK    4  A    between atoms: C_8  and  C_10
REMARK    5  A    between atoms: C_10  and  N_11
REMARK    6  A    between atoms: C_14  and  S_15
REMARK    7  A    between atoms: S_15  and  C_16
REMARK    8  A    between atoms: C_19  and  C_20
REMARK    9  A    between atoms: C_22  and  C_23
REMARK                            x       y       z     vdW  Elec       q    Type
REMARK                         _______ _______ _______ _____ _____    ______ ____
ROOT
ATOM      1  N   UNL     1       5.449   4.737  19.245  0.00  0.00    +0.000 N 
ATOM      2  N   UNL     1       4.657   5.863  19.103  0.00  0.00    +0.000 NA
ATOM      3  C   UNL     1       3.491   5.463  19.528  0.00  0.00    +0.000 A 
ATOM      4  C   UNL     1       2.183   6.176  19.636  0.00  0.00    +0.000 A 
ATOM      5  N   UNL     1       1.087   5.643  20.087  0.00  0.00    +0.000 NA
ATOM      6  C   UNL     1       1.184   4.327  20.491  0.00  0.00    +0.000 A 
ATOM      7  C   UNL     1       2.307   3.593  20.431  0.00  0.00    +0.000 A 
ATOM      8  N   UNL     1       3.443   4.175  19.954  0.00  0.00    +0.000 N 
ATOM      9  C   UNL     1       4.704   3.667  19.773  0.00  0.00    +0.000 A 
ATOM     10  O   UNL     1       5.095   2.535  20.003  0.00  0.00    +0.000 OA
ENDROOT
BRANCH   1  11
ATOM     11  C   UNL     1       6.824   4.663  18.805  0.00  0.00    +0.000 C 
BRANCH  11  13
ATOM     12  N   UNL     1       7.490   4.676  16.433  0.00  0.00    +0.000 N 
ATOM     13  C   UNL     1       7.061   5.426  17.507  0.00  0.00    +0.000 C 
ATOM     14  O   UNL     1       6.995   6.657  17.468  0.00  0.00    +0.000 OA
ATOM     15  H   UNL     1       7.565   3.673  16.560  0.00  0.00    +0.000 HD
BRANCH  12  16
ATOM     16  C   UNL     1       7.696   5.254  15.124  0.00  0.00    +0.000 C 
BRANCH  16  21
ATOM     17  C   UNL     1       4.371   2.761  11.023  0.00  0.00    +0.000 C 
ATOM     18  C   UNL     1       5.213   3.394  12.092  0.00  0.00    +0.000 A 
ATOM     19  C   UNL     1       6.546   3.708  11.837  0.00  0.00    +0.000 A 
ATOM     20  C   UNL     1       7.344   4.338  12.799  0.00  0.00    +0.000 A 
ATOM     21  C   UNL     1       6.827   4.632  14.063  0.00  0.00    +0.000 A 
ATOM     22  C   UNL     1       5.497   4.276  14.335  0.00  0.00    +0.000 A 
ATOM     23  C   UNL     1       4.697   3.665  13.359  0.00  0.00    +0.000 A 
ENDBRANCH  16  21
ENDBRANCH  12  16
ENDBRANCH  11  13
ENDBRANCH   1  11
BRANCH   4  24
ATOM     24  S   UNL     1       2.340   7.772  19.017  0.00  0.00    +0.000 S 
BRANCH  24  25
ATOM     25  C   UNL     1       1.349   8.689  20.189  0.00  0.00    +0.000 A 
ATOM     26  C   UNL     1       1.483   8.425  21.562  0.00  0.00    +0.000 A 
ATOM     27  C   UNL     1       0.702   9.097  22.508  0.00  0.00    +0.000 A 
ATOM     28  C   UNL     1      -0.267  10.005  22.093  0.00  0.00    +0.000 A 
ATOM     29  C   UNL     1      -1.109  10.772  23.071  0.00  0.00    +0.000 C 
ATOM     30  C   UNL     1      -0.439  10.214  20.722  0.00  0.00    +0.000 A 
ATOM     31  C   UNL     1       0.392   9.620  19.760  0.00  0.00    +0.000 A 
ATOM     32  C   UNL     1       0.224  10.026  18.319  0.00  0.00    +0.000 C 
ENDBRANCH  24  25
ENDBRANCH   4  24
TORSDOF 6
ENDMDL
