MODEL 1
REMARK VINA RESULT:      -9.5      0.000      0.000
REMARK  Name = 
REMARK  9 active torsions:
REMARK  status: ('A' for Active; 'I' for Inactive)
REMARK    1  A    between atoms: C_1  and  C_2
REMARK    2  A    between atoms: C_2  and  C_3
REMARK    3  A    between atoms: C_17  and  O_18
REMARK    4  A    between atoms: O_18  and  C_19
REMARK    5  A    between atoms: C_19  and  C_21
REMARK    6  A    between atoms: C_21  and  C_22
REMARK    7  A    between atoms: C_22  and  C_23
REMARK    8  A    between atoms: C_26  and  O_27
REMARK    9  A    between atoms: C_28  and  O_29
REMARK                            x       y       z     vdW  Elec       q    Type
REMARK                         _______ _______ _______ _____ _____    ______ ____
ROOT
ATOM      1  C   UNL     1       2.513   3.182  21.440  0.00  0.00    +0.000 C 
ATOM      2  C   UNL     1       2.198   4.266  20.394  0.00  0.00    +0.000 C 
ATOM      3  C   UNL     1       0.888   3.835  19.697  0.00  0.00    +0.000 C 
ATOM      4  O   UNL     1       1.969   5.469  21.153  0.00  0.00    +0.000 OA
ATOM      5  C   UNL     1       1.896   6.626  20.426  0.00  0.00    +0.000 A 
ATOM      6  C   UNL     1       1.347   7.714  21.097  0.00  0.00    +0.000 A 
ATOM      7  C   UNL     1       1.150   8.902  20.404  0.00  0.00    +0.000 A 
ATOM      8  O   UNL     1       0.561   9.967  21.114  0.00  0.00    +0.000 OA
ATOM      9  C   UNL     1       0.294  11.178  20.494  0.00  0.00    +0.000 A 
ATOM     10  O   UNL     1      -0.221  12.120  21.085  0.00  0.00    +0.000 OA
ATOM     11  C   UNL     1       0.654  11.291  19.069  0.00  0.00    +0.000 A 
ATOM     12  C   UNL     1       1.221  10.290  18.389  0.00  0.00    +0.000 A 
ATOM     13  C   UNL     1       1.498   9.030  19.062  0.00  0.00    +0.000 A 
ATOM     14  C   UNL     1       2.089   7.945  18.407  0.00  0.00    +0.000 A 
ATOM     15  C   UNL     1       2.316   6.739  19.092  0.00  0.00    +0.000 A 
ATOM     16  C   UNL     1       2.957   5.573  18.390  0.00  0.00    +0.000 C 
ATOM     17  C   UNL     1       3.370   4.497  19.404  0.00  0.00    +0.000 C 
ENDROOT
BRANCH  17  18
ATOM     18  O   UNL     1       3.712   3.283  18.720  0.00  0.00    +0.000 OA
BRANCH  18  19
ATOM     19  C   UNL     1       3.304   3.187  17.421  0.00  0.00    +0.000 C 
ATOM     20  O   UNL     1       2.326   2.548  17.039  0.00  0.00    +0.000 OA
BRANCH  19  21
ATOM     21  C   UNL     1       4.162   4.043  16.528  0.00  0.00    +0.000 C 
BRANCH  21  22
ATOM     22  C   UNL     1       5.653   3.746  16.726  0.00  0.00    +0.000 C 
BRANCH  22  23
ATOM     23  C   UNL     1       6.412   4.873  17.387  0.00  0.00    +0.000 A 
ATOM     24  C   UNL     1       6.674   6.060  16.685  0.00  0.00    +0.000 A 
ATOM     25  C   UNL     1       7.453   7.078  17.257  0.00  0.00    +0.000 A 
ATOM     26  C   UNL     1       7.976   6.898  18.531  0.00  0.00    +0.000 A 
ATOM     27  C   UNL     1       7.700   5.739  19.240  0.00  0.00    +0.000 A 
ATOM     28  C   UNL     1       6.911   4.734  18.691  0.00  0.00    +0.000 A 
BRANCH  26  29
ATOM     29  O   UNL     1       8.787   7.828  19.124  0.00  0.00    +0.000 OA
ATOM     30  H   UNL     1       8.939   7.555  20.040  0.00  0.00    +0.000 HD
ENDBRANCH  26  29
BRANCH  27  31
ATOM     31  O   UNL     1       8.231   5.539  20.482  0.00  0.00    +0.000 OA
ATOM     32  H   UNL     1       9.190   5.695  20.367  0.00  0.00    +0.000 HD
ENDBRANCH  27  31
ENDBRANCH  22  23
ENDBRANCH  21  22
ENDBRANCH  19  21
ENDBRANCH  18  19
ENDBRANCH  17  18
TORSDOF 7
ENDMDL
MODEL 2
REMARK VINA RESULT:      -8.8      0.615      1.273
REMARK  Name = 
REMARK  9 active torsions:
REMARK  status: ('A' for Active; 'I' for Inactive)
REMARK    1  A    between atoms: C_1  and  C_2
REMARK    2  A    between atoms: C_2  and  C_3
REMARK    3  A    between atoms: C_17  and  O_18
REMARK    4  A    between atoms: O_18  and  C_19
REMARK    5  A    between atoms: C_19  and  C_21
REMARK    6  A    between atoms: C_21  and  C_22
REMARK    7  A    between atoms: C_22  and  C_23
REMARK    8  A    between atoms: C_26  and  O_27
REMARK    9  A    between atoms: C_28  and  O_29
REMARK                            x       y       z     vdW  Elec       q    Type
REMARK                         _______ _______ _______ _____ _____    ______ ____
ROOT
ATOM      1  C   UNL     1       2.775   3.218  21.040  0.00  0.00    +0.000 C 
ATOM      2  C   UNL     1       2.404   4.353  20.070  0.00  0.00    +0.000 C 
ATOM      3  C   UNL     1       1.110   3.911  19.350  0.00  0.00    +0.000 C 
ATOM      4  O   UNL     1       2.127   5.492  20.908  0.00  0.00    +0.000 OA
ATOM      5  C   UNL     1       1.998   6.690  20.259  0.00  0.00    +0.000 A 
ATOM      6  C   UNL     1       1.405   7.705  21.002  0.00  0.00    +0.000 A 
ATOM      7  C   UNL     1       1.150   8.927  20.391  0.00  0.00    +0.000 A 
ATOM      8  O   UNL     1       0.520   9.915  21.171  0.00  0.00    +0.000 OA
ATOM      9  C   UNL     1       0.194  11.151  20.635  0.00  0.00    +0.000 A 
ATOM     10  O   UNL     1      -0.359  12.028  21.289  0.00  0.00    +0.000 OA
ATOM     11  C   UNL     1       0.538  11.373  19.219  0.00  0.00    +0.000 A 
ATOM     12  C   UNL     1       1.145  10.446  18.472  0.00  0.00    +0.000 A 
ATOM     13  C   UNL     1       1.483   9.158  19.058  0.00  0.00    +0.000 A 
ATOM     14  C   UNL     1       2.117   8.147  18.330  0.00  0.00    +0.000 A 
ATOM     15  C   UNL     1       2.402   6.909  18.933  0.00  0.00    +0.000 A 
ATOM     16  C   UNL     1       3.090   5.822  18.153  0.00  0.00    +0.000 C 
ATOM     17  C   UNL     1       3.558   4.701  19.092  0.00  0.00    +0.000 C 
ENDROOT
BRANCH  17  18
ATOM     18  O   UNL     1       3.949   3.552  18.328  0.00  0.00    +0.000 OA
BRANCH  18  19
ATOM     19  C   UNL     1       3.532   3.521  17.029  0.00  0.00    +0.000 C 
ATOM     20  O   UNL     1       2.470   3.035  16.645  0.00  0.00    +0.000 OA
BRANCH  19  21
ATOM     21  C   UNL     1       4.507   4.242  16.138  0.00  0.00    +0.000 C 
BRANCH  21  22
ATOM     22  C   UNL     1       5.954   3.830  16.435  0.00  0.00    +0.000 C 
BRANCH  22  23
ATOM     23  C   UNL     1       6.756   4.899  17.139  0.00  0.00    +0.000 A 
ATOM     24  C   UNL     1       7.433   4.607  18.334  0.00  0.00    +0.000 A 
ATOM     25  C   UNL     1       8.109   5.612  19.043  0.00  0.00    +0.000 A 
ATOM     26  C   UNL     1       8.096   6.912  18.555  0.00  0.00    +0.000 A 
ATOM     27  C   UNL     1       7.451   7.203  17.362  0.00  0.00    +0.000 A 
ATOM     28  C   UNL     1       6.798   6.210  16.641  0.00  0.00    +0.000 A 
BRANCH  26  29
ATOM     29  O   UNL     1       8.690   7.948  19.225  0.00  0.00    +0.000 OA
ATOM     30  H   UNL     1       8.651   8.734  18.661  0.00  0.00    +0.000 HD
ENDBRANCH  26  29
BRANCH  27  31
ATOM     31  O   UNL     1       7.408   8.482  16.887  0.00  0.00    +0.000 OA
ATOM     32  H   UNL     1       6.860   8.425  16.078  0.00  0.00    +0.000 HD
ENDBRANCH  27  31
ENDBRANCH  22  23
ENDBRANCH  21  22
ENDBRANCH  19  21
ENDBRANCH  18  19
ENDBRANCH  17  18
TORSDOF 7
ENDMDL
MODEL 3
REMARK VINA RESULT:      -8.7      3.092      6.027
REMARK  Name = 
REMARK  9 active torsions:
REMARK  status: ('A' for Active; 'I' for Inactive)
REMARK    1  A    between atoms: C_1  and  C_2
REMARK    2  A    between atoms: C_2  and  C_3
REMARK    3  A    between atoms: C_17  and  O_18
REMARK    4  A    between atoms: O_18  and  C_19
REMARK    5  A    between atoms: C_19  and  C_21
REMARK    6  A    between atoms: C_21  and  C_22
REMARK    7  A    between atoms: C_22  and  C_23
REMARK    8  A    between atoms: C_26  and  O_27
REMARK    9  A    between atoms: C_28  and  O_29
REMARK                            x       y       z     vdW  Elec       q    Type
REMARK                         _______ _______ _______ _____ _____    ______ ____
ROOT
ATOM      1  C   UNL     1       1.744   9.120  22.033  0.00  0.00    +0.000 C 
ATOM      2  C   UNL     1       0.421   9.739  21.550  0.00  0.00    +0.000 C 
ATOM      3  C   UNL     1      -0.670   8.666  21.769  0.00  0.00    +0.000 C 
ATOM      4  O   UNL     1       0.183  10.857  22.426  0.00  0.00    +0.000 OA
ATOM      5  C   UNL     1      -0.822  11.705  22.049  0.00  0.00    +0.000 A 
ATOM      6  C   UNL     1      -1.273  12.569  23.041  0.00  0.00    +0.000 A 
ATOM      7  C   UNL     1      -2.353  13.399  22.771  0.00  0.00    +0.000 A 
ATOM      8  O   UNL     1      -2.797  14.234  23.816  0.00  0.00    +0.000 OA
ATOM      9  C   UNL     1      -3.891  15.069  23.649  0.00  0.00    +0.000 A 
ATOM     10  O   UNL     1      -4.301  15.803  24.541  0.00  0.00    +0.000 OA
ATOM     11  C   UNL     1      -4.558  15.038  22.335  0.00  0.00    +0.000 A 
ATOM     12  C   UNL     1      -4.140  14.256  21.335  0.00  0.00    +0.000 A 
ATOM     13  C   UNL     1      -2.986  13.392  21.531  0.00  0.00    +0.000 A 
ATOM     14  C   UNL     1      -2.500  12.552  20.524  0.00  0.00    +0.000 A 
ATOM     15  C   UNL     1      -1.396  11.717  20.768  0.00  0.00    +0.000 A 
ATOM     16  C   UNL     1      -0.868  10.816  19.685  0.00  0.00    +0.000 C 
ATOM     17  C   UNL     1       0.498  10.241  20.084  0.00  0.00    +0.000 C 
ENDROOT
BRANCH  17  18
ATOM     18  O   UNL     1       0.861   9.175  19.194  0.00  0.00    +0.000 OA
BRANCH  18  19
ATOM     19  C   UNL     1       1.873   9.440  18.317  0.00  0.00    +0.000 C 
ATOM     20  O   UNL     1       2.174  10.561  17.912  0.00  0.00    +0.000 OA
BRANCH  19  21
ATOM     21  C   UNL     1       2.630   8.184  17.981  0.00  0.00    +0.000 C 
BRANCH  21  22
ATOM     22  C   UNL     1       2.419   7.097  19.042  0.00  0.00    +0.000 C 
BRANCH  22  23
ATOM     23  C   UNL     1       2.891   5.728  18.611  0.00  0.00    +0.000 A 
ATOM     24  C   UNL     1       2.029   4.869  17.912  0.00  0.00    +0.000 A 
ATOM     25  C   UNL     1       2.426   3.563  17.582  0.00  0.00    +0.000 A 
ATOM     26  C   UNL     1       3.686   3.120  17.964  0.00  0.00    +0.000 A 
ATOM     27  C   UNL     1       4.552   3.973  18.632  0.00  0.00    +0.000 A 
ATOM     28  C   UNL     1       4.176   5.275  18.944  0.00  0.00    +0.000 A 
BRANCH  26  29
ATOM     29  O   UNL     1       4.114   1.843  17.721  0.00  0.00    +0.000 OA
ATOM     30  H   UNL     1       5.054   1.878  17.493  0.00  0.00    +0.000 HD
ENDBRANCH  26  29
BRANCH  27  31
ATOM     31  O   UNL     1       5.782   3.540  19.037  0.00  0.00    +0.000 OA
ATOM     32  H   UNL     1       5.798   3.712  20.000  0.00  0.00    +0.000 HD
ENDBRANCH  27  31
ENDBRANCH  22  23
ENDBRANCH  21  22
ENDBRANCH  19  21
ENDBRANCH  18  19
ENDBRANCH  17  18
TORSDOF 7
ENDMDL
MODEL 4
REMARK VINA RESULT:      -8.7      3.328      6.435
REMARK  Name = 
REMARK  9 active torsions:
REMARK  status: ('A' for Active; 'I' for Inactive)
REMARK    1  A    between atoms: C_1  and  C_2
REMARK    2  A    between atoms: C_2  and  C_3
REMARK    3  A    between atoms: C_17  and  O_18
REMARK    4  A    between atoms: O_18  and  C_19
REMARK    5  A    between atoms: C_19  and  C_21
REMARK    6  A    between atoms: C_21  and  C_22
REMARK    7  A    between atoms: C_22  and  C_23
REMARK    8  A    between atoms: C_26  and  O_27
REMARK    9  A    between atoms: C_28  and  O_29
REMARK                            x       y       z     vdW  Elec       q    Type
REMARK                         _______ _______ _______ _____ _____    ______ ____
ROOT
ATOM      1  C   UNL     1       1.755   9.082  22.024  0.00  0.00    +0.000 C 
ATOM      2  C   UNL     1       0.440   9.709  21.530  0.00  0.00    +0.000 C 
ATOM      3  C   UNL     1      -0.675   8.681  21.830  0.00  0.00    +0.000 C 
ATOM      4  O   UNL     1       0.249  10.881  22.346  0.00  0.00    +0.000 OA
ATOM      5  C   UNL     1      -0.740  11.735  21.939  0.00  0.00    +0.000 A 
ATOM      6  C   UNL     1      -1.148  12.665  22.888  0.00  0.00    +0.000 A 
ATOM      7  C   UNL     1      -2.211  13.509  22.591  0.00  0.00    +0.000 A 
ATOM      8  O   UNL     1      -2.612  14.413  23.593  0.00  0.00    +0.000 OA
ATOM      9  C   UNL     1      -3.686  15.267  23.399  0.00  0.00    +0.000 A 
ATOM     10  O   UNL     1      -4.059  16.061  24.255  0.00  0.00    +0.000 OA
ATOM     11  C   UNL     1      -4.380  15.180  22.101  0.00  0.00    +0.000 A 
ATOM     12  C   UNL     1      -4.002  14.333  21.139  0.00  0.00    +0.000 A 
ATOM     13  C   UNL     1      -2.868  13.449  21.364  0.00  0.00    +0.000 A 
ATOM     14  C   UNL     1      -2.424  12.540  20.398  0.00  0.00    +0.000 A 
ATOM     15  C   UNL     1      -1.338  11.690  20.670  0.00  0.00    +0.000 A 
ATOM     16  C   UNL     1      -0.855  10.715  19.630  0.00  0.00    +0.000 C 
ATOM     17  C   UNL     1       0.502  10.125  20.037  0.00  0.00    +0.000 C 
ENDROOT
BRANCH  17  18
ATOM     18  O   UNL     1       0.819   9.002  19.203  0.00  0.00    +0.000 OA
BRANCH  18  19
ATOM     19  C   UNL     1       1.831   9.183  18.305  0.00  0.00    +0.000 C 
ATOM     20  O   UNL     1       2.108  10.254  17.768  0.00  0.00    +0.000 OA
BRANCH  19  21
ATOM     21  C   UNL     1       2.620   7.915  18.126  0.00  0.00    +0.000 C 
BRANCH  21  22
ATOM     22  C   UNL     1       2.644   7.080  19.412  0.00  0.00    +0.000 C 
BRANCH  22  23
ATOM     23  C   UNL     1       2.245   5.637  19.205  0.00  0.00    +0.000 A 
ATOM     24  C   UNL     1       2.314   5.058  17.929  0.00  0.00    +0.000 A 
ATOM     25  C   UNL     1       1.864   3.747  17.708  0.00  0.00    +0.000 A 
ATOM     26  C   UNL     1       1.336   3.023  18.768  0.00  0.00    +0.000 A 
ATOM     27  C   UNL     1       1.288   3.580  20.037  0.00  0.00    +0.000 A 
ATOM     28  C   UNL     1       1.752   4.869  20.271  0.00  0.00    +0.000 A 
BRANCH  26  29
ATOM     29  O   UNL     1       0.831   1.760  18.609  0.00  0.00    +0.000 OA
ATOM     30  H   UNL     1       1.546   1.127  18.769  0.00  0.00    +0.000 HD
ENDBRANCH  26  29
BRANCH  27  31
ATOM     31  O   UNL     1       0.745   2.888  21.082  0.00  0.00    +0.000 OA
ATOM     32  H   UNL     1       0.254   3.562  21.594  0.00  0.00    +0.000 HD
ENDBRANCH  27  31
ENDBRANCH  22  23
ENDBRANCH  21  22
ENDBRANCH  19  21
ENDBRANCH  18  19
ENDBRANCH  17  18
TORSDOF 7
ENDMDL
MODEL 5
REMARK VINA RESULT:      -8.4      3.168      5.667
REMARK  Name = 
REMARK  9 active torsions:
REMARK  status: ('A' for Active; 'I' for Inactive)
REMARK    1  A    between atoms: C_1  and  C_2
REMARK    2  A    between atoms: C_2  and  C_3
REMARK    3  A    between atoms: C_17  and  O_18
REMARK    4  A    between atoms: O_18  and  C_19
REMARK    5  A    between atoms: C_19  and  C_21
REMARK    6  A    between atoms: C_21  and  C_22
REMARK    7  A    between atoms: C_22  and  C_23
REMARK    8  A    between atoms: C_26  and  O_27
REMARK    9  A    between atoms: C_28  and  O_29
REMARK                            x       y       z     vdW  Elec       q    Type
REMARK                         _______ _______ _______ _____ _____    ______ ____
ROOT
ATOM      1  C   UNL     1       1.753   8.997  22.087  0.00  0.00    +0.000 C 
ATOM      2  C   UNL     1       0.459   9.642  21.560  0.00  0.00    +0.000 C 
ATOM      3  C   UNL     1      -0.649   8.573  21.691  0.00  0.00    +0.000 C 
ATOM      4  O   UNL     1       0.187  10.734  22.459  0.00  0.00    +0.000 OA
ATOM      5  C   UNL     1      -0.792  11.603  22.060  0.00  0.00    +0.000 A 
ATOM      6  C   UNL     1      -1.285  12.438  23.056  0.00  0.00    +0.000 A 
ATOM      7  C   UNL     1      -2.345  13.287  22.761  0.00  0.00    +0.000 A 
ATOM      8  O   UNL     1      -2.833  14.092  23.809  0.00  0.00    +0.000 OA
ATOM      9  C   UNL     1      -3.911  14.942  23.616  0.00  0.00    +0.000 A 
ATOM     10  O   UNL     1      -4.359  15.650  24.510  0.00  0.00    +0.000 OA
ATOM     11  C   UNL     1      -4.513  14.958  22.270  0.00  0.00    +0.000 A 
ATOM     12  C   UNL     1      -4.052  14.205  21.267  0.00  0.00    +0.000 A 
ATOM     13  C   UNL     1      -2.916  13.325  21.491  0.00  0.00    +0.000 A 
ATOM     14  C   UNL     1      -2.387  12.512  20.483  0.00  0.00    +0.000 A 
ATOM     15  C   UNL     1      -1.303  11.660  20.754  0.00  0.00    +0.000 A 
ATOM     16  C   UNL     1      -0.729  10.789  19.669  0.00  0.00    +0.000 C 
ATOM     17  C   UNL     1       0.612  10.189  20.116  0.00  0.00    +0.000 C 
ENDROOT
BRANCH  17  18
ATOM     18  O   UNL     1       1.010   9.150  19.211  0.00  0.00    +0.000 OA
BRANCH  18  19
ATOM     19  C   UNL     1       1.895   9.506  18.235  0.00  0.00    +0.000 C 
ATOM     20  O   UNL     1       2.225  10.661  17.975  0.00  0.00    +0.000 OA
BRANCH  19  21
ATOM     21  C   UNL     1       2.482   8.287  17.576  0.00  0.00    +0.000 C 
BRANCH  21  22
ATOM     22  C   UNL     1       2.608   7.119  18.562  0.00  0.00    +0.000 C 
BRANCH  22  23
ATOM     23  C   UNL     1       3.856   6.290  18.363  0.00  0.00    +0.000 A 
ATOM     24  C   UNL     1       4.227   5.327  19.314  0.00  0.00    +0.000 A 
ATOM     25  C   UNL     1       5.429   4.613  19.184  0.00  0.00    +0.000 A 
ATOM     26  C   UNL     1       6.261   4.876  18.104  0.00  0.00    +0.000 A 
ATOM     27  C   UNL     1       5.888   5.808  17.148  0.00  0.00    +0.000 A 
ATOM     28  C   UNL     1       4.690   6.504  17.255  0.00  0.00    +0.000 A 
BRANCH  26  29
ATOM     29  O   UNL     1       7.471   4.254  17.948  0.00  0.00    +0.000 OA
ATOM     30  H   UNL     1       7.529   3.539  18.599  0.00  0.00    +0.000 HD
ENDBRANCH  26  29
BRANCH  27  31
ATOM     31  O   UNL     1       6.711   6.094  16.096  0.00  0.00    +0.000 OA
ATOM     32  H   UNL     1       7.417   5.418  16.146  0.00  0.00    +0.000 HD
ENDBRANCH  27  31
ENDBRANCH  22  23
ENDBRANCH  21  22
ENDBRANCH  19  21
ENDBRANCH  18  19
ENDBRANCH  17  18
TORSDOF 7
ENDMDL
MODEL 6
REMARK VINA RESULT:      -8.3      3.731     10.028
REMARK  Name = 
REMARK  9 active torsions:
REMARK  status: ('A' for Active; 'I' for Inactive)
REMARK    1  A    between atoms: C_1  and  C_2
REMARK    2  A    between atoms: C_2  and  C_3
REMARK    3  A    between atoms: C_17  and  O_18
REMARK    4  A    between atoms: O_18  and  C_19
REMARK    5  A    between atoms: C_19  and  C_21
REMARK    6  A    between atoms: C_21  and  C_22
REMARK    7  A    between atoms: C_22  and  C_23
REMARK    8  A    between atoms: C_26  and  O_27
REMARK    9  A    between atoms: C_28  and  O_29
REMARK                            x       y       z     vdW  Elec       q    Type
REMARK                         _______ _______ _______ _____ _____    ______ ____
ROOT
ATOM      1  C   UNL     1      -0.922  10.295  21.961  0.00  0.00    +0.000 C 
ATOM      2  C   UNL     1       0.134  10.106  20.857  0.00  0.00    +0.000 C 
ATOM      3  C   UNL     1       1.274  11.102  21.165  0.00  0.00    +0.000 C 
ATOM      4  O   UNL     1       0.612   8.757  21.019  0.00  0.00    +0.000 OA
ATOM      5  C   UNL     1       1.396   8.278  20.004  0.00  0.00    +0.000 A 
ATOM      6  C   UNL     1       2.124   7.133  20.307  0.00  0.00    +0.000 A 
ATOM      7  C   UNL     1       3.015   6.633  19.366  0.00  0.00    +0.000 A 
ATOM      8  O   UNL     1       3.756   5.490  19.728  0.00  0.00    +0.000 OA
ATOM      9  C   UNL     1       4.695   4.944  18.867  0.00  0.00    +0.000 A 
ATOM     10  O   UNL     1       5.356   3.953  19.157  0.00  0.00    +0.000 OA
ATOM     11  C   UNL     1       4.875   5.614  17.567  0.00  0.00    +0.000 A 
ATOM     12  C   UNL     1       4.172   6.693  17.210  0.00  0.00    +0.000 A 
ATOM     13  C   UNL     1       3.188   7.246  18.128  0.00  0.00    +0.000 A 
ATOM     14  C   UNL     1       2.420   8.372  17.814  0.00  0.00    +0.000 A 
ATOM     15  C   UNL     1       1.499   8.885  18.743  0.00  0.00    +0.000 A 
ATOM     16  C   UNL     1       0.668  10.093  18.404  0.00  0.00    +0.000 C 
ATOM     17  C   UNL     1      -0.458  10.275  19.433  0.00  0.00    +0.000 C 
ENDROOT
BRANCH  17  18
ATOM     18  O   UNL     1      -1.060  11.567  19.276  0.00  0.00    +0.000 OA
BRANCH  18  19
ATOM     19  C   UNL     1      -2.186  11.619  18.506  0.00  0.00    +0.000 C 
ATOM     20  O   UNL     1      -2.230  11.341  17.309  0.00  0.00    +0.000 OA
BRANCH  19  21
ATOM     21  C   UNL     1      -3.387  11.976  19.340  0.00  0.00    +0.000 C 
BRANCH  21  22
ATOM     22  C   UNL     1      -2.993  12.802  20.570  0.00  0.00    +0.000 C 
BRANCH  22  23
ATOM     23  C   UNL     1      -4.063  12.846  21.638  0.00  0.00    +0.000 A 
ATOM     24  C   UNL     1      -5.398  13.103  21.292  0.00  0.00    +0.000 A 
ATOM     25  C   UNL     1      -6.385  13.233  22.282  0.00  0.00    +0.000 A 
ATOM     26  C   UNL     1      -6.026  13.115  23.618  0.00  0.00    +0.000 A 
ATOM     27  C   UNL     1      -4.712  12.837  23.965  0.00  0.00    +0.000 A 
ATOM     28  C   UNL     1      -3.732  12.683  22.991  0.00  0.00    +0.000 A 
BRANCH  26  29
ATOM     29  O   UNL     1      -6.928  13.285  24.634  0.00  0.00    +0.000 OA
ATOM     30  H   UNL     1      -7.151  12.412  24.988  0.00  0.00    +0.000 HD
ENDBRANCH  26  29
BRANCH  27  31
ATOM     31  O   UNL     1      -4.342  12.746  25.276  0.00  0.00    +0.000 OA
ATOM     32  H   UNL     1      -4.575  13.616  25.658  0.00  0.00    +0.000 HD
ENDBRANCH  27  31
ENDBRANCH  22  23
ENDBRANCH  21  22
ENDBRANCH  19  21
ENDBRANCH  18  19
ENDBRANCH  17  18
TORSDOF 7
ENDMDL
MODEL 7
REMARK VINA RESULT:      -8.3      3.488      6.565
REMARK  Name = 
REMARK  9 active torsions:
REMARK  status: ('A' for Active; 'I' for Inactive)
REMARK    1  A    between atoms: C_1  and  C_2
REMARK    2  A    between atoms: C_2  and  C_3
REMARK    3  A    between atoms: C_17  and  O_18
REMARK    4  A    between atoms: O_18  and  C_19
REMARK    5  A    between atoms: C_19  and  C_21
REMARK    6  A    between atoms: C_21  and  C_22
REMARK    7  A    between atoms: C_22  and  C_23
REMARK    8  A    between atoms: C_26  and  O_27
REMARK    9  A    between atoms: C_28  and  O_29
REMARK                            x       y       z     vdW  Elec       q    Type
REMARK                         _______ _______ _______ _____ _____    ______ ____
ROOT
ATOM      1  C   UNL     1       1.062  10.769  21.889  0.00  0.00    +0.000 C 
ATOM      2  C   UNL     1       0.004  10.412  20.830  0.00  0.00    +0.000 C 
ATOM      3  C   UNL     1      -0.647   9.088  21.289  0.00  0.00    +0.000 C 
ATOM      4  O   UNL     1      -0.966  11.475  20.892  0.00  0.00    +0.000 OA
ATOM      5  C   UNL     1      -1.887  11.499  19.880  0.00  0.00    +0.000 A 
ATOM      6  C   UNL     1      -3.004  12.293  20.114  0.00  0.00    +0.000 A 
ATOM      7  C   UNL     1      -4.033  12.302  19.180  0.00  0.00    +0.000 A 
ATOM      8  O   UNL     1      -5.159  13.095  19.473  0.00  0.00    +0.000 OA
ATOM      9  C   UNL     1      -6.248  13.137  18.616  0.00  0.00    +0.000 A 
ATOM     10  O   UNL     1      -7.243  13.814  18.848  0.00  0.00    +0.000 OA
ATOM     11  C   UNL     1      -6.166  12.315  17.395  0.00  0.00    +0.000 A 
ATOM     12  C   UNL     1      -5.099  11.566  17.103  0.00  0.00    +0.000 A 
ATOM     13  C   UNL     1      -3.965  11.543  18.014  0.00  0.00    +0.000 A 
ATOM     14  C   UNL     1      -2.819  10.780  17.765  0.00  0.00    +0.000 A 
ATOM     15  C   UNL     1      -1.758  10.770  18.687  0.00  0.00    +0.000 A 
ATOM     16  C   UNL     1      -0.523   9.955  18.419  0.00  0.00    +0.000 C 
ATOM     17  C   UNL     1       0.596  10.337  19.398  0.00  0.00    +0.000 C 
ENDROOT
BRANCH  17  18
ATOM     18  O   UNL     1       1.658   9.375  19.330  0.00  0.00    +0.000 OA
BRANCH  18  19
ATOM     19  C   UNL     1       2.179   9.138  18.091  0.00  0.00    +0.000 C 
ATOM     20  O   UNL     1       2.309   9.987  17.211  0.00  0.00    +0.000 OA
BRANCH  19  21
ATOM     21  C   UNL     1       2.655   7.715  17.975  0.00  0.00    +0.000 C 
BRANCH  21  22
ATOM     22  C   UNL     1       2.534   6.971  19.310  0.00  0.00    +0.000 C 
BRANCH  22  23
ATOM     23  C   UNL     1       2.161   5.514  19.160  0.00  0.00    +0.000 A 
ATOM     24  C   UNL     1       2.210   4.896  17.900  0.00  0.00    +0.000 A 
ATOM     25  C   UNL     1       1.782   3.569  17.733  0.00  0.00    +0.000 A 
ATOM     26  C   UNL     1       1.296   2.870  18.829  0.00  0.00    +0.000 A 
ATOM     27  C   UNL     1       1.269   3.466  20.081  0.00  0.00    +0.000 A 
ATOM     28  C   UNL     1       1.711   4.771  20.262  0.00  0.00    +0.000 A 
BRANCH  26  29
ATOM     29  O   UNL     1       0.814   1.592  18.723  0.00  0.00    +0.000 OA
ATOM     30  H   UNL     1       0.125   1.585  18.043  0.00  0.00    +0.000 HD
ENDBRANCH  26  29
BRANCH  27  31
ATOM     31  O   UNL     1       0.768   2.797  21.161  0.00  0.00    +0.000 OA
ATOM     32  H   UNL     1       1.402   2.984  21.882  0.00  0.00    +0.000 HD
ENDBRANCH  27  31
ENDBRANCH  22  23
ENDBRANCH  21  22
ENDBRANCH  19  21
ENDBRANCH  18  19
ENDBRANCH  17  18
TORSDOF 7
ENDMDL
MODEL 8
REMARK VINA RESULT:      -8.3      2.880      6.081
REMARK  Name = 
REMARK  9 active torsions:
REMARK  status: ('A' for Active; 'I' for Inactive)
REMARK    1  A    between atoms: C_1  and  C_2
REMARK    2  A    between atoms: C_2  and  C_3
REMARK    3  A    between atoms: C_17  and  O_18
REMARK    4  A    between atoms: O_18  and  C_19
REMARK    5  A    between atoms: C_19  and  C_21
REMARK    6  A    between atoms: C_21  and  C_22
REMARK    7  A    between atoms: C_22  and  C_23
REMARK    8  A    between atoms: C_26  and  O_27
REMARK    9  A    between atoms: C_28  and  O_29
REMARK                            x       y       z     vdW  Elec       q    Type
REMARK                         _______ _______ _______ _____ _____    ______ ____
ROOT
ATOM      1  C   UNL     1       0.669   9.646  17.897  0.00  0.00    +0.000 C 
ATOM      2  C   UNL     1       0.467  10.365  19.242  0.00  0.00    +0.000 C 
ATOM      3  C   UNL     1       1.483  11.528  19.275  0.00  0.00    +0.000 C 
ATOM      4  O   UNL     1      -0.873  10.892  19.191  0.00  0.00    +0.000 OA
ATOM      5  C   UNL     1      -1.365  11.378  20.372  0.00  0.00    +0.000 A 
ATOM      6  C   UNL     1      -2.495  12.180  20.258  0.00  0.00    +0.000 A 
ATOM      7  C   UNL     1      -3.006  12.791  21.397  0.00  0.00    +0.000 A 
ATOM      8  O   UNL     1      -4.132  13.621  21.229  0.00  0.00    +0.000 OA
ATOM      9  C   UNL     1      -4.687  14.299  22.303  0.00  0.00    +0.000 A 
ATOM     10  O   UNL     1      -5.663  15.031  22.186  0.00  0.00    +0.000 OA
ATOM     11  C   UNL     1      -4.044  14.108  23.616  0.00  0.00    +0.000 A 
ATOM     12  C   UNL     1      -2.981  13.316  23.787  0.00  0.00    +0.000 A 
ATOM     13  C   UNL     1      -2.419  12.609  22.646  0.00  0.00    +0.000 A 
ATOM     14  C   UNL     1      -1.309  11.766  22.760  0.00  0.00    +0.000 A 
ATOM     15  C   UNL     1      -0.786  11.123  21.625  0.00  0.00    +0.000 A 
ATOM     16  C   UNL     1       0.405  10.212  21.747  0.00  0.00    +0.000 C 
ATOM     17  C   UNL     1       0.597   9.405  20.455  0.00  0.00    +0.000 C 
ENDROOT
BRANCH  17  18
ATOM     18  O   UNL     1       1.879   8.761  20.465  0.00  0.00    +0.000 OA
BRANCH  18  19
ATOM     19  C   UNL     1       1.874   7.405  20.307  0.00  0.00    +0.000 C 
ATOM     20  O   UNL     1       1.108   6.635  20.884  0.00  0.00    +0.000 OA
BRANCH  19  21
ATOM     21  C   UNL     1       2.874   6.985  19.265  0.00  0.00    +0.000 C 
BRANCH  21  22
ATOM     22  C   UNL     1       2.225   6.120  18.177  0.00  0.00    +0.000 C 
BRANCH  22  23
ATOM     23  C   UNL     1       2.694   4.684  18.185  0.00  0.00    +0.000 A 
ATOM     24  C   UNL     1       1.948   3.690  17.532  0.00  0.00    +0.000 A 
ATOM     25  C   UNL     1       2.326   2.340  17.606  0.00  0.00    +0.000 A 
ATOM     26  C   UNL     1       3.449   1.990  18.344  0.00  0.00    +0.000 A 
ATOM     27  C   UNL     1       4.206   2.969  18.969  0.00  0.00    +0.000 A 
ATOM     28  C   UNL     1       3.853   4.311  18.884  0.00  0.00    +0.000 A 
BRANCH  26  29
ATOM     29  O   UNL     1       3.842   0.688  18.500  0.00  0.00    +0.000 OA
ATOM     30  H   UNL     1       4.680   0.681  18.983  0.00  0.00    +0.000 HD
ENDBRANCH  26  29
BRANCH  27  31
ATOM     31  O   UNL     1       5.296   2.634  19.720  0.00  0.00    +0.000 OA
ATOM     32  H   UNL     1       5.315   1.656  19.702  0.00  0.00    +0.000 HD
ENDBRANCH  27  31
ENDBRANCH  22  23
ENDBRANCH  21  22
ENDBRANCH  19  21
ENDBRANCH  18  19
ENDBRANCH  17  18
TORSDOF 7
ENDMDL
MODEL 9
REMARK VINA RESULT:      -8.2      3.353      9.805
REMARK  Name = 
REMARK  9 active torsions:
REMARK  status: ('A' for Active; 'I' for Inactive)
REMARK    1  A    between atoms: C_1  and  C_2
REMARK    2  A    between atoms: C_2  and  C_3
REMARK    3  A    between atoms: C_17  and  O_18
REMARK    4  A    between atoms: O_18  and  C_19
REMARK    5  A    between atoms: C_19  and  C_21
REMARK    6  A    between atoms: C_21  and  C_22
REMARK    7  A    between atoms: C_22  and  C_23
REMARK    8  A    between atoms: C_26  and  O_27
REMARK    9  A    between atoms: C_28  and  O_29
REMARK                            x       y       z     vdW  Elec       q    Type
REMARK                         _______ _______ _______ _____ _____    ______ ____
ROOT
ATOM      1  C   UNL     1       1.421  11.248  18.747  0.00  0.00    +0.000 C 
ATOM      2  C   UNL     1       1.326   9.714  18.814  0.00  0.00    +0.000 C 
ATOM      3  C   UNL     1       0.074   9.317  17.999  0.00  0.00    +0.000 C 
ATOM      4  O   UNL     1       2.509   9.232  18.150  0.00  0.00    +0.000 OA
ATOM      5  C   UNL     1       2.763   7.893  18.285  0.00  0.00    +0.000 A 
ATOM      6  C   UNL     1       3.688   7.372  17.387  0.00  0.00    +0.000 A 
ATOM      7  C   UNL     1       3.935   6.005  17.392  0.00  0.00    +0.000 A 
ATOM      8  O   UNL     1       4.855   5.516  16.444  0.00  0.00    +0.000 OA
ATOM      9  C   UNL     1       5.136   4.161  16.352  0.00  0.00    +0.000 A 
ATOM     10  O   UNL     1       5.928   3.708  15.534  0.00  0.00    +0.000 OA
ATOM     11  C   UNL     1       4.429   3.270  17.289  0.00  0.00    +0.000 A 
ATOM     12  C   UNL     1       3.562   3.724  18.199  0.00  0.00    +0.000 A 
ATOM     13  C   UNL     1       3.287   5.150  18.281  0.00  0.00    +0.000 A 
ATOM     14  C   UNL     1       2.391   5.688  19.210  0.00  0.00    +0.000 A 
ATOM     15  C   UNL     1       2.139   7.071  19.235  0.00  0.00    +0.000 A 
ATOM     16  C   UNL     1       1.179   7.652  20.238  0.00  0.00    +0.000 C 
ATOM     17  C   UNL     1       1.299   9.182  20.271  0.00  0.00    +0.000 C 
ENDROOT
BRANCH  17  18
ATOM     18  O   UNL     1       0.202   9.744  21.004  0.00  0.00    +0.000 OA
BRANCH  18  19
ATOM     19  C   UNL     1       0.385   9.888  22.349  0.00  0.00    +0.000 C 
ATOM     20  O   UNL     1       1.411   9.583  22.954  0.00  0.00    +0.000 OA
BRANCH  19  21
ATOM     21  C   UNL     1      -0.807  10.553  22.983  0.00  0.00    +0.000 C 
BRANCH  21  22
ATOM     22  C   UNL     1      -1.375  11.661  22.088  0.00  0.00    +0.000 C 
BRANCH  22  23
ATOM     23  C   UNL     1      -2.685  12.229  22.584  0.00  0.00    +0.000 A 
ATOM     24  C   UNL     1      -3.493  12.996  21.731  0.00  0.00    +0.000 A 
ATOM     25  C   UNL     1      -4.668  13.601  22.204  0.00  0.00    +0.000 A 
ATOM     26  C   UNL     1      -5.023  13.443  23.537  0.00  0.00    +0.000 A 
ATOM     27  C   UNL     1      -4.242  12.665  24.379  0.00  0.00    +0.000 A 
ATOM     28  C   UNL     1      -3.089  12.043  23.914  0.00  0.00    +0.000 A 
BRANCH  26  29
ATOM     29  O   UNL     1      -6.127  14.050  24.075  0.00  0.00    +0.000 OA
ATOM     30  H   UNL     1      -6.899  13.787  23.554  0.00  0.00    +0.000 HD
ENDBRANCH  26  29
BRANCH  27  31
ATOM     31  O   UNL     1      -4.567  12.525  25.698  0.00  0.00    +0.000 OA
ATOM     32  H   UNL     1      -5.412  13.008  25.796  0.00  0.00    +0.000 HD
ENDBRANCH  27  31
ENDBRANCH  22  23
ENDBRANCH  21  22
ENDBRANCH  19  21
ENDBRANCH  18  19
ENDBRANCH  17  18
TORSDOF 7
ENDMDL
