MODEL 1
REMARK VINA RESULT:      -8.3      0.000      0.000
REMARK  Name = 
REMARK  6 active torsions:
REMARK  status: ('A' for Active; 'I' for Inactive)
REMARK    1  A    between atoms: C_2  and  C_15
REMARK    2  A    between atoms: N_3  and  C_4
REMARK    3  A    between atoms: C_4  and  C_5
REMARK    4  A    between atoms: C_9  and  C_10
REMARK    5  A    between atoms: C_15  and  C_16
REMARK    6  A    between atoms: C_15  and  N_22
REMARK                            x       y       z     vdW  Elec       q    Type
REMARK                         _______ _______ _______ _____ _____    ______ ____
ROOT
ATOM      1  O   UNL     1       4.924   7.074  15.154  0.00  0.00    +0.000 OA
ATOM      2  C   UNL     1       5.165   6.199  15.982  0.00  0.00    +0.000 C 
ATOM      3  N   UNL     1       4.428   6.061  17.149  0.00  0.00    +0.000 N 
ATOM      4  H   UNL     1       4.496   5.195  17.666  0.00  0.00    +0.000 HD
ENDROOT
BRANCH   3   5
ATOM      5  C   UNL     1       3.339   6.948  17.492  0.00  0.00    +0.000 C 
BRANCH   5   6
ATOM      6  C   UNL     1       2.596   6.483  18.720  0.00  0.00    +0.000 A 
ATOM      7  C   UNL     1       2.187   7.397  19.702  0.00  0.00    +0.000 A 
ATOM      8  C   UNL     1       1.508   6.955  20.839  0.00  0.00    +0.000 A 
ATOM      9  C   UNL     1       1.232   5.599  21.009  0.00  0.00    +0.000 A 
ATOM     10  C   UNL     1       1.630   4.666  20.042  0.00  0.00    +0.000 A 
ATOM     11  C   UNL     1       2.318   5.121  18.903  0.00  0.00    +0.000 A 
BRANCH  10  12
ATOM     12  C   UNL     1       1.326   3.197  20.202  0.00  0.00    +0.000 C 
ATOM     13  F   UNL     1       0.373   2.741  19.340  0.00  0.00    +0.000 F 
ATOM     14  F   UNL     1       2.420   2.413  19.988  0.00  0.00    +0.000 F 
ATOM     15  F   UNL     1       0.879   2.883  21.450  0.00  0.00    +0.000 F 
ENDBRANCH  10  12
ENDBRANCH   5   6
ENDBRANCH   3   5
BRANCH   2  16
ATOM     16  C   UNL     1       6.293   5.135  15.830  0.00  0.00    +0.000 C 
BRANCH  16  17
ATOM     17  C   UNL     1       6.537   4.721  14.388  0.00  0.00    +0.000 A 
ATOM     18  C   UNL     1       5.717   3.757  13.787  0.00  0.00    +0.000 A 
ATOM     19  C   UNL     1       5.927   3.384  12.464  0.00  0.00    +0.000 A 
ATOM     20  C   UNL     1       6.967   3.983  11.775  0.00  0.00    +0.000 A 
ATOM     21  N   UNL     1       7.791   4.903  12.316  0.00  0.00    +0.000 NA
ATOM     22  C   UNL     1       7.567   5.244  13.608  0.00  0.00    +0.000 A 
ENDBRANCH  16  17
BRANCH  16  23
ATOM     23  N   UNL     1       7.550   5.436  16.560  0.00  0.00    +0.000 NA
ATOM     24  C   UNL     1       7.801   4.581  17.721  0.00  0.00    +0.000 C 
ATOM     25  C   UNL     1       7.441   5.413  18.935  0.00  0.00    +0.000 C 
ATOM     26  C   UNL     1       7.808   6.822  18.518  0.00  0.00    +0.000 C 
ATOM     27  C   UNL     1       7.725   6.827  16.995  0.00  0.00    +0.000 C 
ENDBRANCH  16  23
ENDBRANCH   2  16
TORSDOF 6
ENDMDL
MODEL 2
REMARK VINA RESULT:      -8.1      0.712      1.306
REMARK  Name = 
REMARK  6 active torsions:
REMARK  status: ('A' for Active; 'I' for Inactive)
REMARK    1  A    between atoms: C_2  and  C_15
REMARK    2  A    between atoms: N_3  and  C_4
REMARK    3  A    between atoms: C_4  and  C_5
REMARK    4  A    between atoms: C_9  and  C_10
REMARK    5  A    between atoms: C_15  and  C_16
REMARK    6  A    between atoms: C_15  and  N_22
REMARK                            x       y       z     vdW  Elec       q    Type
REMARK                         _______ _______ _______ _____ _____    ______ ____
ROOT
ATOM      1  O   UNL     1       4.885   7.144  15.103  0.00  0.00    +0.000 OA
ATOM      2  C   UNL     1       5.144   6.339  15.994  0.00  0.00    +0.000 C 
ATOM      3  N   UNL     1       4.472   6.336  17.208  0.00  0.00    +0.000 N 
ATOM      4  H   UNL     1       4.541   5.518  17.797  0.00  0.00    +0.000 HD
ENDROOT
BRANCH   3   5
ATOM      5  C   UNL     1       3.436   7.292  17.527  0.00  0.00    +0.000 C 
BRANCH   5   6
ATOM      6  C   UNL     1       2.675   6.908  18.771  0.00  0.00    +0.000 A 
ATOM      7  C   UNL     1       2.107   7.888  19.598  0.00  0.00    +0.000 A 
ATOM      8  C   UNL     1       1.412   7.522  20.753  0.00  0.00    +0.000 A 
ATOM      9  C   UNL     1       1.279   6.177  21.095  0.00  0.00    +0.000 A 
ATOM     10  C   UNL     1       1.838   5.179  20.285  0.00  0.00    +0.000 A 
ATOM     11  C   UNL     1       2.540   5.558  19.127  0.00  0.00    +0.000 A 
BRANCH  10  12
ATOM     12  C   UNL     1       1.690   3.718  20.632  0.00  0.00    +0.000 C 
ATOM     13  F   UNL     1       1.722   3.471  21.973  0.00  0.00    +0.000 F 
ATOM     14  F   UNL     1       0.511   3.196  20.191  0.00  0.00    +0.000 F 
ATOM     15  F   UNL     1       2.669   2.944  20.087  0.00  0.00    +0.000 F 
ENDBRANCH  10  12
ENDBRANCH   5   6
ENDBRANCH   3   5
BRANCH   2  16
ATOM     16  C   UNL     1       6.224   5.221  15.879  0.00  0.00    +0.000 C 
BRANCH  16  17
ATOM     17  C   UNL     1       6.454   4.754  14.451  0.00  0.00    +0.000 A 
ATOM     18  C   UNL     1       7.500   5.300  13.695  0.00  0.00    +0.000 A 
ATOM     19  C   UNL     1       7.723   4.866  12.393  0.00  0.00    +0.000 A 
ATOM     20  C   UNL     1       6.883   3.897  11.875  0.00  0.00    +0.000 A 
ATOM     21  N   UNL     1       5.855   3.354  12.559  0.00  0.00    +0.000 NA
ATOM     22  C   UNL     1       5.657   3.799  13.823  0.00  0.00    +0.000 A 
ENDBRANCH  16  17
BRANCH  16  23
ATOM     23  N   UNL     1       7.491   5.489  16.605  0.00  0.00    +0.000 NA
ATOM     24  C   UNL     1       7.734   4.612  17.752  0.00  0.00    +0.000 C 
ATOM     25  C   UNL     1       7.397   5.432  18.980  0.00  0.00    +0.000 C 
ATOM     26  C   UNL     1       7.787   6.840  18.582  0.00  0.00    +0.000 C 
ATOM     27  C   UNL     1       7.695   6.869  17.060  0.00  0.00    +0.000 C 
ENDBRANCH  16  23
ENDBRANCH   2  16
TORSDOF 6
ENDMDL
MODEL 3
REMARK VINA RESULT:      -7.9      3.924      7.589
REMARK  Name = 
REMARK  6 active torsions:
REMARK  status: ('A' for Active; 'I' for Inactive)
REMARK    1  A    between atoms: C_2  and  C_15
REMARK    2  A    between atoms: N_3  and  C_4
REMARK    3  A    between atoms: C_4  and  C_5
REMARK    4  A    between atoms: C_9  and  C_10
REMARK    5  A    between atoms: C_15  and  C_16
REMARK    6  A    between atoms: C_15  and  N_22
REMARK                            x       y       z     vdW  Elec       q    Type
REMARK                         _______ _______ _______ _____ _____    ______ ____
ROOT
ATOM      1  O   UNL     1       1.835   4.736  17.431  0.00  0.00    +0.000 OA
ATOM      2  C   UNL     1       2.720   4.794  18.281  0.00  0.00    +0.000 C 
ATOM      3  N   UNL     1       3.922   4.114  18.146  0.00  0.00    +0.000 N 
ATOM      4  H   UNL     1       4.700   4.385  18.732  0.00  0.00    +0.000 HD
ENDROOT
BRANCH   3   5
ATOM      5  C   UNL     1       4.214   3.266  17.013  0.00  0.00    +0.000 C 
BRANCH   5   6
ATOM      6  C   UNL     1       5.263   3.869  16.112  0.00  0.00    +0.000 A 
ATOM      7  C   UNL     1       6.202   4.783  16.611  0.00  0.00    +0.000 A 
ATOM      8  C   UNL     1       7.163   5.343  15.767  0.00  0.00    +0.000 A 
ATOM      9  C   UNL     1       7.196   4.998  14.417  0.00  0.00    +0.000 A 
ATOM     10  C   UNL     1       6.269   4.086  13.893  0.00  0.00    +0.000 A 
ATOM     11  C   UNL     1       5.302   3.532  14.751  0.00  0.00    +0.000 A 
BRANCH  10  12
ATOM     12  C   UNL     1       6.301   3.690  12.437  0.00  0.00    +0.000 C 
ATOM     13  F   UNL     1       7.158   4.440  11.687  0.00  0.00    +0.000 F 
ATOM     14  F   UNL     1       6.692   2.396  12.259  0.00  0.00    +0.000 F 
ATOM     15  F   UNL     1       5.086   3.799  11.833  0.00  0.00    +0.000 F 
ENDBRANCH  10  12
ENDBRANCH   5   6
ENDBRANCH   3   5
BRANCH   2  16
ATOM     16  C   UNL     1       2.627   5.639  19.587  0.00  0.00    +0.000 C 
BRANCH  16  17
ATOM     17  C   UNL     1       2.217   7.082  19.342  0.00  0.00    +0.000 A 
ATOM     18  C   UNL     1       2.503   7.692  18.113  0.00  0.00    +0.000 A 
ATOM     19  C   UNL     1       2.119   9.007  17.879  0.00  0.00    +0.000 A 
ATOM     20  C   UNL     1       1.463   9.685  18.890  0.00  0.00    +0.000 A 
ATOM     21  N   UNL     1       1.180   9.145  20.092  0.00  0.00    +0.000 NA
ATOM     22  C   UNL     1       1.570   7.864  20.297  0.00  0.00    +0.000 A 
ENDBRANCH  16  17
BRANCH  16  23
ATOM     23  N   UNL     1       1.865   5.008  20.695  0.00  0.00    +0.000 NA
ATOM     24  C   UNL     1       2.689   4.299  21.676  0.00  0.00    +0.000 C 
ATOM     25  C   UNL     1       2.543   2.826  21.355  0.00  0.00    +0.000 C 
ATOM     26  C   UNL     1       1.122   2.717  20.840  0.00  0.00    +0.000 C 
ATOM     27  C   UNL     1       0.782   4.101  20.298  0.00  0.00    +0.000 C 
ENDBRANCH  16  23
ENDBRANCH   2  16
TORSDOF 6
ENDMDL
MODEL 4
REMARK VINA RESULT:      -7.7      4.083      5.766
REMARK  Name = 
REMARK  6 active torsions:
REMARK  status: ('A' for Active; 'I' for Inactive)
REMARK    1  A    between atoms: C_2  and  C_15
REMARK    2  A    between atoms: N_3  and  C_4
REMARK    3  A    between atoms: C_4  and  C_5
REMARK    4  A    between atoms: C_9  and  C_10
REMARK    5  A    between atoms: C_15  and  C_16
REMARK    6  A    between atoms: C_15  and  N_22
REMARK                            x       y       z     vdW  Elec       q    Type
REMARK                         _______ _______ _______ _____ _____    ______ ____
ROOT
ATOM      1  O   UNL     1       1.557   5.227  17.492  0.00  0.00    +0.000 OA
ATOM      2  C   UNL     1       2.695   5.362  17.934  0.00  0.00    +0.000 C 
ATOM      3  N   UNL     1       3.274   6.609  18.123  0.00  0.00    +0.000 N 
ATOM      4  H   UNL     1       4.093   6.678  18.711  0.00  0.00    +0.000 HD
ENDROOT
BRANCH   3   5
ATOM      5  C   UNL     1       2.594   7.841  17.792  0.00  0.00    +0.000 C 
BRANCH   5   6
ATOM      6  C   UNL     1       1.807   8.384  18.958  0.00  0.00    +0.000 A 
ATOM      7  C   UNL     1       1.904   7.797  20.228  0.00  0.00    +0.000 A 
ATOM      8  C   UNL     1       1.164   8.301  21.299  0.00  0.00    +0.000 A 
ATOM      9  C   UNL     1       0.319   9.394  21.114  0.00  0.00    +0.000 A 
ATOM     10  C   UNL     1       0.204   9.999  19.855  0.00  0.00    +0.000 A 
ATOM     11  C   UNL     1       0.950   9.480  18.782  0.00  0.00    +0.000 A 
BRANCH  10  12
ATOM     12  C   UNL     1      -0.694  11.193  19.642  0.00  0.00    +0.000 C 
ATOM     13  F   UNL     1      -1.701  10.964  18.751  0.00  0.00    +0.000 F 
ATOM     14  F   UNL     1      -1.305  11.596  20.792  0.00  0.00    +0.000 F 
ATOM     15  F   UNL     1      -0.024  12.281  19.173  0.00  0.00    +0.000 F 
ENDBRANCH  10  12
ENDBRANCH   5   6
ENDBRANCH   3   5
BRANCH   2  16
ATOM     16  C   UNL     1       3.618   4.178  18.355  0.00  0.00    +0.000 C 
BRANCH  16  17
ATOM     17  C   UNL     1       5.097   4.521  18.300  0.00  0.00    +0.000 A 
ATOM     18  C   UNL     1       5.811   4.354  17.106  0.00  0.00    +0.000 A 
ATOM     19  C   UNL     1       7.162   4.678  17.046  0.00  0.00    +0.000 A 
ATOM     20  C   UNL     1       7.769   5.156  18.193  0.00  0.00    +0.000 A 
ATOM     21  N   UNL     1       7.127   5.319  19.368  0.00  0.00    +0.000 NA
ATOM     22  C   UNL     1       5.814   4.991  19.400  0.00  0.00    +0.000 A 
ENDBRANCH  16  17
BRANCH  16  23
ATOM     23  N   UNL     1       3.235   3.496  19.617  0.00  0.00    +0.000 NA
ATOM     24  C   UNL     1       2.513   2.236  19.434  0.00  0.00    +0.000 C 
ATOM     25  C   UNL     1       1.056   2.549  19.703  0.00  0.00    +0.000 C 
ATOM     26  C   UNL     1       1.117   3.627  20.766  0.00  0.00    +0.000 C 
ATOM     27  C   UNL     1       2.473   4.300  20.579  0.00  0.00    +0.000 C 
ENDBRANCH  16  23
ENDBRANCH   2  16
TORSDOF 6
ENDMDL
MODEL 5
REMARK VINA RESULT:      -7.7      3.951      7.650
REMARK  Name = 
REMARK  6 active torsions:
REMARK  status: ('A' for Active; 'I' for Inactive)
REMARK    1  A    between atoms: C_2  and  C_15
REMARK    2  A    between atoms: N_3  and  C_4
REMARK    3  A    between atoms: C_4  and  C_5
REMARK    4  A    between atoms: C_9  and  C_10
REMARK    5  A    between atoms: C_15  and  C_16
REMARK    6  A    between atoms: C_15  and  N_22
REMARK                            x       y       z     vdW  Elec       q    Type
REMARK                         _______ _______ _______ _____ _____    ______ ____
ROOT
ATOM      1  O   UNL     1       1.643   4.774  17.475  0.00  0.00    +0.000 OA
ATOM      2  C   UNL     1       2.577   4.822  18.271  0.00  0.00    +0.000 C 
ATOM      3  N   UNL     1       3.778   4.166  18.044  0.00  0.00    +0.000 N 
ATOM      4  H   UNL     1       4.586   4.432  18.589  0.00  0.00    +0.000 HD
ENDROOT
BRANCH   3   5
ATOM      5  C   UNL     1       4.014   3.358  16.868  0.00  0.00    +0.000 C 
BRANCH   5   6
ATOM      6  C   UNL     1       5.136   3.905  16.023  0.00  0.00    +0.000 A 
ATOM      7  C   UNL     1       6.099   4.765  16.572  0.00  0.00    +0.000 A 
ATOM      8  C   UNL     1       7.129   5.273  15.778  0.00  0.00    +0.000 A 
ATOM      9  C   UNL     1       7.208   4.931  14.429  0.00  0.00    +0.000 A 
ATOM     10  C   UNL     1       6.260   4.074  13.856  0.00  0.00    +0.000 A 
ATOM     11  C   UNL     1       5.223   3.571  14.663  0.00  0.00    +0.000 A 
BRANCH  10  12
ATOM     12  C   UNL     1       6.340   3.680  12.401  0.00  0.00    +0.000 C 
ATOM     13  F   UNL     1       6.834   2.425  12.204  0.00  0.00    +0.000 F 
ATOM     14  F   UNL     1       5.122   3.697  11.791  0.00  0.00    +0.000 F 
ATOM     15  F   UNL     1       7.135   4.512  11.673  0.00  0.00    +0.000 F 
ENDBRANCH  10  12
ENDBRANCH   5   6
ENDBRANCH   3   5
BRANCH   2  16
ATOM     16  C   UNL     1       2.550   5.624  19.607  0.00  0.00    +0.000 C 
BRANCH  16  17
ATOM     17  C   UNL     1       2.126   7.073  19.429  0.00  0.00    +0.000 A 
ATOM     18  C   UNL     1       1.437   7.732  20.455  0.00  0.00    +0.000 A 
ATOM     19  C   UNL     1       1.058   9.061  20.303  0.00  0.00    +0.000 A 
ATOM     20  C   UNL     1       1.374   9.698  19.115  0.00  0.00    +0.000 A 
ATOM     21  N   UNL     1       2.021   9.099  18.095  0.00  0.00    +0.000 NA
ATOM     22  C   UNL     1       2.373   7.803  18.268  0.00  0.00    +0.000 A 
ENDBRANCH  16  17
BRANCH  16  23
ATOM     23  N   UNL     1       1.847   4.957  20.732  0.00  0.00    +0.000 NA
ATOM     24  C   UNL     1       2.726   4.252  21.667  0.00  0.00    +0.000 C 
ATOM     25  C   UNL     1       2.602   2.781  21.326  0.00  0.00    +0.000 C 
ATOM     26  C   UNL     1       1.166   2.646  20.865  0.00  0.00    +0.000 C 
ATOM     27  C   UNL     1       0.771   4.030  20.361  0.00  0.00    +0.000 C 
ENDBRANCH  16  23
ENDBRANCH   2  16
TORSDOF 6
ENDMDL
MODEL 6
REMARK VINA RESULT:      -7.6      3.641      5.771
REMARK  Name = 
REMARK  6 active torsions:
REMARK  status: ('A' for Active; 'I' for Inactive)
REMARK    1  A    between atoms: C_2  and  C_15
REMARK    2  A    between atoms: N_3  and  C_4
REMARK    3  A    between atoms: C_4  and  C_5
REMARK    4  A    between atoms: C_9  and  C_10
REMARK    5  A    between atoms: C_15  and  C_16
REMARK    6  A    between atoms: C_15  and  N_22
REMARK                            x       y       z     vdW  Elec       q    Type
REMARK                         _______ _______ _______ _____ _____    ______ ____
ROOT
ATOM      1  O   UNL     1       3.448   7.894  16.677  0.00  0.00    +0.000 OA
ATOM      2  C   UNL     1       3.137   7.495  17.797  0.00  0.00    +0.000 C 
ATOM      3  N   UNL     1       2.169   8.126  18.565  0.00  0.00    +0.000 N 
ATOM      4  H   UNL     1       1.776   7.629  19.352  0.00  0.00    +0.000 HD
ENDROOT
BRANCH   3   5
ATOM      5  C   UNL     1       1.472   9.311  18.120  0.00  0.00    +0.000 C 
BRANCH   5   6
ATOM      6  C   UNL     1       1.005  10.160  19.276  0.00  0.00    +0.000 A 
ATOM      7  C   UNL     1       1.050  11.560  19.205  0.00  0.00    +0.000 A 
ATOM      8  C   UNL     1       0.624  12.337  20.284  0.00  0.00    +0.000 A 
ATOM      9  C   UNL     1       0.151  11.726  21.444  0.00  0.00    +0.000 A 
ATOM     10  C   UNL     1       0.095  10.329  21.540  0.00  0.00    +0.000 A 
ATOM     11  C   UNL     1       0.531   9.556  20.449  0.00  0.00    +0.000 A 
BRANCH  10  12
ATOM     12  C   UNL     1      -0.430   9.652  22.782  0.00  0.00    +0.000 C 
ATOM     13  F   UNL     1       0.521   9.460  23.740  0.00  0.00    +0.000 F 
ATOM     14  F   UNL     1      -1.421  10.368  23.385  0.00  0.00    +0.000 F 
ATOM     15  F   UNL     1      -0.958   8.422  22.531  0.00  0.00    +0.000 F 
ENDBRANCH  10  12
ENDBRANCH   5   6
ENDBRANCH   3   5
BRANCH   2  16
ATOM     16  C   UNL     1       3.758   6.242  18.484  0.00  0.00    +0.000 C 
BRANCH  16  17
ATOM     17  C   UNL     1       2.737   5.159  18.792  0.00  0.00    +0.000 A 
ATOM     18  C   UNL     1       2.332   4.933  20.114  0.00  0.00    +0.000 A 
ATOM     19  C   UNL     1       1.389   3.952  20.400  0.00  0.00    +0.000 A 
ATOM     20  C   UNL     1       0.880   3.211  19.348  0.00  0.00    +0.000 A 
ATOM     21  N   UNL     1       1.251   3.382  18.063  0.00  0.00    +0.000 NA
ATOM     22  C   UNL     1       2.175   4.340  17.814  0.00  0.00    +0.000 A 
ENDBRANCH  16  17
BRANCH  16  23
ATOM     23  N   UNL     1       4.983   5.708  17.838  0.00  0.00    +0.000 NA
ATOM     24  C   UNL     1       5.724   4.736  18.645  0.00  0.00    +0.000 C 
ATOM     25  C   UNL     1       6.910   5.487  19.213  0.00  0.00    +0.000 C 
ATOM     26  C   UNL     1       7.248   6.488  18.127  0.00  0.00    +0.000 C 
ATOM     27  C   UNL     1       5.948   6.705  17.361  0.00  0.00    +0.000 C 
ENDBRANCH  16  23
ENDBRANCH   2  16
TORSDOF 6
ENDMDL
MODEL 7
REMARK VINA RESULT:      -7.6      3.444      7.452
REMARK  Name = 
REMARK  6 active torsions:
REMARK  status: ('A' for Active; 'I' for Inactive)
REMARK    1  A    between atoms: C_2  and  C_15
REMARK    2  A    between atoms: N_3  and  C_4
REMARK    3  A    between atoms: C_4  and  C_5
REMARK    4  A    between atoms: C_9  and  C_10
REMARK    5  A    between atoms: C_15  and  C_16
REMARK    6  A    between atoms: C_15  and  N_22
REMARK                            x       y       z     vdW  Elec       q    Type
REMARK                         _______ _______ _______ _____ _____    ______ ____
ROOT
ATOM      1  O   UNL     1       6.274   5.547  18.826  0.00  0.00    +0.000 OA
ATOM      2  C   UNL     1       5.405   5.150  18.053  0.00  0.00    +0.000 C 
ATOM      3  N   UNL     1       5.690   4.770  16.750  0.00  0.00    +0.000 N 
ATOM      4  H   UNL     1       5.006   4.225  16.243  0.00  0.00    +0.000 HD
ENDROOT
BRANCH   3   5
ATOM      5  C   UNL     1       7.023   4.835  16.194  0.00  0.00    +0.000 C 
BRANCH   5   6
ATOM      6  C   UNL     1       7.013   4.752  14.688  0.00  0.00    +0.000 A 
ATOM      7  C   UNL     1       7.999   5.393  13.925  0.00  0.00    +0.000 A 
ATOM      8  C   UNL     1       7.976   5.318  12.531  0.00  0.00    +0.000 A 
ATOM      9  C   UNL     1       6.967   4.605  11.885  0.00  0.00    +0.000 A 
ATOM     10  C   UNL     1       5.970   3.955  12.624  0.00  0.00    +0.000 A 
ATOM     11  C   UNL     1       6.000   4.041  14.027  0.00  0.00    +0.000 A 
BRANCH  10  12
ATOM     12  C   UNL     1       4.880   3.166  11.941  0.00  0.00    +0.000 C 
ATOM     13  F   UNL     1       4.430   3.742  10.790  0.00  0.00    +0.000 F 
ATOM     14  F   UNL     1       5.289   1.913  11.589  0.00  0.00    +0.000 F 
ATOM     15  F   UNL     1       3.781   2.994  12.725  0.00  0.00    +0.000 F 
ENDBRANCH  10  12
ENDBRANCH   5   6
ENDBRANCH   3   5
BRANCH   2  16
ATOM     16  C   UNL     1       3.899   5.002  18.428  0.00  0.00    +0.000 C 
BRANCH  16  17
ATOM     17  C   UNL     1       3.192   6.335  18.611  0.00  0.00    +0.000 A 
ATOM     18  C   UNL     1       3.240   7.298  17.594  0.00  0.00    +0.000 A 
ATOM     19  C   UNL     1       2.583   8.514  17.751  0.00  0.00    +0.000 A 
ATOM     20  C   UNL     1       1.899   8.739  18.932  0.00  0.00    +0.000 A 
ATOM     21  N   UNL     1       1.839   7.848  19.943  0.00  0.00    +0.000 NA
ATOM     22  C   UNL     1       2.491   6.675  19.767  0.00  0.00    +0.000 A 
ENDBRANCH  16  17
BRANCH  16  23
ATOM     23  N   UNL     1       3.128   4.056  17.584  0.00  0.00    +0.000 NA
ATOM     24  C   UNL     1       1.679   4.265  17.601  0.00  0.00    +0.000 C 
ATOM     25  C   UNL     1       1.114   3.193  18.509  0.00  0.00    +0.000 C 
ATOM     26  C   UNL     1       2.044   2.018  18.289  0.00  0.00    +0.000 C 
ATOM     27  C   UNL     1       3.365   2.629  17.833  0.00  0.00    +0.000 C 
ENDBRANCH  16  23
ENDBRANCH   2  16
TORSDOF 6
ENDMDL
MODEL 8
REMARK VINA RESULT:      -7.4      3.760      5.349
REMARK  Name = 
REMARK  6 active torsions:
REMARK  status: ('A' for Active; 'I' for Inactive)
REMARK    1  A    between atoms: C_2  and  C_15
REMARK    2  A    between atoms: N_3  and  C_4
REMARK    3  A    between atoms: C_4  and  C_5
REMARK    4  A    between atoms: C_9  and  C_10
REMARK    5  A    between atoms: C_15  and  C_16
REMARK    6  A    between atoms: C_15  and  N_22
REMARK                            x       y       z     vdW  Elec       q    Type
REMARK                         _______ _______ _______ _____ _____    ______ ____
ROOT
ATOM      1  O   UNL     1       4.746   5.891  19.411  0.00  0.00    +0.000 OA
ATOM      2  C   UNL     1       3.769   5.380  18.870  0.00  0.00    +0.000 C 
ATOM      3  N   UNL     1       2.469   5.719  19.217  0.00  0.00    +0.000 N 
ATOM      4  H   UNL     1       1.719   5.469  18.587  0.00  0.00    +0.000 HD
ENDROOT
BRANCH   3   5
ATOM      5  C   UNL     1       2.165   6.677  20.256  0.00  0.00    +0.000 C 
BRANCH   5   6
ATOM      6  C   UNL     1       1.767   8.017  19.691  0.00  0.00    +0.000 A 
ATOM      7  C   UNL     1       2.075   8.361  18.366  0.00  0.00    +0.000 A 
ATOM      8  C   UNL     1       1.710   9.608  17.855  0.00  0.00    +0.000 A 
ATOM      9  C   UNL     1       1.036  10.525  18.660  0.00  0.00    +0.000 A 
ATOM     10  C   UNL     1       0.716  10.206  19.987  0.00  0.00    +0.000 A 
ATOM     11  C   UNL     1       1.092   8.949  20.493  0.00  0.00    +0.000 A 
BRANCH  10  12
ATOM     12  C   UNL     1      -0.027  11.181  20.867  0.00  0.00    +0.000 C 
ATOM     13  F   UNL     1      -1.337  11.339  20.520  0.00  0.00    +0.000 F 
ATOM     14  F   UNL     1      -0.037  10.798  22.175  0.00  0.00    +0.000 F 
ATOM     15  F   UNL     1       0.515  12.430  20.847  0.00  0.00    +0.000 F 
ENDBRANCH  10  12
ENDBRANCH   5   6
ENDBRANCH   3   5
BRANCH   2  16
ATOM     16  C   UNL     1       3.852   4.322  17.729  0.00  0.00    +0.000 C 
BRANCH  16  17
ATOM     17  C   UNL     1       5.076   4.487  16.844  0.00  0.00    +0.000 A 
ATOM     18  C   UNL     1       4.921   4.695  15.467  0.00  0.00    +0.000 A 
ATOM     19  C   UNL     1       6.037   4.860  14.654  0.00  0.00    +0.000 A 
ATOM     20  C   UNL     1       7.288   4.804  15.243  0.00  0.00    +0.000 A 
ATOM     21  N   UNL     1       7.485   4.590  16.560  0.00  0.00    +0.000 NA
ATOM     22  C   UNL     1       6.382   4.427  17.327  0.00  0.00    +0.000 A 
ENDBRANCH  16  17
BRANCH  16  23
ATOM     23  N   UNL     1       3.639   2.915  18.155  0.00  0.00    +0.000 NA
ATOM     24  C   UNL     1       2.427   2.292  17.620  0.00  0.00    +0.000 C 
ATOM     25  C   UNL     1       1.421   2.300  18.751  0.00  0.00    +0.000 C 
ATOM     26  C   UNL     1       2.279   2.132  19.988  0.00  0.00    +0.000 C 
ATOM     27  C   UNL     1       3.653   2.671  19.602  0.00  0.00    +0.000 C 
ENDBRANCH  16  23
ENDBRANCH   2  16
TORSDOF 6
ENDMDL
MODEL 9
REMARK VINA RESULT:      -7.4      4.581      6.561
REMARK  Name = 
REMARK  6 active torsions:
REMARK  status: ('A' for Active; 'I' for Inactive)
REMARK    1  A    between atoms: C_2  and  C_15
REMARK    2  A    between atoms: N_3  and  C_4
REMARK    3  A    between atoms: C_4  and  C_5
REMARK    4  A    between atoms: C_9  and  C_10
REMARK    5  A    between atoms: C_15  and  C_16
REMARK    6  A    between atoms: C_15  and  N_22
REMARK                            x       y       z     vdW  Elec       q    Type
REMARK                         _______ _______ _______ _____ _____    ______ ____
ROOT
ATOM      1  O   UNL     1       2.542   8.182  17.156  0.00  0.00    +0.000 OA
ATOM      2  C   UNL     1       2.599   7.646  18.260  0.00  0.00    +0.000 C 
ATOM      3  N   UNL     1       1.959   8.172  19.372  0.00  0.00    +0.000 N 
ATOM      4  H   UNL     1       1.826   7.579  20.180  0.00  0.00    +0.000 HD
ENDROOT
BRANCH   3   5
ATOM      5  C   UNL     1       1.199   9.401  19.325  0.00  0.00    +0.000 C 
BRANCH   5   6
ATOM      6  C   UNL     1       0.557   9.720  20.651  0.00  0.00    +0.000 A 
ATOM      7  C   UNL     1       0.869   8.978  21.800  0.00  0.00    +0.000 A 
ATOM      8  C   UNL     1       0.261   9.275  23.021  0.00  0.00    +0.000 A 
ATOM      9  C   UNL     1      -0.665  10.313  23.109  0.00  0.00    +0.000 A 
ATOM     10  C   UNL     1      -0.994  11.070  21.977  0.00  0.00    +0.000 A 
ATOM     11  C   UNL     1      -0.380  10.760  20.750  0.00  0.00    +0.000 A 
BRANCH  10  12
ATOM     12  C   UNL     1      -1.982  12.208  22.058  0.00  0.00    +0.000 C 
ATOM     13  F   UNL     1      -1.416  13.396  22.415  0.00  0.00    +0.000 F 
ATOM     14  F   UNL     1      -2.606  12.440  20.868  0.00  0.00    +0.000 F 
ATOM     15  F   UNL     1      -2.974  11.982  22.962  0.00  0.00    +0.000 F 
ENDBRANCH  10  12
ENDBRANCH   5   6
ENDBRANCH   3   5
BRANCH   2  16
ATOM     16  C   UNL     1       3.362   6.319  18.551  0.00  0.00    +0.000 C 
BRANCH  16  17
ATOM     17  C   UNL     1       2.440   5.151  18.863  0.00  0.00    +0.000 A 
ATOM     18  C   UNL     1       2.198   4.786  20.194  0.00  0.00    +0.000 A 
ATOM     19  C   UNL     1       1.345   3.728  20.485  0.00  0.00    +0.000 A 
ATOM     20  C   UNL     1       0.760   3.052  19.429  0.00  0.00    +0.000 A 
ATOM     21  N   UNL     1       0.975   3.357  18.134  0.00  0.00    +0.000 NA
ATOM     22  C   UNL     1       1.815   4.388  17.878  0.00  0.00    +0.000 A 
ENDBRANCH  16  17
BRANCH  16  23
ATOM     23  N   UNL     1       4.418   5.967  17.568  0.00  0.00    +0.000 NA
ATOM     24  C   UNL     1       5.136   4.726  17.862  0.00  0.00    +0.000 C 
ATOM     25  C   UNL     1       6.469   5.144  18.447  0.00  0.00    +0.000 C 
ATOM     26  C   UNL     1       6.779   6.440  17.727  0.00  0.00    +0.000 C 
ATOM     27  C   UNL     1       5.425   7.002  17.307  0.00  0.00    +0.000 C 
ENDBRANCH  16  23
ENDBRANCH   2  16
TORSDOF 6
ENDMDL
