MODEL 1
REMARK VINA RESULT:      -7.9      0.000      0.000
REMARK  Name = 
REMARK  8 active torsions:
REMARK  status: ('A' for Active; 'I' for Inactive)
REMARK    1  A    between atoms: C_2  and  C_3
REMARK    2  A    between atoms: N_11  and  C_12
REMARK    3  A    between atoms: C_12  and  C_13
REMARK    4  A    between atoms: C_13  and  N_14
REMARK    5  A    between atoms: C_17  and  N_18
REMARK    6  A    between atoms: N_18  and  C_19
REMARK    7  A    between atoms: C_19  and  C_20
REMARK    8  A    between atoms: C_30  and  O_31
REMARK                            x       y       z     vdW  Elec       q    Type
REMARK                         _______ _______ _______ _____ _____    ______ ____
ROOT
ATOM      1  N   UNL     1      -1.289  12.521  20.902  0.00  0.00    +0.000 NA
ATOM      2  C   UNL     1       0.049  12.536  21.500  0.00  0.00    +0.000 C 
ATOM      3  C   UNL     1       1.178  12.671  20.462  0.00  0.00    +0.000 C 
ATOM      4  C   UNL     1       0.762  12.268  19.031  0.00  0.00    +0.000 C 
ATOM      5  C   UNL     1      -0.430  13.211  18.651  0.00  0.00    +0.000 C 
ATOM      6  C   UNL     1      -1.415  13.495  19.815  0.00  0.00    +0.000 C 
ENDROOT
BRANCH   4   7
ATOM      7  N   UNL     1       0.508  10.807  18.815  0.00  0.00    +0.000 NA
ATOM      8  H   UNL     1       0.392  10.354  19.725  0.00  0.00    +0.000 HD
BRANCH   7   9
ATOM      9  C   UNL     1       1.647  10.165  18.114  0.00  0.00    +0.000 C 
BRANCH   9  10
ATOM     10  C   UNL     1       1.957   8.718  18.481  0.00  0.00    +0.000 A 
ATOM     11  C   UNL     1       2.719   7.859  17.671  0.00  0.00    +0.000 A 
ATOM     12  C   UNL     1       3.102   6.609  18.182  0.00  0.00    +0.000 A 
ATOM     13  C   UNL     1       2.808   6.302  19.502  0.00  0.00    +0.000 A 
ATOM     14  C   UNL     1       2.029   7.184  20.221  0.00  0.00    +0.000 A 
ATOM     15  N   UNL     1       1.577   8.359  19.734  0.00  0.00    +0.000 NA
ATOM     16  O   UNL     1       3.262   5.174  20.122  0.00  0.00    +0.000 OA
ATOM     17  C   UNL     1       3.170   4.100  19.196  0.00  0.00    +0.000 C 
ATOM     18  C   UNL     1       3.909   4.398  17.893  0.00  0.00    +0.000 C 
ATOM     19  O   UNL     1       3.764   5.731  17.366  0.00  0.00    +0.000 OA
ENDBRANCH   9  10
ENDBRANCH   7   9
ENDBRANCH   4   7
BRANCH   5  20
ATOM     20  O   UNL     1      -1.140  12.737  17.507  0.00  0.00    +0.000 OA
ATOM     21  H   UNL     1      -1.297  11.790  17.678  0.00  0.00    +0.000 HD
ENDBRANCH   5  20
BRANCH   1  22
ATOM     22  C   UNL     1      -2.395  12.601  21.880  0.00  0.00    +0.000 C 
BRANCH  22  23
ATOM     23  C   UNL     1      -3.518  13.631  21.608  0.00  0.00    +0.000 C 
BRANCH  23  32
ATOM     24  C   UNL     1      -5.204  11.572  18.166  0.00  0.00    +0.000 A 
ATOM     25  C   UNL     1      -6.508  11.078  18.220  0.00  0.00    +0.000 A 
ATOM     26  C   UNL     1      -7.258  11.232  19.384  0.00  0.00    +0.000 A 
ATOM     27  C   UNL     1      -6.707  11.874  20.502  0.00  0.00    +0.000 A 
ATOM     28  C   UNL     1      -7.482  11.961  21.733  0.00  0.00    +0.000 A 
ATOM     29  C   UNL     1      -6.949  12.533  22.818  0.00  0.00    +0.000 A 
ATOM     30  C   UNL     1      -5.593  13.132  22.801  0.00  0.00    +0.000 A 
ATOM     31  O   UNL     1      -5.182  13.664  23.829  0.00  0.00    +0.000 OA
ATOM     32  N   UNL     1      -4.864  13.042  21.616  0.00  0.00    +0.000 N 
ATOM     33  C   UNL     1      -5.400  12.400  20.453  0.00  0.00    +0.000 A 
ATOM     34  C   UNL     1      -4.662  12.247  19.271  0.00  0.00    +0.000 A 
BRANCH  24  36
ATOM     35  N   UNL     1      -3.745  11.200  16.047  0.00  0.00    +0.000 NA
ATOM     36  C   UNL     1      -4.411  11.371  16.997  0.00  0.00    +0.000 C 
ENDBRANCH  24  36
ENDBRANCH  23  32
ENDBRANCH  22  23
ENDBRANCH   1  22
TORSDOF 8
ENDMDL
MODEL 2
REMARK VINA RESULT:      -7.9      3.868      9.118
REMARK  Name = 
REMARK  8 active torsions:
REMARK  status: ('A' for Active; 'I' for Inactive)
REMARK    1  A    between atoms: C_2  and  C_3
REMARK    2  A    between atoms: N_11  and  C_12
REMARK    3  A    between atoms: C_12  and  C_13
REMARK    4  A    between atoms: C_13  and  N_14
REMARK    5  A    between atoms: C_17  and  N_18
REMARK    6  A    between atoms: N_18  and  C_19
REMARK    7  A    between atoms: C_19  and  C_20
REMARK    8  A    between atoms: C_30  and  O_31
REMARK                            x       y       z     vdW  Elec       q    Type
REMARK                         _______ _______ _______ _____ _____    ______ ____
ROOT
ATOM      1  N   UNL     1       0.604  10.042  18.124  0.00  0.00    +0.000 NA
ATOM      2  C   UNL     1       0.759  10.491  19.511  0.00  0.00    +0.000 C 
ATOM      3  C   UNL     1      -0.303  11.519  19.940  0.00  0.00    +0.000 C 
ATOM      4  C   UNL     1      -0.985  12.243  18.759  0.00  0.00    +0.000 C 
ATOM      5  C   UNL     1      -1.649  11.118  17.894  0.00  0.00    +0.000 C 
ATOM      6  C   UNL     1      -0.802   9.824  17.772  0.00  0.00    +0.000 C 
ENDROOT
BRANCH   4   7
ATOM      7  N   UNL     1      -0.120  13.201  17.998  0.00  0.00    +0.000 NA
ATOM      8  H   UNL     1       0.806  12.785  17.875  0.00  0.00    +0.000 HD
BRANCH   7   9
ATOM      9  C   UNL     1       0.035  14.480  18.734  0.00  0.00    +0.000 C 
BRANCH   9  10
ATOM     10  C   UNL     1       1.447  15.045  18.849  0.00  0.00    +0.000 A 
ATOM     11  C   UNL     1       2.581  14.411  18.316  0.00  0.00    +0.000 A 
ATOM     12  C   UNL     1       3.804  15.100  18.314  0.00  0.00    +0.000 A 
ATOM     13  C   UNL     1       3.835  16.419  18.742  0.00  0.00    +0.000 A 
ATOM     14  C   UNL     1       2.686  16.958  19.281  0.00  0.00    +0.000 A 
ATOM     15  N   UNL     1       1.513  16.296  19.372  0.00  0.00    +0.000 NA
ATOM     16  O   UNL     1       4.945  17.207  18.644  0.00  0.00    +0.000 OA
ATOM     17  C   UNL     1       6.075  16.414  18.984  0.00  0.00    +0.000 C 
ATOM     18  C   UNL     1       6.169  15.150  18.132  0.00  0.00    +0.000 C 
ATOM     19  O   UNL     1       4.932  14.454  17.881  0.00  0.00    +0.000 OA
ENDBRANCH   9  10
ENDBRANCH   7   9
ENDBRANCH   4   7
BRANCH   5  20
ATOM     20  O   UNL     1      -2.017  11.591  16.599  0.00  0.00    +0.000 OA
ATOM     21  H   UNL     1      -1.356  11.214  15.990  0.00  0.00    +0.000 HD
ENDBRANCH   5  20
BRANCH   1  22
ATOM     22  C   UNL     1       1.476   8.909  17.748  0.00  0.00    +0.000 C 
BRANCH  22  23
ATOM     23  C   UNL     1       2.578   8.490  18.750  0.00  0.00    +0.000 C 
BRANCH  23  32
ATOM     24  C   UNL     1       4.637   5.242  16.715  0.00  0.00    +0.000 A 
ATOM     25  C   UNL     1       4.457   3.926  17.143  0.00  0.00    +0.000 A 
ATOM     26  C   UNL     1       3.630   3.662  18.233  0.00  0.00    +0.000 A 
ATOM     27  C   UNL     1       2.985   4.709  18.905  0.00  0.00    +0.000 A 
ATOM     28  C   UNL     1       2.183   4.418  20.086  0.00  0.00    +0.000 A 
ATOM     29  C   UNL     1       1.598   5.415  20.758  0.00  0.00    +0.000 A 
ATOM     30  C   UNL     1       1.702   6.825  20.314  0.00  0.00    +0.000 A 
ATOM     31  O   UNL     1       1.116   7.684  20.968  0.00  0.00    +0.000 OA
ATOM     32  N   UNL     1       2.472   7.089  19.181  0.00  0.00    +0.000 N 
ATOM     33  C   UNL     1       3.138   6.041  18.468  0.00  0.00    +0.000 A 
ATOM     34  C   UNL     1       3.964   6.290  17.363  0.00  0.00    +0.000 A 
BRANCH  24  36
ATOM     35  N   UNL     1       6.243   5.776  14.743  0.00  0.00    +0.000 NA
ATOM     36  C   UNL     1       5.524   5.527  15.635  0.00  0.00    +0.000 C 
ENDBRANCH  24  36
ENDBRANCH  23  32
ENDBRANCH  22  23
ENDBRANCH   1  22
TORSDOF 8
ENDMDL
MODEL 3
REMARK VINA RESULT:      -7.7      4.410     10.102
REMARK  Name = 
REMARK  8 active torsions:
REMARK  status: ('A' for Active; 'I' for Inactive)
REMARK    1  A    between atoms: C_2  and  C_3
REMARK    2  A    between atoms: N_11  and  C_12
REMARK    3  A    between atoms: C_12  and  C_13
REMARK    4  A    between atoms: C_13  and  N_14
REMARK    5  A    between atoms: C_17  and  N_18
REMARK    6  A    between atoms: N_18  and  C_19
REMARK    7  A    between atoms: C_19  and  C_20
REMARK    8  A    between atoms: C_30  and  O_31
REMARK                            x       y       z     vdW  Elec       q    Type
REMARK                         _______ _______ _______ _____ _____    ______ ____
ROOT
ATOM      1  N   UNL     1       1.478   9.036  19.471  0.00  0.00    +0.000 NA
ATOM      2  C   UNL     1       0.857   8.827  20.782  0.00  0.00    +0.000 C 
ATOM      3  C   UNL     1      -0.087   9.970  21.198  0.00  0.00    +0.000 C 
ATOM      4  C   UNL     1       0.169  11.295  20.449  0.00  0.00    +0.000 C 
ATOM      5  C   UNL     1      -0.023  10.970  18.929  0.00  0.00    +0.000 C 
ATOM      6  C   UNL     1       0.530   9.586  18.498  0.00  0.00    +0.000 C 
ENDROOT
BRANCH   4   7
ATOM      7  N   UNL     1       1.446  11.999  20.791  0.00  0.00    +0.000 NA
ATOM      8  H   UNL     1       1.896  11.509  21.569  0.00  0.00    +0.000 HD
BRANCH   7   9
ATOM      9  C   UNL     1       1.189  13.399  21.207  0.00  0.00    +0.000 C 
BRANCH   9  10
ATOM     10  C   UNL     1       1.320  14.474  20.132  0.00  0.00    +0.000 A 
ATOM     11  C   UNL     1       0.531  15.636  20.097  0.00  0.00    +0.000 A 
ATOM     12  C   UNL     1       0.854  16.646  19.178  0.00  0.00    +0.000 A 
ATOM     13  C   UNL     1       1.998  16.514  18.405  0.00  0.00    +0.000 A 
ATOM     14  C   UNL     1       2.700  15.330  18.474  0.00  0.00    +0.000 A 
ATOM     15  N   UNL     1       2.372  14.305  19.290  0.00  0.00    +0.000 NA
ATOM     16  O   UNL     1       2.463  17.505  17.590  0.00  0.00    +0.000 OA
ATOM     17  C   UNL     1       1.345  18.106  16.951  0.00  0.00    +0.000 C 
ATOM     18  C   UNL     1       0.306  18.604  17.955  0.00  0.00    +0.000 C 
ATOM     19  O   UNL     1       0.034  17.739  19.076  0.00  0.00    +0.000 OA
ENDBRANCH   9  10
ENDBRANCH   7   9
ENDBRANCH   4   7
BRANCH   5  20
ATOM     20  O   UNL     1       0.511  11.997  18.094  0.00  0.00    +0.000 OA
ATOM     21  H   UNL     1      -0.205  12.221  17.472  0.00  0.00    +0.000 HD
ENDBRANCH   5  20
BRANCH   1  22
ATOM     22  C   UNL     1       2.222   7.868  18.955  0.00  0.00    +0.000 C 
BRANCH  22  23
ATOM     23  C   UNL     1       2.371   6.644  19.889  0.00  0.00    +0.000 C 
BRANCH  23  32
ATOM     24  C   UNL     1       5.702   5.846  17.206  0.00  0.00    +0.000 A 
ATOM     25  C   UNL     1       5.762   4.638  16.511  0.00  0.00    +0.000 A 
ATOM     26  C   UNL     1       4.762   3.685  16.693  0.00  0.00    +0.000 A 
ATOM     27  C   UNL     1       3.701   3.931  17.575  0.00  0.00    +0.000 A 
ATOM     28  C   UNL     1       2.705   2.893  17.806  0.00  0.00    +0.000 A 
ATOM     29  C   UNL     1       1.713   3.102  18.677  0.00  0.00    +0.000 A 
ATOM     30  C   UNL     1       1.562   4.389  19.398  0.00  0.00    +0.000 A 
ATOM     31  O   UNL     1       0.610   4.516  20.164  0.00  0.00    +0.000 OA
ATOM     32  N   UNL     1       2.522   5.373  19.166  0.00  0.00    +0.000 N 
ATOM     33  C   UNL     1       3.614   5.157  18.266  0.00  0.00    +0.000 A 
ATOM     34  C   UNL     1       4.622   6.110  18.063  0.00  0.00    +0.000 A 
BRANCH  24  36
ATOM     35  N   UNL     1       7.598   7.605  16.951  0.00  0.00    +0.000 NA
ATOM     36  C   UNL     1       6.750   6.804  17.067  0.00  0.00    +0.000 C 
ENDBRANCH  24  36
ENDBRANCH  23  32
ENDBRANCH  22  23
ENDBRANCH   1  22
TORSDOF 8
ENDMDL
MODEL 4
REMARK VINA RESULT:      -7.6      2.518     10.465
REMARK  Name = 
REMARK  8 active torsions:
REMARK  status: ('A' for Active; 'I' for Inactive)
REMARK    1  A    between atoms: C_2  and  C_3
REMARK    2  A    between atoms: N_11  and  C_12
REMARK    3  A    between atoms: C_12  and  C_13
REMARK    4  A    between atoms: C_13  and  N_14
REMARK    5  A    between atoms: C_17  and  N_18
REMARK    6  A    between atoms: N_18  and  C_19
REMARK    7  A    between atoms: C_19  and  C_20
REMARK    8  A    between atoms: C_30  and  O_31
REMARK                            x       y       z     vdW  Elec       q    Type
REMARK                         _______ _______ _______ _____ _____    ______ ____
ROOT
ATOM      1  N   UNL     1       1.499   9.003  18.573  0.00  0.00    +0.000 NA
ATOM      2  C   UNL     1       1.982  10.280  18.039  0.00  0.00    +0.000 C 
ATOM      3  C   UNL     1       1.526  11.496  18.866  0.00  0.00    +0.000 C 
ATOM      4  C   UNL     1       0.292  11.223  19.751  0.00  0.00    +0.000 C 
ATOM      5  C   UNL     1       0.703  10.052  20.707  0.00  0.00    +0.000 C 
ATOM      6  C   UNL     1       1.574   8.957  20.036  0.00  0.00    +0.000 C 
ENDROOT
BRANCH   4   7
ATOM      7  N   UNL     1      -1.001  11.021  19.020  0.00  0.00    +0.000 NA
ATOM      8  H   UNL     1      -0.796  10.796  18.043  0.00  0.00    +0.000 HD
BRANCH   7   9
ATOM      9  C   UNL     1      -1.830  12.250  19.054  0.00  0.00    +0.000 C 
BRANCH   9  10
ATOM     10  C   UNL     1      -2.855  12.363  20.178  0.00  0.00    +0.000 A 
ATOM     11  C   UNL     1      -2.520  12.306  21.541  0.00  0.00    +0.000 A 
ATOM     12  C   UNL     1      -3.507  12.604  22.494  0.00  0.00    +0.000 A 
ATOM     13  C   UNL     1      -4.749  13.045  22.062  0.00  0.00    +0.000 A 
ATOM     14  C   UNL     1      -5.009  13.043  20.708  0.00  0.00    +0.000 A 
ATOM     15  N   UNL     1      -4.108  12.686  19.768  0.00  0.00    +0.000 NA
ATOM     16  O   UNL     1      -5.717  13.489  22.915  0.00  0.00    +0.000 OA
ATOM     17  C   UNL     1      -5.718  12.640  24.055  0.00  0.00    +0.000 C 
ATOM     18  C   UNL     1      -4.342  12.558  24.713  0.00  0.00    +0.000 C 
ATOM     19  O   UNL     1      -3.212  12.459  23.823  0.00  0.00    +0.000 OA
ENDBRANCH   9  10
ENDBRANCH   7   9
ENDBRANCH   4   7
BRANCH   5  20
ATOM     20  O   UNL     1      -0.431   9.460  21.342  0.00  0.00    +0.000 OA
ATOM     21  H   UNL     1      -0.926   9.022  20.625  0.00  0.00    +0.000 HD
ENDBRANCH   5  20
BRANCH   1  22
ATOM     22  C   UNL     1       2.087   7.810  17.928  0.00  0.00    +0.000 C 
BRANCH  22  23
ATOM     23  C   UNL     1       2.628   6.691  18.849  0.00  0.00    +0.000 C 
BRANCH  23  32
ATOM     24  C   UNL     1       6.699   6.790  17.315  0.00  0.00    +0.000 A 
ATOM     25  C   UNL     1       7.193   5.711  16.582  0.00  0.00    +0.000 A 
ATOM     26  C   UNL     1       6.384   4.599  16.359  0.00  0.00    +0.000 A 
ATOM     27  C   UNL     1       5.081   4.555  16.873  0.00  0.00    +0.000 A 
ATOM     28  C   UNL     1       4.277   3.354  16.690  0.00  0.00    +0.000 A 
ATOM     29  C   UNL     1       3.049   3.286  17.213  0.00  0.00    +0.000 A 
ATOM     30  C   UNL     1       2.447   4.425  17.947  0.00  0.00    +0.000 A 
ATOM     31  O   UNL     1       1.303   4.298  18.377  0.00  0.00    +0.000 OA
ATOM     32  N   UNL     1       3.227   5.568  18.113  0.00  0.00    +0.000 N 
ATOM     33  C   UNL     1       4.560   5.648  17.595  0.00  0.00    +0.000 A 
ATOM     34  C   UNL     1       5.382   6.765  17.801  0.00  0.00    +0.000 A 
BRANCH  24  36
ATOM     35  N   UNL     1       8.225   8.835  17.807  0.00  0.00    +0.000 NA
ATOM     36  C   UNL     1       7.538   7.909  17.595  0.00  0.00    +0.000 C 
ENDBRANCH  24  36
ENDBRANCH  23  32
ENDBRANCH  22  23
ENDBRANCH   1  22
TORSDOF 8
ENDMDL
MODEL 5
REMARK VINA RESULT:      -7.6      3.902      9.153
REMARK  Name = 
REMARK  8 active torsions:
REMARK  status: ('A' for Active; 'I' for Inactive)
REMARK    1  A    between atoms: C_2  and  C_3
REMARK    2  A    between atoms: N_11  and  C_12
REMARK    3  A    between atoms: C_12  and  C_13
REMARK    4  A    between atoms: C_13  and  N_14
REMARK    5  A    between atoms: C_17  and  N_18
REMARK    6  A    between atoms: N_18  and  C_19
REMARK    7  A    between atoms: C_19  and  C_20
REMARK    8  A    between atoms: C_30  and  O_31
REMARK                            x       y       z     vdW  Elec       q    Type
REMARK                         _______ _______ _______ _____ _____    ______ ____
ROOT
ATOM      1  N   UNL     1       0.616   9.964  18.176  0.00  0.00    +0.000 NA
ATOM      2  C   UNL     1       0.788  10.406  19.563  0.00  0.00    +0.000 C 
ATOM      3  C   UNL     1      -0.216  11.495  19.983  0.00  0.00    +0.000 C 
ATOM      4  C   UNL     1      -0.847  12.254  18.797  0.00  0.00    +0.000 C 
ATOM      5  C   UNL     1      -1.570  11.167  17.930  0.00  0.00    +0.000 C 
ATOM      6  C   UNL     1      -0.798   9.827  17.816  0.00  0.00    +0.000 C 
ENDROOT
BRANCH   4   7
ATOM      7  N   UNL     1       0.076  13.159  18.040  0.00  0.00    +0.000 NA
ATOM      8  H   UNL     1       0.959  12.669  17.876  0.00  0.00    +0.000 HD
BRANCH   7   9
ATOM      9  C   UNL     1       0.362  14.395  18.809  0.00  0.00    +0.000 C 
BRANCH   9  10
ATOM     10  C   UNL     1       1.825  14.686  19.130  0.00  0.00    +0.000 A 
ATOM     11  C   UNL     1       2.538  15.766  18.584  0.00  0.00    +0.000 A 
ATOM     12  C   UNL     1       3.818  16.054  19.084  0.00  0.00    +0.000 A 
ATOM     13  C   UNL     1       4.297  15.332  20.167  0.00  0.00    +0.000 A 
ATOM     14  C   UNL     1       3.550  14.267  20.624  0.00  0.00    +0.000 A 
ATOM     15  N   UNL     1       2.351  13.913  20.114  0.00  0.00    +0.000 NA
ATOM     16  O   UNL     1       5.465  15.634  20.803  0.00  0.00    +0.000 OA
ATOM     17  C   UNL     1       6.424  15.985  19.815  0.00  0.00    +0.000 C 
ATOM     18  C   UNL     1       5.932  17.115  18.911  0.00  0.00    +0.000 C 
ATOM     19  O   UNL     1       4.554  17.046  18.493  0.00  0.00    +0.000 OA
ENDBRANCH   9  10
ENDBRANCH   7   9
ENDBRANCH   4   7
BRANCH   5  20
ATOM     20  O   UNL     1      -1.902  11.658  16.632  0.00  0.00    +0.000 OA
ATOM     21  H   UNL     1      -1.162  11.387  16.058  0.00  0.00    +0.000 HD
ENDBRANCH   5  20
BRANCH   1  22
ATOM     22  C   UNL     1       1.423   8.781  17.808  0.00  0.00    +0.000 C 
BRANCH  22  23
ATOM     23  C   UNL     1       2.569   8.371  18.763  0.00  0.00    +0.000 C 
BRANCH  23  32
ATOM     24  C   UNL     1       4.691   5.172  16.715  0.00  0.00    +0.000 A 
ATOM     25  C   UNL     1       4.541   3.852  17.142  0.00  0.00    +0.000 A 
ATOM     26  C   UNL     1       3.725   3.568  18.235  0.00  0.00    +0.000 A 
ATOM     27  C   UNL     1       3.060   4.600  18.911  0.00  0.00    +0.000 A 
ATOM     28  C   UNL     1       2.269   4.290  20.094  0.00  0.00    +0.000 A 
ATOM     29  C   UNL     1       1.666   5.273  20.770  0.00  0.00    +0.000 A 
ATOM     30  C   UNL     1       1.737   6.685  20.328  0.00  0.00    +0.000 A 
ATOM     31  O   UNL     1       1.135   7.530  20.986  0.00  0.00    +0.000 OA
ATOM     32  N   UNL     1       2.496   6.967  19.192  0.00  0.00    +0.000 N 
ATOM     33  C   UNL     1       3.183   5.935  18.475  0.00  0.00    +0.000 A 
ATOM     34  C   UNL     1       3.998   6.204  17.367  0.00  0.00    +0.000 A 
BRANCH  24  36
ATOM     35  N   UNL     1       6.277   5.744  14.737  0.00  0.00    +0.000 NA
ATOM     36  C   UNL     1       5.567   5.478  15.631  0.00  0.00    +0.000 C 
ENDBRANCH  24  36
ENDBRANCH  23  32
ENDBRANCH  22  23
ENDBRANCH   1  22
TORSDOF 8
ENDMDL
MODEL 6
REMARK VINA RESULT:      -7.6      4.736      8.752
REMARK  Name = 
REMARK  8 active torsions:
REMARK  status: ('A' for Active; 'I' for Inactive)
REMARK    1  A    between atoms: C_2  and  C_3
REMARK    2  A    between atoms: N_11  and  C_12
REMARK    3  A    between atoms: C_12  and  C_13
REMARK    4  A    between atoms: C_13  and  N_14
REMARK    5  A    between atoms: C_17  and  N_18
REMARK    6  A    between atoms: N_18  and  C_19
REMARK    7  A    between atoms: C_19  and  C_20
REMARK    8  A    between atoms: C_30  and  O_31
REMARK                            x       y       z     vdW  Elec       q    Type
REMARK                         _______ _______ _______ _____ _____    ______ ____
ROOT
ATOM      1  N   UNL     1       2.089   4.080  20.162  0.00  0.00    +0.000 NA
ATOM      2  C   UNL     1       1.430   3.485  18.996  0.00  0.00    +0.000 C 
ATOM      3  C   UNL     1       2.036   2.133  18.579  0.00  0.00    +0.000 C 
ATOM      4  C   UNL     1       3.471   1.904  19.100  0.00  0.00    +0.000 C 
ATOM      5  C   UNL     1       3.376   1.987  20.662  0.00  0.00    +0.000 C 
ATOM      6  C   UNL     1       2.405   3.078  21.184  0.00  0.00    +0.000 C 
ENDROOT
BRANCH   4   7
ATOM      7  N   UNL     1       4.532   2.763  18.483  0.00  0.00    +0.000 NA
ATOM      8  H   UNL     1       4.700   3.569  19.090  0.00  0.00    +0.000 HD
BRANCH   7   9
ATOM      9  C   UNL     1       4.108   3.260  17.151  0.00  0.00    +0.000 C 
BRANCH   9  10
ATOM     10  C   UNL     1       5.208   3.737  16.208  0.00  0.00    +0.000 A 
ATOM     11  C   UNL     1       5.172   3.549  14.817  0.00  0.00    +0.000 A 
ATOM     12  C   UNL     1       6.140   4.185  14.023  0.00  0.00    +0.000 A 
ATOM     13  C   UNL     1       7.035   5.059  14.622  0.00  0.00    +0.000 A 
ATOM     14  C   UNL     1       7.025   5.164  15.996  0.00  0.00    +0.000 A 
ATOM     15  N   UNL     1       6.161   4.505  16.797  0.00  0.00    +0.000 NA
ATOM     16  O   UNL     1       7.914   5.825  13.912  0.00  0.00    +0.000 OA
ATOM     17  C   UNL     1       8.431   5.029  12.855  0.00  0.00    +0.000 C 
ATOM     18  C   UNL     1       7.325   4.437  11.984  0.00  0.00    +0.000 C 
ATOM     19  O   UNL     1       6.167   3.932  12.677  0.00  0.00    +0.000 OA
ENDBRANCH   9  10
ENDBRANCH   7   9
ENDBRANCH   4   7
BRANCH   5  20
ATOM     20  O   UNL     1       4.660   2.138  21.265  0.00  0.00    +0.000 OA
ATOM     21  H   UNL     1       5.287   2.199  20.522  0.00  0.00    +0.000 HD
ENDBRANCH   5  20
BRANCH   1  22
ATOM     22  C   UNL     1       1.403   5.269  20.711  0.00  0.00    +0.000 C 
BRANCH  22  23
ATOM     23  C   UNL     1       2.245   6.551  20.917  0.00  0.00    +0.000 C 
BRANCH  23  32
ATOM     24  C   UNL     1      -0.112  10.195  21.232  0.00  0.00    +0.000 A 
ATOM     25  C   UNL     1      -0.230  11.045  20.132  0.00  0.00    +0.000 A 
ATOM     26  C   UNL     1       0.422  10.729  18.941  0.00  0.00    +0.000 A 
ATOM     27  C   UNL     1       1.201   9.568  18.846  0.00  0.00    +0.000 A 
ATOM     28  C   UNL     1       1.932   9.294  17.616  0.00  0.00    +0.000 A 
ATOM     29  C   UNL     1       2.712   8.210  17.530  0.00  0.00    +0.000 A 
ATOM     30  C   UNL     1       2.827   7.239  18.644  0.00  0.00    +0.000 A 
ATOM     31  O   UNL     1       3.542   6.253  18.482  0.00  0.00    +0.000 OA
ATOM     32  N   UNL     1       2.120   7.514  19.814  0.00  0.00    +0.000 N 
ATOM     33  C   UNL     1       1.310   8.687  19.942  0.00  0.00    +0.000 A 
ATOM     34  C   UNL     1       0.639   9.013  21.129  0.00  0.00    +0.000 A 
BRANCH  24  36
ATOM     35  N   UNL     1      -1.255  10.825  23.479  0.00  0.00    +0.000 NA
ATOM     36  C   UNL     1      -0.731  10.538  22.470  0.00  0.00    +0.000 C 
ENDBRANCH  24  36
ENDBRANCH  23  32
ENDBRANCH  22  23
ENDBRANCH   1  22
TORSDOF 8
ENDMDL
MODEL 7
REMARK VINA RESULT:      -7.5      4.271     10.003
REMARK  Name = 
REMARK  8 active torsions:
REMARK  status: ('A' for Active; 'I' for Inactive)
REMARK    1  A    between atoms: C_2  and  C_3
REMARK    2  A    between atoms: N_11  and  C_12
REMARK    3  A    between atoms: C_12  and  C_13
REMARK    4  A    between atoms: C_13  and  N_14
REMARK    5  A    between atoms: C_17  and  N_18
REMARK    6  A    between atoms: N_18  and  C_19
REMARK    7  A    between atoms: C_19  and  C_20
REMARK    8  A    between atoms: C_30  and  O_31
REMARK                            x       y       z     vdW  Elec       q    Type
REMARK                         _______ _______ _______ _____ _____    ______ ____
ROOT
ATOM      1  N   UNL     1       1.249   9.445  19.152  0.00  0.00    +0.000 NA
ATOM      2  C   UNL     1       0.910   9.309  20.572  0.00  0.00    +0.000 C 
ATOM      3  C   UNL     1       0.057  10.475  21.107  0.00  0.00    +0.000 C 
ATOM      4  C   UNL     1       0.142  11.756  20.250  0.00  0.00    +0.000 C 
ATOM      5  C   UNL     1      -0.351  11.346  18.820  0.00  0.00    +0.000 C 
ATOM      6  C   UNL     1       0.118   9.940  18.363  0.00  0.00    +0.000 C 
ENDROOT
BRANCH   4   7
ATOM      7  N   UNL     1       1.455  12.477  20.286  0.00  0.00    +0.000 NA
ATOM      8  H   UNL     1       2.079  11.995  20.938  0.00  0.00    +0.000 HD
BRANCH   7   9
ATOM      9  C   UNL     1       1.283  13.875  20.750  0.00  0.00    +0.000 C 
BRANCH   9  10
ATOM     10  C   UNL     1       1.288  14.964  19.682  0.00  0.00    +0.000 A 
ATOM     11  C   UNL     1       0.158  15.731  19.352  0.00  0.00    +0.000 A 
ATOM     12  C   UNL     1       0.314  16.828  18.489  0.00  0.00    +0.000 A 
ATOM     13  C   UNL     1       1.588  17.183  18.073  0.00  0.00    +0.000 A 
ATOM     14  C   UNL     1       2.640  16.359  18.414  0.00  0.00    +0.000 A 
ATOM     15  N   UNL     1       2.514  15.252  19.176  0.00  0.00    +0.000 NA
ATOM     16  O   UNL     1       1.847  18.312  17.351  0.00  0.00    +0.000 OA
ATOM     17  C   UNL     1       0.812  18.462  16.390  0.00  0.00    +0.000 C 
ATOM     18  C   UNL     1      -0.574  18.475  17.032  0.00  0.00    +0.000 C 
ATOM     19  O   UNL     1      -0.797  17.523  18.091  0.00  0.00    +0.000 OA
ENDBRANCH   9  10
ENDBRANCH   7   9
ENDBRANCH   4   7
BRANCH   5  20
ATOM     20  O   UNL     1      -0.007  12.325  17.839  0.00  0.00    +0.000 OA
ATOM     21  H   UNL     1       0.955  12.232  17.711  0.00  0.00    +0.000 HD
ENDBRANCH   5  20
BRANCH   1  22
ATOM     22  C   UNL     1       1.887   8.249  18.561  0.00  0.00    +0.000 C 
BRANCH  22  23
ATOM     23  C   UNL     1       2.794   7.394  19.478  0.00  0.00    +0.000 C 
BRANCH  23  32
ATOM     24  C   UNL     1       5.156   4.859  16.846  0.00  0.00    +0.000 A 
ATOM     25  C   UNL     1       4.852   3.503  16.728  0.00  0.00    +0.000 A 
ATOM     26  C   UNL     1       3.803   2.963  17.469  0.00  0.00    +0.000 A 
ATOM     27  C   UNL     1       3.056   3.773  18.336  0.00  0.00    +0.000 A 
ATOM     28  C   UNL     1       2.010   3.175  19.154  0.00  0.00    +0.000 A 
ATOM     29  C   UNL     1       1.321   3.932  20.015  0.00  0.00    +0.000 A 
ATOM     30  C   UNL     1       1.557   5.390  20.137  0.00  0.00    +0.000 A 
ATOM     31  O   UNL     1       0.867   6.024  20.931  0.00  0.00    +0.000 OA
ATOM     32  N   UNL     1       2.560   5.949  19.346  0.00  0.00    +0.000 N 
ATOM     33  C   UNL     1       3.336   5.151  18.446  0.00  0.00    +0.000 A 
ATOM     34  C   UNL     1       4.388   5.681  17.686  0.00  0.00    +0.000 A 
BRANCH  24  36
ATOM     35  N   UNL     1       7.161   5.870  15.537  0.00  0.00    +0.000 NA
ATOM     36  C   UNL     1       6.263   5.409  16.133  0.00  0.00    +0.000 C 
ENDBRANCH  24  36
ENDBRANCH  23  32
ENDBRANCH  22  23
ENDBRANCH   1  22
TORSDOF 8
ENDMDL
MODEL 8
REMARK VINA RESULT:      -7.5      2.805     10.619
REMARK  Name = 
REMARK  8 active torsions:
REMARK  status: ('A' for Active; 'I' for Inactive)
REMARK    1  A    between atoms: C_2  and  C_3
REMARK    2  A    between atoms: N_11  and  C_12
REMARK    3  A    between atoms: C_12  and  C_13
REMARK    4  A    between atoms: C_13  and  N_14
REMARK    5  A    between atoms: C_17  and  N_18
REMARK    6  A    between atoms: N_18  and  C_19
REMARK    7  A    between atoms: C_19  and  C_20
REMARK    8  A    between atoms: C_30  and  O_31
REMARK                            x       y       z     vdW  Elec       q    Type
REMARK                         _______ _______ _______ _____ _____    ______ ____
ROOT
ATOM      1  N   UNL     1       1.525   8.703  18.803  0.00  0.00    +0.000 NA
ATOM      2  C   UNL     1       1.685  10.028  18.198  0.00  0.00    +0.000 C 
ATOM      3  C   UNL     1       0.926  11.137  18.950  0.00  0.00    +0.000 C 
ATOM      4  C   UNL     1      -0.217  10.614  19.845  0.00  0.00    +0.000 C 
ATOM      5  C   UNL     1       0.454   9.637  20.869  0.00  0.00    +0.000 C 
ATOM      6  C   UNL     1       1.582   8.759  20.267  0.00  0.00    +0.000 C 
ENDROOT
BRANCH   4   7
ATOM      7  N   UNL     1      -1.405  10.056  19.122  0.00  0.00    +0.000 NA
ATOM      8  H   UNL     1      -1.119   9.216  18.614  0.00  0.00    +0.000 HD
BRANCH   7   9
ATOM      9  C   UNL     1      -1.943  11.035  18.145  0.00  0.00    +0.000 C 
BRANCH   9  10
ATOM     10  C   UNL     1      -3.218  11.774  18.537  0.00  0.00    +0.000 A 
ATOM     11  C   UNL     1      -4.404  11.726  17.785  0.00  0.00    +0.000 A 
ATOM     12  C   UNL     1      -5.571  12.288  18.325  0.00  0.00    +0.000 A 
ATOM     13  C   UNL     1      -5.545  12.780  19.622  0.00  0.00    +0.000 A 
ATOM     14  C   UNL     1      -4.334  12.820  20.281  0.00  0.00    +0.000 A 
ATOM     15  N   UNL     1      -3.177  12.361  19.760  0.00  0.00    +0.000 NA
ATOM     16  O   UNL     1      -6.661  13.214  20.275  0.00  0.00    +0.000 OA
ATOM     17  C   UNL     1      -7.454  13.943  19.348  0.00  0.00    +0.000 C 
ATOM     18  C   UNL     1      -7.779  13.124  18.099  0.00  0.00    +0.000 C 
ATOM     19  O   UNL     1      -6.706  12.327  17.560  0.00  0.00    +0.000 OA
ENDBRANCH   9  10
ENDBRANCH   7   9
ENDBRANCH   4   7
BRANCH   5  20
ATOM     20  O   UNL     1      -0.508   8.818  21.533  0.00  0.00    +0.000 OA
ATOM     21  H   UNL     1      -0.005   8.325  22.207  0.00  0.00    +0.000 HD
ENDBRANCH   5  20
BRANCH   1  22
ATOM     22  C   UNL     1       2.402   7.660  18.231  0.00  0.00    +0.000 C 
BRANCH  22  23
ATOM     23  C   UNL     1       2.621   6.373  19.061  0.00  0.00    +0.000 C 
BRANCH  23  32
ATOM     24  C   UNL     1       6.598   6.501  17.301  0.00  0.00    +0.000 A 
ATOM     25  C   UNL     1       7.052   5.433  16.527  0.00  0.00    +0.000 A 
ATOM     26  C   UNL     1       6.233   4.321  16.336  0.00  0.00    +0.000 A 
ATOM     27  C   UNL     1       4.961   4.268  16.922  0.00  0.00    +0.000 A 
ATOM     28  C   UNL     1       4.151   3.067  16.769  0.00  0.00    +0.000 A 
ATOM     29  C   UNL     1       2.954   2.991  17.360  0.00  0.00    +0.000 A 
ATOM     30  C   UNL     1       2.393   4.118  18.142  0.00  0.00    +0.000 A 
ATOM     31  O   UNL     1       1.275   3.983  18.634  0.00  0.00    +0.000 OA
ATOM     32  N   UNL     1       3.179   5.262  18.278  0.00  0.00    +0.000 N 
ATOM     33  C   UNL     1       4.480   5.351  17.686  0.00  0.00    +0.000 A 
ATOM     34  C   UNL     1       5.311   6.467  17.860  0.00  0.00    +0.000 A 
BRANCH  24  36
ATOM     35  N   UNL     1       8.152   8.540  17.731  0.00  0.00    +0.000 NA
ATOM     36  C   UNL     1       7.450   7.619  17.547  0.00  0.00    +0.000 C 
ENDBRANCH  24  36
ENDBRANCH  23  32
ENDBRANCH  22  23
ENDBRANCH   1  22
TORSDOF 8
ENDMDL
MODEL 9
REMARK VINA RESULT:      -7.5      2.585     10.545
REMARK  Name = 
REMARK  8 active torsions:
REMARK  status: ('A' for Active; 'I' for Inactive)
REMARK    1  A    between atoms: C_2  and  C_3
REMARK    2  A    between atoms: N_11  and  C_12
REMARK    3  A    between atoms: C_12  and  C_13
REMARK    4  A    between atoms: C_13  and  N_14
REMARK    5  A    between atoms: C_17  and  N_18
REMARK    6  A    between atoms: N_18  and  C_19
REMARK    7  A    between atoms: C_19  and  C_20
REMARK    8  A    between atoms: C_30  and  O_31
REMARK                            x       y       z     vdW  Elec       q    Type
REMARK                         _______ _______ _______ _____ _____    ______ ____
ROOT
ATOM      1  N   UNL     1       1.649   8.847  18.608  0.00  0.00    +0.000 NA
ATOM      2  C   UNL     1       2.060  10.162  18.105  0.00  0.00    +0.000 C 
ATOM      3  C   UNL     1       1.344  11.331  18.805  0.00  0.00    +0.000 C 
ATOM      4  C   UNL     1       0.026  10.930  19.503  0.00  0.00    +0.000 C 
ATOM      5  C   UNL     1       0.416   9.836  20.554  0.00  0.00    +0.000 C 
ATOM      6  C   UNL     1       1.501   8.841  20.066  0.00  0.00    +0.000 C 
ENDROOT
BRANCH   4   7
ATOM      7  N   UNL     1      -1.105  10.561  18.592  0.00  0.00    +0.000 NA
ATOM      8  H   UNL     1      -0.719  10.201  17.715  0.00  0.00    +0.000 HD
BRANCH   7   9
ATOM      9  C   UNL     1      -1.948  11.741  18.283  0.00  0.00    +0.000 C 
BRANCH   9  10
ATOM     10  C   UNL     1      -3.366  11.744  18.846  0.00  0.00    +0.000 A 
ATOM     11  C   UNL     1      -3.756  12.503  19.962  0.00  0.00    +0.000 A 
ATOM     12  C   UNL     1      -5.120  12.579  20.285  0.00  0.00    +0.000 A 
ATOM     13  C   UNL     1      -6.048  11.991  19.439  0.00  0.00    +0.000 A 
ATOM     14  C   UNL     1      -5.582  11.236  18.383  0.00  0.00    +0.000 A 
ATOM     15  N   UNL     1      -4.274  11.076  18.089  0.00  0.00    +0.000 NA
ATOM     16  O   UNL     1      -7.395  12.133  19.599  0.00  0.00    +0.000 OA
ATOM     17  C   UNL     1      -7.681  12.055  20.989  0.00  0.00    +0.000 C 
ATOM     18  C   UNL     1      -6.878  13.070  21.800  0.00  0.00    +0.000 C 
ATOM     19  O   UNL     1      -5.497  13.241  21.424  0.00  0.00    +0.000 OA
ENDBRANCH   9  10
ENDBRANCH   7   9
ENDBRANCH   4   7
BRANCH   5  20
ATOM     20  O   UNL     1      -0.727   9.127  21.031  0.00  0.00    +0.000 OA
ATOM     21  H   UNL     1      -0.482   8.814  21.921  0.00  0.00    +0.000 HD
ENDBRANCH   5  20
BRANCH   1  22
ATOM     22  C   UNL     1       2.463   7.720  18.106  0.00  0.00    +0.000 C 
BRANCH  22  23
ATOM     23  C   UNL     1       2.526   6.440  18.972  0.00  0.00    +0.000 C 
BRANCH  23  32
ATOM     24  C   UNL     1       6.479   6.430  17.154  0.00  0.00    +0.000 A 
ATOM     25  C   UNL     1       6.917   5.311  16.445  0.00  0.00    +0.000 A 
ATOM     26  C   UNL     1       6.090   4.194  16.338  0.00  0.00    +0.000 A 
ATOM     27  C   UNL     1       4.826   4.187  16.944  0.00  0.00    +0.000 A 
ATOM     28  C   UNL     1       4.007   2.983  16.880  0.00  0.00    +0.000 A 
ATOM     29  C   UNL     1       2.818   2.952  17.491  0.00  0.00    +0.000 A 
ATOM     30  C   UNL     1       2.274   4.132  18.205  0.00  0.00    +0.000 A 
ATOM     31  O   UNL     1       1.162   4.036  18.719  0.00  0.00    +0.000 OA
ATOM     32  N   UNL     1       3.068   5.277  18.256  0.00  0.00    +0.000 N 
ATOM     33  C   UNL     1       4.361   5.320  17.642  0.00  0.00    +0.000 A 
ATOM     34  C   UNL     1       5.199   6.440  17.732  0.00  0.00    +0.000 A 
BRANCH  24  36
ATOM     35  N   UNL     1       8.057   8.476  17.433  0.00  0.00    +0.000 NA
ATOM     36  C   UNL     1       7.340   7.556  17.316  0.00  0.00    +0.000 C 
ENDBRANCH  24  36
ENDBRANCH  23  32
ENDBRANCH  22  23
ENDBRANCH   1  22
TORSDOF 8
ENDMDL
