MODEL 1
REMARK VINA RESULT:      -7.5      0.000      0.000
REMARK  Name = 
REMARK  10 active torsions:
REMARK  status: ('A' for Active; 'I' for Inactive)
REMARK    1  A    between atoms: C_1  and  C_2
REMARK    2  A    between atoms: C_2  and  O_4
REMARK    3  A    between atoms: O_4  and  C_5
REMARK    4  A    between atoms: C_5  and  C_6
REMARK    5  A    between atoms: C_6  and  C_7
REMARK    6  A    between atoms: C_8  and  O_9
REMARK    7  A    between atoms: N_10  and  C_11
REMARK    8  A    between atoms: C_11  and  C_12
REMARK    9  A    between atoms: N_24  and  C_25
REMARK   10  A    between atoms: N_28  and  C_29
REMARK                            x       y       z     vdW  Elec       q    Type
REMARK                         _______ _______ _______ _____ _____    ______ ____
ROOT
ATOM      1  C   UNL     1      -2.596  10.469  17.294  0.00  0.00    +0.000 A 
ATOM      2  C   UNL     1      -1.323  10.181  17.641  0.00  0.00    +0.000 A 
ATOM      3  N   UNL     1      -0.679  10.758  18.746  0.00  0.00    +0.000 N 
ATOM      4  C   UNL     1      -1.375  11.574  19.606  0.00  0.00    +0.000 A 
ATOM      5  N   UNL     1      -1.010  12.245  20.692  0.00  0.00    +0.000 NA
ATOM      6  C   UNL     1      -2.161  12.840  21.145  0.00  0.00    +0.000 A 
ATOM      7  C   UNL     1      -3.222  12.539  20.351  0.00  0.00    +0.000 A 
ATOM      8  C   UNL     1      -4.564  12.889  20.656  0.00  0.00    +0.000 A 
ATOM      9  O   UNL     1      -5.543  12.390  20.112  0.00  0.00    +0.000 OA
ATOM     10  N   UNL     1      -4.658  13.793  21.711  0.00  0.00    +0.000 N 
ATOM     11  C   UNL     1      -5.984  14.273  22.056  0.00  0.00    +0.000 C 
ATOM     12  C   UNL     1      -3.608  14.125  22.583  0.00  0.00    +0.000 A 
ATOM     13  O   UNL     1      -3.812  14.826  23.580  0.00  0.00    +0.000 OA
ATOM     14  N   UNL     1      -2.334  13.617  22.276  0.00  0.00    +0.000 N 
ATOM     15  C   UNL     1      -1.224  13.921  23.160  0.00  0.00    +0.000 C 
ATOM     16  N   UNL     1      -2.704  11.829  19.306  0.00  0.00    +0.000 N 
ATOM     17  C   UNL     1      -3.321  11.462  18.123  0.00  0.00    +0.000 A 
ATOM     18  O   UNL     1      -4.373  11.985  17.790  0.00  0.00    +0.000 OA
ENDROOT
BRANCH   2  19
ATOM     19  O   UNL     1      -0.559   9.297  16.907  0.00  0.00    +0.000 OA
ATOM     20  H   UNL     1      -1.064   8.489  16.714  0.00  0.00    +0.000 HD
ENDBRANCH   2  19
BRANCH   1  21
ATOM     21  C   UNL     1      -3.428   9.886  16.179  0.00  0.00    +0.000 C 
BRANCH  21  22
ATOM     22  C   UNL     1      -3.154  10.499  14.800  0.00  0.00    +0.000 C 
BRANCH  22  23
ATOM     23  O   UNL     1      -4.162  10.092  13.860  0.00  0.00    +0.000 OA
BRANCH  23  25
ATOM     24  C   UNL     1      -4.803   9.675  11.643  0.00  0.00    +0.000 C 
ATOM     25  C   UNL     1      -3.692   9.699  12.649  0.00  0.00    +0.000 C 
ATOM     26  O   UNL     1      -2.535   9.391  12.409  0.00  0.00    +0.000 OA
ENDBRANCH  23  25
ENDBRANCH  22  23
ENDBRANCH  21  22
ENDBRANCH   1  21
BRANCH   3  27
ATOM     27  C   UNL     1       0.795  10.721  18.860  0.00  0.00    +0.000 C 
BRANCH  27  28
ATOM     28  C   UNL     1       1.390   9.385  19.267  0.00  0.00    +0.000 A 
ATOM     29  C   UNL     1       1.084   8.811  20.510  0.00  0.00    +0.000 A 
ATOM     30  C   UNL     1       1.486   7.504  20.820  0.00  0.00    +0.000 A 
ATOM     31  C   UNL     1       2.209   6.762  19.890  0.00  0.00    +0.000 A 
ATOM     32  C   UNL     1       2.544   7.330  18.662  0.00  0.00    +0.000 A 
ATOM     33  C   UNL     1       2.140   8.633  18.353  0.00  0.00    +0.000 A 
ENDBRANCH  27  28
ENDBRANCH   3  27
TORSDOF 7
ENDMDL
MODEL 2
REMARK VINA RESULT:      -7.2      2.616      5.362
REMARK  Name = 
REMARK  10 active torsions:
REMARK  status: ('A' for Active; 'I' for Inactive)
REMARK    1  A    between atoms: C_1  and  C_2
REMARK    2  A    between atoms: C_2  and  O_4
REMARK    3  A    between atoms: O_4  and  C_5
REMARK    4  A    between atoms: C_5  and  C_6
REMARK    5  A    between atoms: C_6  and  C_7
REMARK    6  A    between atoms: C_8  and  O_9
REMARK    7  A    between atoms: N_10  and  C_11
REMARK    8  A    between atoms: C_11  and  C_12
REMARK    9  A    between atoms: N_24  and  C_25
REMARK   10  A    between atoms: N_28  and  C_29
REMARK                            x       y       z     vdW  Elec       q    Type
REMARK                         _______ _______ _______ _____ _____    ______ ____
ROOT
ATOM      1  C   UNL     1      -3.326  10.587  17.278  0.00  0.00    +0.000 A 
ATOM      2  C   UNL     1      -4.459  11.290  17.495  0.00  0.00    +0.000 A 
ATOM      3  N   UNL     1      -4.589  12.241  18.519  0.00  0.00    +0.000 N 
ATOM      4  C   UNL     1      -3.502  12.585  19.287  0.00  0.00    +0.000 A 
ATOM      5  N   UNL     1      -3.358  13.424  20.306  0.00  0.00    +0.000 NA
ATOM      6  C   UNL     1      -2.023  13.371  20.624  0.00  0.00    +0.000 A 
ATOM      7  C   UNL     1      -1.352  12.513  19.811  0.00  0.00    +0.000 A 
ATOM      8  C   UNL     1       0.060  12.367  19.808  0.00  0.00    +0.000 A 
ATOM      9  O   UNL     1       0.691  11.824  18.907  0.00  0.00    +0.000 OA
ATOM     10  N   UNL     1       0.669  12.994  20.892  0.00  0.00    +0.000 N 
ATOM     11  C   UNL     1       2.107  12.843  21.023  0.00  0.00    +0.000 C 
ATOM     12  C   UNL     1       0.038  13.910  21.751  0.00  0.00    +0.000 A 
ATOM     13  O   UNL     1       0.687  14.528  22.600  0.00  0.00    +0.000 OA
ATOM     14  N   UNL     1      -1.346  14.093  21.590  0.00  0.00    +0.000 N 
ATOM     15  C   UNL     1      -2.033  15.043  22.444  0.00  0.00    +0.000 C 
ATOM     16  N   UNL     1      -2.310  11.924  19.035  0.00  0.00    +0.000 N 
ATOM     17  C   UNL     1      -2.185  10.835  18.191  0.00  0.00    +0.000 A 
ATOM     18  O   UNL     1      -1.202  10.113  18.259  0.00  0.00    +0.000 OA
ENDROOT
BRANCH   2  19
ATOM     19  O   UNL     1      -5.584  11.100  16.719  0.00  0.00    +0.000 OA
ATOM     20  H   UNL     1      -5.489  11.552  15.865  0.00  0.00    +0.000 HD
ENDBRANCH   2  19
BRANCH   1  21
ATOM     21  C   UNL     1      -3.027   9.586  16.190  0.00  0.00    +0.000 C 
BRANCH  21  22
ATOM     22  C   UNL     1      -2.789  10.207  14.808  0.00  0.00    +0.000 C 
BRANCH  22  23
ATOM     23  O   UNL     1      -3.988  10.147  14.018  0.00  0.00    +0.000 OA
BRANCH  23  25
ATOM     24  C   UNL     1      -5.127   9.674  12.023  0.00  0.00    +0.000 C 
ATOM     25  C   UNL     1      -3.813   9.717  12.742  0.00  0.00    +0.000 C 
ATOM     26  O   UNL     1      -2.744   9.394  12.248  0.00  0.00    +0.000 OA
ENDBRANCH  23  25
ENDBRANCH  22  23
ENDBRANCH  21  22
ENDBRANCH   1  21
BRANCH   3  27
ATOM     27  C   UNL     1      -5.925  12.690  18.962  0.00  0.00    +0.000 C 
BRANCH  27  28
ATOM     28  C   UNL     1      -6.516  11.937  20.140  0.00  0.00    +0.000 A 
ATOM     29  C   UNL     1      -6.601  12.535  21.407  0.00  0.00    +0.000 A 
ATOM     30  C   UNL     1      -7.301  11.917  22.452  0.00  0.00    +0.000 A 
ATOM     31  C   UNL     1      -7.916  10.686  22.241  0.00  0.00    +0.000 A 
ATOM     32  C   UNL     1      -7.816  10.067  20.996  0.00  0.00    +0.000 A 
ATOM     33  C   UNL     1      -7.120  10.685  19.954  0.00  0.00    +0.000 A 
ENDBRANCH  27  28
ENDBRANCH   3  27
TORSDOF 7
ENDMDL
MODEL 3
REMARK VINA RESULT:      -7.1      1.044      1.102
REMARK  Name = 
REMARK  10 active torsions:
REMARK  status: ('A' for Active; 'I' for Inactive)
REMARK    1  A    between atoms: C_1  and  C_2
REMARK    2  A    between atoms: C_2  and  O_4
REMARK    3  A    between atoms: O_4  and  C_5
REMARK    4  A    between atoms: C_5  and  C_6
REMARK    5  A    between atoms: C_6  and  C_7
REMARK    6  A    between atoms: C_8  and  O_9
REMARK    7  A    between atoms: N_10  and  C_11
REMARK    8  A    between atoms: C_11  and  C_12
REMARK    9  A    between atoms: N_24  and  C_25
REMARK   10  A    between atoms: N_28  and  C_29
REMARK                            x       y       z     vdW  Elec       q    Type
REMARK                         _______ _______ _______ _____ _____    ______ ____
ROOT
ATOM      1  C   UNL     1      -3.207  11.047  17.857  0.00  0.00    +0.000 A 
ATOM      2  C   UNL     1      -1.883  10.816  17.996  0.00  0.00    +0.000 A 
ATOM      3  N   UNL     1      -1.116  11.353  19.041  0.00  0.00    +0.000 N 
ATOM      4  C   UNL     1      -1.721  12.059  20.054  0.00  0.00    +0.000 A 
ATOM      5  N   UNL     1      -1.237  12.673  21.128  0.00  0.00    +0.000 NA
ATOM      6  C   UNL     1      -2.340  13.159  21.786  0.00  0.00    +0.000 A 
ATOM      7  C   UNL     1      -3.488  12.848  21.128  0.00  0.00    +0.000 A 
ATOM      8  C   UNL     1      -4.788  13.088  21.647  0.00  0.00    +0.000 A 
ATOM      9  O   UNL     1      -5.808  12.568  21.209  0.00  0.00    +0.000 OA
ATOM     10  N   UNL     1      -4.774  13.907  22.774  0.00  0.00    +0.000 N 
ATOM     11  C   UNL     1      -6.059  14.275  23.341  0.00  0.00    +0.000 C 
ATOM     12  C   UNL     1      -3.627  14.242  23.512  0.00  0.00    +0.000 A 
ATOM     13  O   UNL     1      -3.720  14.855  24.580  0.00  0.00    +0.000 OA
ATOM     14  N   UNL     1      -2.386  13.840  22.988  0.00  0.00    +0.000 N 
ATOM     15  C   UNL     1      -1.177  14.150  23.728  0.00  0.00    +0.000 C 
ATOM     16  N   UNL     1      -3.091  12.249  19.967  0.00  0.00    +0.000 N 
ATOM     17  C   UNL     1      -3.854  11.930  18.857  0.00  0.00    +0.000 A 
ATOM     18  O   UNL     1      -4.969  12.406  18.719  0.00  0.00    +0.000 OA
ENDROOT
BRANCH   2  19
ATOM     19  O   UNL     1      -1.189  10.038  17.093  0.00  0.00    +0.000 OA
ATOM     20  H   UNL     1      -0.465   9.565  17.536  0.00  0.00    +0.000 HD
ENDBRANCH   2  19
BRANCH   1  21
ATOM     21  C   UNL     1      -4.160  10.494  16.828  0.00  0.00    +0.000 C 
BRANCH  21  22
ATOM     22  C   UNL     1      -3.983  11.080  15.422  0.00  0.00    +0.000 C 
BRANCH  22  23
ATOM     23  O   UNL     1      -3.066  10.281  14.657  0.00  0.00    +0.000 OA
BRANCH  23  25
ATOM     24  C   UNL     1      -2.430   9.432  12.565  0.00  0.00    +0.000 C 
ATOM     25  C   UNL     1      -3.554   9.821  13.477  0.00  0.00    +0.000 C 
ATOM     26  O   UNL     1      -4.738   9.747  13.185  0.00  0.00    +0.000 OA
ENDBRANCH  23  25
ENDBRANCH  22  23
ENDBRANCH  21  22
ENDBRANCH   1  21
BRANCH   3  27
ATOM     27  C   UNL     1       0.358  11.402  18.943  0.00  0.00    +0.000 C 
BRANCH  27  28
ATOM     28  C   UNL     1       1.081  10.096  19.216  0.00  0.00    +0.000 A 
ATOM     29  C   UNL     1       0.929   9.433  20.444  0.00  0.00    +0.000 A 
ATOM     30  C   UNL     1       1.448   8.146  20.639  0.00  0.00    +0.000 A 
ATOM     31  C   UNL     1       2.135   7.512  19.608  0.00  0.00    +0.000 A 
ATOM     32  C   UNL     1       2.318   8.169  18.392  0.00  0.00    +0.000 A 
ATOM     33  C   UNL     1       1.797   9.452  18.197  0.00  0.00    +0.000 A 
ENDBRANCH  27  28
ENDBRANCH   3  27
TORSDOF 7
ENDMDL
MODEL 4
REMARK VINA RESULT:      -7.1      2.655      5.994
REMARK  Name = 
REMARK  10 active torsions:
REMARK  status: ('A' for Active; 'I' for Inactive)
REMARK    1  A    between atoms: C_1  and  C_2
REMARK    2  A    between atoms: C_2  and  O_4
REMARK    3  A    between atoms: O_4  and  C_5
REMARK    4  A    between atoms: C_5  and  C_6
REMARK    5  A    between atoms: C_6  and  C_7
REMARK    6  A    between atoms: C_8  and  O_9
REMARK    7  A    between atoms: N_10  and  C_11
REMARK    8  A    between atoms: C_11  and  C_12
REMARK    9  A    between atoms: N_24  and  C_25
REMARK   10  A    between atoms: N_28  and  C_29
REMARK                            x       y       z     vdW  Elec       q    Type
REMARK                         _______ _______ _______ _____ _____    ______ ____
ROOT
ATOM      1  C   UNL     1      -3.212  10.623  17.419  0.00  0.00    +0.000 A 
ATOM      2  C   UNL     1      -4.374  11.170  17.834  0.00  0.00    +0.000 A 
ATOM      3  N   UNL     1      -4.468  12.027  18.942  0.00  0.00    +0.000 N 
ATOM      4  C   UNL     1      -3.332  12.443  19.594  0.00  0.00    +0.000 A 
ATOM      5  N   UNL     1      -3.144  13.221  20.654  0.00  0.00    +0.000 NA
ATOM      6  C   UNL     1      -1.782  13.304  20.797  0.00  0.00    +0.000 A 
ATOM      7  C   UNL     1      -1.137  12.589  19.838  0.00  0.00    +0.000 A 
ATOM      8  C   UNL     1       0.270  12.612  19.645  0.00  0.00    +0.000 A 
ATOM      9  O   UNL     1       0.830  12.211  18.631  0.00  0.00    +0.000 OA
ATOM     10  N   UNL     1       0.947  13.230  20.694  0.00  0.00    +0.000 N 
ATOM     11  C   UNL     1       2.397  13.241  20.631  0.00  0.00    +0.000 C 
ATOM     12  C   UNL     1       0.342  14.003  21.698  0.00  0.00    +0.000 A 
ATOM     13  O   UNL     1       1.028  14.634  22.509  0.00  0.00    +0.000 OA
ATOM     14  N   UNL     1      -1.063  14.032  21.727  0.00  0.00    +0.000 N 
ATOM     15  C   UNL     1      -1.729  14.833  22.737  0.00  0.00    +0.000 C 
ATOM     16  N   UNL     1      -2.120  11.947  19.141  0.00  0.00    +0.000 N 
ATOM     17  C   UNL     1      -1.992  10.940  18.200  0.00  0.00    +0.000 A 
ATOM     18  O   UNL     1      -0.937  10.337  18.084  0.00  0.00    +0.000 OA
ENDROOT
BRANCH   2  19
ATOM     19  O   UNL     1      -5.566  10.903  17.192  0.00  0.00    +0.000 OA
ATOM     20  H   UNL     1      -5.509  11.145  16.253  0.00  0.00    +0.000 HD
ENDBRANCH   2  19
BRANCH   1  21
ATOM     21  C   UNL     1      -2.955   9.742  16.223  0.00  0.00    +0.000 C 
BRANCH  21  22
ATOM     22  C   UNL     1      -2.901  10.491  14.885  0.00  0.00    +0.000 C 
BRANCH  22  23
ATOM     23  O   UNL     1      -3.979  10.074  14.033  0.00  0.00    +0.000 OA
BRANCH  23  25
ATOM     24  C   UNL     1      -4.789   9.721  11.860  0.00  0.00    +0.000 C 
ATOM     25  C   UNL     1      -3.609   9.695  12.783  0.00  0.00    +0.000 C 
ATOM     26  O   UNL     1      -2.481   9.362  12.454  0.00  0.00    +0.000 OA
ENDBRANCH  23  25
ENDBRANCH  22  23
ENDBRANCH  21  22
ENDBRANCH   1  21
BRANCH   3  27
ATOM     27  C   UNL     1      -5.774  12.283  19.585  0.00  0.00    +0.000 C 
BRANCH  27  28
ATOM     28  C   UNL     1      -6.387  13.645  19.312  0.00  0.00    +0.000 A 
ATOM     29  C   UNL     1      -6.722  14.033  18.006  0.00  0.00    +0.000 A 
ATOM     30  C   UNL     1      -7.446  15.209  17.765  0.00  0.00    +0.000 A 
ATOM     31  C   UNL     1      -7.834  16.015  18.833  0.00  0.00    +0.000 A 
ATOM     32  C   UNL     1      -7.484  15.656  20.133  0.00  0.00    +0.000 A 
ATOM     33  C   UNL     1      -6.764  14.481  20.372  0.00  0.00    +0.000 A 
ENDBRANCH  27  28
ENDBRANCH   3  27
TORSDOF 7
ENDMDL
MODEL 5
REMARK VINA RESULT:      -7.0      4.662      7.064
REMARK  Name = 
REMARK  10 active torsions:
REMARK  status: ('A' for Active; 'I' for Inactive)
REMARK    1  A    between atoms: C_1  and  C_2
REMARK    2  A    between atoms: C_2  and  O_4
REMARK    3  A    between atoms: O_4  and  C_5
REMARK    4  A    between atoms: C_5  and  C_6
REMARK    5  A    between atoms: C_6  and  C_7
REMARK    6  A    between atoms: C_8  and  O_9
REMARK    7  A    between atoms: N_10  and  C_11
REMARK    8  A    between atoms: C_11  and  C_12
REMARK    9  A    between atoms: N_24  and  C_25
REMARK   10  A    between atoms: N_28  and  C_29
REMARK                            x       y       z     vdW  Elec       q    Type
REMARK                         _______ _______ _______ _____ _____    ______ ____
ROOT
ATOM      1  C   UNL     1       2.233   5.837  20.056  0.00  0.00    +0.000 A 
ATOM      2  C   UNL     1       2.977   6.021  18.944  0.00  0.00    +0.000 A 
ATOM      3  N   UNL     1       3.001   7.227  18.227  0.00  0.00    +0.000 N 
ATOM      4  C   UNL     1       2.340   8.332  18.707  0.00  0.00    +0.000 A 
ATOM      5  N   UNL     1       2.193   9.563  18.229  0.00  0.00    +0.000 NA
ATOM      6  C   UNL     1       1.466  10.230  19.184  0.00  0.00    +0.000 A 
ATOM      7  C   UNL     1       1.170   9.423  20.237  0.00  0.00    +0.000 A 
ATOM      8  C   UNL     1       0.561   9.879  21.436  0.00  0.00    +0.000 A 
ATOM      9  O   UNL     1       0.547   9.241  22.483  0.00  0.00    +0.000 OA
ATOM     10  N   UNL     1       0.059  11.173  21.326  0.00  0.00    +0.000 N 
ATOM     11  C   UNL     1      -0.651  11.708  22.475  0.00  0.00    +0.000 C 
ATOM     12  C   UNL     1       0.349  12.063  20.279  0.00  0.00    +0.000 A 
ATOM     13  O   UNL     1      -0.020  13.241  20.330  0.00  0.00    +0.000 OA
ATOM     14  N   UNL     1       1.080  11.557  19.191  0.00  0.00    +0.000 N 
ATOM     15  C   UNL     1       1.417  12.448  18.096  0.00  0.00    +0.000 C 
ATOM     16  N   UNL     1       1.625   8.184  19.885  0.00  0.00    +0.000 N 
ATOM     17  C   UNL     1       1.393   6.972  20.510  0.00  0.00    +0.000 A 
ATOM     18  O   UNL     1       0.507   6.869  21.344  0.00  0.00    +0.000 OA
ENDROOT
BRANCH   2  19
ATOM     19  O   UNL     1       3.760   5.009  18.427  0.00  0.00    +0.000 OA
ATOM     20  H   UNL     1       4.130   5.271  17.568  0.00  0.00    +0.000 HD
ENDBRANCH   2  19
BRANCH   1  21
ATOM     21  C   UNL     1       2.154   4.627  20.953  0.00  0.00    +0.000 C 
BRANCH  21  22
ATOM     22  C   UNL     1       1.114   3.586  20.520  0.00  0.00    +0.000 C 
BRANCH  22  23
ATOM     23  O   UNL     1       1.763   2.381  20.081  0.00  0.00    +0.000 OA
BRANCH  23  25
ATOM     24  C   UNL     1       3.309   1.535  18.534  0.00  0.00    +0.000 C 
ATOM     25  C   UNL     1       2.068   2.344  18.759  0.00  0.00    +0.000 C 
ATOM     26  O   UNL     1       1.437   2.902  17.874  0.00  0.00    +0.000 OA
ENDBRANCH  23  25
ENDBRANCH  22  23
ENDBRANCH  21  22
ENDBRANCH   1  21
BRANCH   3  27
ATOM     27  C   UNL     1       3.503   7.264  16.837  0.00  0.00    +0.000 C 
BRANCH  27  28
ATOM     28  C   UNL     1       4.920   6.757  16.634  0.00  0.00    +0.000 A 
ATOM     29  C   UNL     1       5.974   7.231  17.431  0.00  0.00    +0.000 A 
ATOM     30  C   UNL     1       7.245   6.643  17.371  0.00  0.00    +0.000 A 
ATOM     31  C   UNL     1       7.476   5.580  16.502  0.00  0.00    +0.000 A 
ATOM     32  C   UNL     1       6.446   5.118  15.684  0.00  0.00    +0.000 A 
ATOM     33  C   UNL     1       5.178   5.703  15.747  0.00  0.00    +0.000 A 
ENDBRANCH  27  28
ENDBRANCH   3  27
TORSDOF 7
ENDMDL
MODEL 6
REMARK VINA RESULT:      -7.0      3.408      6.130
REMARK  Name = 
REMARK  10 active torsions:
REMARK  status: ('A' for Active; 'I' for Inactive)
REMARK    1  A    between atoms: C_1  and  C_2
REMARK    2  A    between atoms: C_2  and  O_4
REMARK    3  A    between atoms: O_4  and  C_5
REMARK    4  A    between atoms: C_5  and  C_6
REMARK    5  A    between atoms: C_6  and  C_7
REMARK    6  A    between atoms: C_8  and  O_9
REMARK    7  A    between atoms: N_10  and  C_11
REMARK    8  A    between atoms: C_11  and  C_12
REMARK    9  A    between atoms: N_24  and  C_25
REMARK   10  A    between atoms: N_28  and  C_29
REMARK                            x       y       z     vdW  Elec       q    Type
REMARK                         _______ _______ _______ _____ _____    ______ ____
ROOT
ATOM      1  C   UNL     1       1.724  12.994  19.840  0.00  0.00    +0.000 A 
ATOM      2  C   UNL     1       0.909  12.069  19.288  0.00  0.00    +0.000 A 
ATOM      3  N   UNL     1      -0.297  11.660  19.878  0.00  0.00    +0.000 N 
ATOM      4  C   UNL     1      -0.762  12.285  21.010  0.00  0.00    +0.000 A 
ATOM      5  N   UNL     1      -1.840  12.087  21.761  0.00  0.00    +0.000 NA
ATOM      6  C   UNL     1      -1.781  13.059  22.729  0.00  0.00    +0.000 A 
ATOM      7  C   UNL     1      -0.684  13.847  22.577  0.00  0.00    +0.000 A 
ATOM      8  C   UNL     1      -0.442  15.021  23.337  0.00  0.00    +0.000 A 
ATOM      9  O   UNL     1       0.375  15.881  23.028  0.00  0.00    +0.000 OA
ATOM     10  N   UNL     1      -1.301  15.144  24.426  0.00  0.00    +0.000 N 
ATOM     11  C   UNL     1      -1.089  16.274  25.313  0.00  0.00    +0.000 C 
ATOM     12  C   UNL     1      -2.463  14.381  24.626  0.00  0.00    +0.000 A 
ATOM     13  O   UNL     1      -3.246  14.650  25.542  0.00  0.00    +0.000 OA
ATOM     14  N   UNL     1      -2.693  13.318  23.736  0.00  0.00    +0.000 N 
ATOM     15  C   UNL     1      -3.891  12.515  23.895  0.00  0.00    +0.000 C 
ATOM     16  N   UNL     1       0.027  13.286  21.555  0.00  0.00    +0.000 N 
ATOM     17  C   UNL     1       1.315  13.576  21.140  0.00  0.00    +0.000 A 
ATOM     18  O   UNL     1       2.058  14.232  21.854  0.00  0.00    +0.000 OA
ENDROOT
BRANCH   2  19
ATOM     19  O   UNL     1       1.227  11.447  18.099  0.00  0.00    +0.000 OA
ATOM     20  H   UNL     1       0.532  10.815  17.849  0.00  0.00    +0.000 HD
ENDBRANCH   2  19
BRANCH   1  21
ATOM     21  C   UNL     1       3.008  13.569  19.295  0.00  0.00    +0.000 C 
BRANCH  21  22
ATOM     22  C   UNL     1       2.817  14.578  18.156  0.00  0.00    +0.000 C 
BRANCH  22  23
ATOM     23  O   UNL     1       1.716  15.456  18.443  0.00  0.00    +0.000 OA
BRANCH  23  25
ATOM     24  C   UNL     1       1.160  17.264  19.829  0.00  0.00    +0.000 C 
ATOM     25  C   UNL     1       2.065  16.728  18.761  0.00  0.00    +0.000 C 
ATOM     26  O   UNL     1       2.974  17.359  18.244  0.00  0.00    +0.000 OA
ENDBRANCH  23  25
ENDBRANCH  22  23
ENDBRANCH  21  22
ENDBRANCH   1  21
BRANCH   3  27
ATOM     27  C   UNL     1      -0.947  10.400  19.460  0.00  0.00    +0.000 C 
BRANCH  27  28
ATOM     28  C   UNL     1      -1.969  10.524  18.345  0.00  0.00    +0.000 A 
ATOM     29  C   UNL     1      -3.060  11.398  18.464  0.00  0.00    +0.000 A 
ATOM     30  C   UNL     1      -3.906  11.649  17.374  0.00  0.00    +0.000 A 
ATOM     31  C   UNL     1      -3.673  11.018  16.156  0.00  0.00    +0.000 A 
ATOM     32  C   UNL     1      -2.609  10.126  16.031  0.00  0.00    +0.000 A 
ATOM     33  C   UNL     1      -1.764   9.878  17.117  0.00  0.00    +0.000 A 
ENDBRANCH  27  28
ENDBRANCH   3  27
TORSDOF 7
ENDMDL
MODEL 7
REMARK VINA RESULT:      -7.0      4.344      8.833
REMARK  Name = 
REMARK  10 active torsions:
REMARK  status: ('A' for Active; 'I' for Inactive)
REMARK    1  A    between atoms: C_1  and  C_2
REMARK    2  A    between atoms: C_2  and  O_4
REMARK    3  A    between atoms: O_4  and  C_5
REMARK    4  A    between atoms: C_5  and  C_6
REMARK    5  A    between atoms: C_6  and  C_7
REMARK    6  A    between atoms: C_8  and  O_9
REMARK    7  A    between atoms: N_10  and  C_11
REMARK    8  A    between atoms: C_11  and  C_12
REMARK    9  A    between atoms: N_24  and  C_25
REMARK   10  A    between atoms: N_28  and  C_29
REMARK                            x       y       z     vdW  Elec       q    Type
REMARK                         _______ _______ _______ _____ _____    ______ ____
ROOT
ATOM      1  C   UNL     1       0.275   8.921  20.891  0.00  0.00    +0.000 A 
ATOM      2  C   UNL     1       0.207   9.849  19.912  0.00  0.00    +0.000 A 
ATOM      3  N   UNL     1       1.044   9.840  18.785  0.00  0.00    +0.000 N 
ATOM      4  C   UNL     1       1.910   8.794  18.574  0.00  0.00    +0.000 A 
ATOM      5  N   UNL     1       2.802   8.552  17.620  0.00  0.00    +0.000 NA
ATOM      6  C   UNL     1       3.327   7.322  17.929  0.00  0.00    +0.000 A 
ATOM      7  C   UNL     1       2.765   6.810  19.056  0.00  0.00    +0.000 A 
ATOM      8  C   UNL     1       3.002   5.494  19.531  0.00  0.00    +0.000 A 
ATOM      9  O   UNL     1       2.302   4.929  20.365  0.00  0.00    +0.000 OA
ATOM     10  N   UNL     1       4.061   4.868  18.878  0.00  0.00    +0.000 N 
ATOM     11  C   UNL     1       4.434   3.543  19.340  0.00  0.00    +0.000 C 
ATOM     12  C   UNL     1       4.665   5.330  17.697  0.00  0.00    +0.000 A 
ATOM     13  O   UNL     1       5.502   4.642  17.104  0.00  0.00    +0.000 OA
ATOM     14  N   UNL     1       4.266   6.592  17.223  0.00  0.00    +0.000 N 
ATOM     15  C   UNL     1       4.851   7.099  15.997  0.00  0.00    +0.000 C 
ATOM     16  N   UNL     1       1.948   7.795  19.533  0.00  0.00    +0.000 N 
ATOM     17  C   UNL     1       1.307   7.864  20.758  0.00  0.00    +0.000 A 
ATOM     18  O   UNL     1       1.633   7.117  21.666  0.00  0.00    +0.000 OA
ENDROOT
BRANCH   2  19
ATOM     19  O   UNL     1      -0.696  10.891  19.969  0.00  0.00    +0.000 OA
ATOM     20  H   UNL     1      -0.652  11.333  20.832  0.00  0.00    +0.000 HD
ENDBRANCH   2  19
BRANCH   1  21
ATOM     21  C   UNL     1      -0.590   8.774  22.117  0.00  0.00    +0.000 C 
BRANCH  21  22
ATOM     22  C   UNL     1      -0.327   9.821  23.206  0.00  0.00    +0.000 C 
BRANCH  22  23
ATOM     23  O   UNL     1      -1.486  10.650  23.395  0.00  0.00    +0.000 OA
BRANCH  23  25
ATOM     24  C   UNL     1      -2.596  12.711  23.262  0.00  0.00    +0.000 C 
ATOM     25  C   UNL     1      -1.336  11.941  23.006  0.00  0.00    +0.000 C 
ATOM     26  O   UNL     1      -0.329  12.413  22.502  0.00  0.00    +0.000 OA
ENDBRANCH  23  25
ENDBRANCH  22  23
ENDBRANCH  21  22
ENDBRANCH   1  21
BRANCH   3  27
ATOM     27  C   UNL     1       1.203  11.055  17.958  0.00  0.00    +0.000 C 
BRANCH  27  28
ATOM     28  C   UNL     1       2.050  12.159  18.564  0.00  0.00    +0.000 A 
ATOM     29  C   UNL     1       2.861  12.969  17.755  0.00  0.00    +0.000 A 
ATOM     30  C   UNL     1       3.507  14.098  18.279  0.00  0.00    +0.000 A 
ATOM     31  C   UNL     1       3.356  14.419  19.625  0.00  0.00    +0.000 A 
ATOM     32  C   UNL     1       2.577  13.607  20.447  0.00  0.00    +0.000 A 
ATOM     33  C   UNL     1       1.930  12.484  19.923  0.00  0.00    +0.000 A 
ENDBRANCH  27  28
ENDBRANCH   3  27
TORSDOF 7
ENDMDL
MODEL 8
REMARK VINA RESULT:      -7.0      2.524      3.826
REMARK  Name = 
REMARK  10 active torsions:
REMARK  status: ('A' for Active; 'I' for Inactive)
REMARK    1  A    between atoms: C_1  and  C_2
REMARK    2  A    between atoms: C_2  and  O_4
REMARK    3  A    between atoms: O_4  and  C_5
REMARK    4  A    between atoms: C_5  and  C_6
REMARK    5  A    between atoms: C_6  and  C_7
REMARK    6  A    between atoms: C_8  and  O_9
REMARK    7  A    between atoms: N_10  and  C_11
REMARK    8  A    between atoms: C_11  and  C_12
REMARK    9  A    between atoms: N_24  and  C_25
REMARK   10  A    between atoms: N_28  and  C_29
REMARK                            x       y       z     vdW  Elec       q    Type
REMARK                         _______ _______ _______ _____ _____    ______ ____
ROOT
ATOM      1  C   UNL     1      -4.173  11.984  18.694  0.00  0.00    +0.000 A 
ATOM      2  C   UNL     1      -2.904  11.528  18.760  0.00  0.00    +0.000 A 
ATOM      3  N   UNL     1      -1.981  11.963  19.725  0.00  0.00    +0.000 N 
ATOM      4  C   UNL     1      -2.380  12.805  20.735  0.00  0.00    +0.000 A 
ATOM      5  N   UNL     1      -1.720  13.366  21.743  0.00  0.00    +0.000 NA
ATOM      6  C   UNL     1      -2.671  14.067  22.442  0.00  0.00    +0.000 A 
ATOM      7  C   UNL     1      -3.900  13.938  21.876  0.00  0.00    +0.000 A 
ATOM      8  C   UNL     1      -5.097  14.427  22.464  0.00  0.00    +0.000 A 
ATOM      9  O   UNL     1      -6.221  14.079  22.120  0.00  0.00    +0.000 OA
ATOM     10  N   UNL     1      -4.860  15.275  23.543  0.00  0.00    +0.000 N 
ATOM     11  C   UNL     1      -6.017  15.889  24.169  0.00  0.00    +0.000 C 
ATOM     12  C   UNL     1      -3.622  15.431  24.188  0.00  0.00    +0.000 A 
ATOM     13  O   UNL     1      -3.530  16.093  25.226  0.00  0.00    +0.000 OA
ATOM     14  N   UNL     1      -2.511  14.794  23.608  0.00  0.00    +0.000 N 
ATOM     15  C   UNL     1      -1.217  14.914  24.252  0.00  0.00    +0.000 C 
ATOM     16  N   UNL     1      -3.698  13.232  20.725  0.00  0.00    +0.000 N 
ATOM     17  C   UNL     1      -4.583  13.008  19.685  0.00  0.00    +0.000 A 
ATOM     18  O   UNL     1      -5.605  13.670  19.593  0.00  0.00    +0.000 OA
ENDROOT
BRANCH   2  19
ATOM     19  O   UNL     1      -2.422  10.603  17.857  0.00  0.00    +0.000 OA
ATOM     20  H   UNL     1      -1.794  10.000  18.289  0.00  0.00    +0.000 HD
ENDBRANCH   2  19
BRANCH   1  21
ATOM     21  C   UNL     1      -5.280  11.568  17.758  0.00  0.00    +0.000 C 
BRANCH  21  22
ATOM     22  C   UNL     1      -6.086  10.353  18.234  0.00  0.00    +0.000 C 
BRANCH  22  23
ATOM     23  O   UNL     1      -7.214  10.775  19.019  0.00  0.00    +0.000 OA
BRANCH  23  25
ATOM     24  C   UNL     1      -7.462   8.829  20.304  0.00  0.00    +0.000 C 
ATOM     25  C   UNL     1      -7.230  10.310  20.293  0.00  0.00    +0.000 C 
ATOM     26  O   UNL     1      -7.094  10.995  21.295  0.00  0.00    +0.000 OA
ENDBRANCH  23  25
ENDBRANCH  22  23
ENDBRANCH  21  22
ENDBRANCH   1  21
BRANCH   3  27
ATOM     27  C   UNL     1      -0.532  11.745  19.530  0.00  0.00    +0.000 C 
BRANCH  27  28
ATOM     28  C   UNL     1       0.013  10.428  20.054  0.00  0.00    +0.000 A 
ATOM     29  C   UNL     1       0.922   9.674  19.296  0.00  0.00    +0.000 A 
ATOM     30  C   UNL     1       1.562   8.553  19.842  0.00  0.00    +0.000 A 
ATOM     31  C   UNL     1       1.289   8.169  21.152  0.00  0.00    +0.000 A 
ATOM     32  C   UNL     1       0.367   8.892  21.907  0.00  0.00    +0.000 A 
ATOM     33  C   UNL     1      -0.268  10.012  21.363  0.00  0.00    +0.000 A 
ENDBRANCH  27  28
ENDBRANCH   3  27
TORSDOF 7
ENDMDL
MODEL 9
REMARK VINA RESULT:      -7.0      3.852      5.835
REMARK  Name = 
REMARK  10 active torsions:
REMARK  status: ('A' for Active; 'I' for Inactive)
REMARK    1  A    between atoms: C_1  and  C_2
REMARK    2  A    between atoms: C_2  and  O_4
REMARK    3  A    between atoms: O_4  and  C_5
REMARK    4  A    between atoms: C_5  and  C_6
REMARK    5  A    between atoms: C_6  and  C_7
REMARK    6  A    between atoms: C_8  and  O_9
REMARK    7  A    between atoms: N_10  and  C_11
REMARK    8  A    between atoms: C_11  and  C_12
REMARK    9  A    between atoms: N_24  and  C_25
REMARK   10  A    between atoms: N_28  and  C_29
REMARK                            x       y       z     vdW  Elec       q    Type
REMARK                         _______ _______ _______ _____ _____    ______ ____
ROOT
ATOM      1  C   UNL     1       2.581  13.693  19.829  0.00  0.00    +0.000 A 
ATOM      2  C   UNL     1       1.900  12.883  18.990  0.00  0.00    +0.000 A 
ATOM      3  N   UNL     1       0.630  12.363  19.285  0.00  0.00    +0.000 N 
ATOM      4  C   UNL     1      -0.035  12.763  20.420  0.00  0.00    +0.000 A 
ATOM      5  N   UNL     1      -1.212  12.423  20.932  0.00  0.00    +0.000 NA
ATOM      6  C   UNL     1      -1.347  13.197  22.058  0.00  0.00    +0.000 A 
ATOM      7  C   UNL     1      -0.269  14.005  22.237  0.00  0.00    +0.000 A 
ATOM      8  C   UNL     1      -0.195  15.018  23.229  0.00  0.00    +0.000 A 
ATOM      9  O   UNL     1       0.629  15.925  23.223  0.00  0.00    +0.000 OA
ATOM     10  N   UNL     1      -1.223  14.931  24.165  0.00  0.00    +0.000 N 
ATOM     11  C   UNL     1      -1.199  15.876  25.266  0.00  0.00    +0.000 C 
ATOM     12  C   UNL     1      -2.374  14.137  24.025  0.00  0.00    +0.000 A 
ATOM     13  O   UNL     1      -3.304  14.226  24.833  0.00  0.00    +0.000 OA
ATOM     14  N   UNL     1      -2.418  13.258  22.930  0.00  0.00    +0.000 N 
ATOM     15  C   UNL     1      -3.596  12.433  22.738  0.00  0.00    +0.000 C 
ATOM     16  N   UNL     1       0.619  13.649  21.262  0.00  0.00    +0.000 N 
ATOM     17  C   UNL     1       1.945  14.019  21.128  0.00  0.00    +0.000 A 
ATOM     18  O   UNL     1       2.539  14.534  22.062  0.00  0.00    +0.000 OA
ENDROOT
BRANCH   2  19
ATOM     19  O   UNL     1       2.429  12.495  17.775  0.00  0.00    +0.000 OA
ATOM     20  H   UNL     1       3.179  11.892  17.907  0.00  0.00    +0.000 HD
ENDBRANCH   2  19
BRANCH   1  21
ATOM     21  C   UNL     1       3.915  14.365  19.620  0.00  0.00    +0.000 C 
BRANCH  21  22
ATOM     22  C   UNL     1       3.994  15.234  18.358  0.00  0.00    +0.000 C 
BRANCH  22  23
ATOM     23  O   UNL     1       3.536  16.567  18.637  0.00  0.00    +0.000 OA
BRANCH  23  25
ATOM     24  C   UNL     1       1.205  16.717  18.426  0.00  0.00    +0.000 C 
ATOM     25  C   UNL     1       2.545  17.014  17.824  0.00  0.00    +0.000 C 
ATOM     26  O   UNL     1       2.712  17.566  16.748  0.00  0.00    +0.000 OA
ENDBRANCH  23  25
ENDBRANCH  22  23
ENDBRANCH  21  22
ENDBRANCH   1  21
BRANCH   3  27
ATOM     27  C   UNL     1       0.102  11.200  18.542  0.00  0.00    +0.000 C 
BRANCH  27  28
ATOM     28  C   UNL     1       0.739   9.862  18.873  0.00  0.00    +0.000 A 
ATOM     29  C   UNL     1       1.488   9.166  17.912  0.00  0.00    +0.000 A 
ATOM     30  C   UNL     1       2.222   8.023  18.258  0.00  0.00    +0.000 A 
ATOM     31  C   UNL     1       2.205   7.560  19.571  0.00  0.00    +0.000 A 
ATOM     32  C   UNL     1       1.443   8.226  20.530  0.00  0.00    +0.000 A 
ATOM     33  C   UNL     1       0.713   9.367  20.184  0.00  0.00    +0.000 A 
ENDBRANCH  27  28
ENDBRANCH   3  27
TORSDOF 7
ENDMDL
