MODEL 1
REMARK VINA RESULT:      -7.9      0.000      0.000
REMARK  Name = 
REMARK  11 active torsions:
REMARK  status: ('A' for Active; 'I' for Inactive)
REMARK    1  A    between atoms: C_1  and  C_2
REMARK    2  A    between atoms: C_2  and  O_3
REMARK    3  A    between atoms: O_3  and  P_4
REMARK    4  A    between atoms: P_4  and  O_6
REMARK    5  A    between atoms: P_4  and  C_9
REMARK    6  A    between atoms: O_6  and  C_7
REMARK    7  A    between atoms: C_7  and  C_8
REMARK    8  A    between atoms: C_9  and  N_10
REMARK    9  A    between atoms: C_9  and  C_21
REMARK   10  A    between atoms: N_10  and  C_11
REMARK   11  A    between atoms: C_14  and  C_15
REMARK                            x       y       z     vdW  Elec       q    Type
REMARK                         _______ _______ _______ _____ _____    ______ ____
ROOT
ATOM      1  C   UNL     1       4.049   5.199  17.643  0.00  0.00    +0.000 C 
ENDROOT
BRANCH   1   2
ATOM      2  C   UNL     1       4.867   5.153  16.365  0.00  0.00    +0.000 A 
ATOM      3  C   UNL     1       4.662   4.266  15.370  0.00  0.00    +0.000 A 
ATOM      4  C   UNL     1       5.549   4.229  14.201  0.00  0.00    +0.000 A 
ATOM      5  C   UNL     1       5.228   3.525  13.044  0.00  0.00    +0.000 A 
ATOM      6  C   UNL     1       6.128   3.498  11.975  0.00  0.00    +0.000 A 
ATOM      7  C   UNL     1       7.367   4.136  12.079  0.00  0.00    +0.000 A 
ATOM      8  C   UNL     1       7.693   4.846  13.231  0.00  0.00    +0.000 A 
ATOM      9  C   UNL     1       6.769   4.922  14.266  0.00  0.00    +0.000 A 
ATOM     10  N   UNL     1       6.990   5.793  15.338  0.00  0.00    +0.000 N 
ATOM     11  C   UNL     1       5.978   6.140  16.184  0.00  0.00    +0.000 A 
ATOM     12  O   UNL     1       5.964   7.246  16.722  0.00  0.00    +0.000 OA
ATOM     13  H   UNL     1       7.777   6.428  15.296  0.00  0.00    +0.000 HD
ENDBRANCH   1   2
BRANCH   1  14
ATOM     14  P   UNL     1       4.491   3.918  18.873  0.00  0.00    +0.000 P 
ATOM     15  O   UNL     1       3.990   4.857  20.002  0.00  0.00    +0.000 OA
BRANCH  14  16
ATOM     16  O   UNL     1       4.909   2.706  20.035  0.00  0.00    +0.000 OA
BRANCH  16  18
ATOM     17  C   UNL     1       3.521   1.503  18.497  0.00  0.00    +0.000 C 
ATOM     18  C   UNL     1       4.429   1.410  19.705  0.00  0.00    +0.000 C 
ENDBRANCH  16  18
ENDBRANCH  14  16
BRANCH  14  19
ATOM     19  O   UNL     1       6.132   4.246  18.707  0.00  0.00    +0.000 OA
BRANCH  19  20
ATOM     20  C   UNL     1       6.681   5.204  19.612  0.00  0.00    +0.000 C 
ATOM     21  C   UNL     1       8.001   5.761  19.109  0.00  0.00    +0.000 C 
ENDBRANCH  19  20
ENDBRANCH  14  19
ENDBRANCH   1  14
BRANCH   1  22
ATOM     22  N   UNL     1       4.135   6.561  18.248  0.00  0.00    +0.000 N 
ATOM     23  H   UNL     1       4.869   6.624  18.948  0.00  0.00    +0.000 HD
BRANCH  22  24
ATOM     24  C   UNL     1       3.123   7.492  18.426  0.00  0.00    +0.000 A 
ATOM     25  C   UNL     1       2.813   8.528  17.546  0.00  0.00    +0.000 A 
ATOM     26  C   UNL     1       1.733   9.398  17.791  0.00  0.00    +0.000 A 
ATOM     27  C   UNL     1       0.955   9.278  18.946  0.00  0.00    +0.000 A 
ATOM     28  C   UNL     1       1.324   8.313  19.885  0.00  0.00    +0.000 A 
ATOM     29  C   UNL     1       2.397   7.448  19.628  0.00  0.00    +0.000 A 
BRANCH  27  30
ATOM     30  C   UNL     1      -0.271  10.131  19.176  0.00  0.00    +0.000 C 
ATOM     31  F   UNL     1      -0.055  11.461  18.966  0.00  0.00    +0.000 F 
ATOM     32  F   UNL     1      -1.297   9.786  18.349  0.00  0.00    +0.000 F 
ATOM     33  F   UNL     1      -0.756  10.025  20.443  0.00  0.00    +0.000 F 
ENDBRANCH  27  30
ENDBRANCH  22  24
ENDBRANCH   1  22
TORSDOF 9
ENDMDL
MODEL 2
REMARK VINA RESULT:      -7.9      1.106      2.240
REMARK  Name = 
REMARK  11 active torsions:
REMARK  status: ('A' for Active; 'I' for Inactive)
REMARK    1  A    between atoms: C_1  and  C_2
REMARK    2  A    between atoms: C_2  and  O_3
REMARK    3  A    between atoms: O_3  and  P_4
REMARK    4  A    between atoms: P_4  and  O_6
REMARK    5  A    between atoms: P_4  and  C_9
REMARK    6  A    between atoms: O_6  and  C_7
REMARK    7  A    between atoms: C_7  and  C_8
REMARK    8  A    between atoms: C_9  and  N_10
REMARK    9  A    between atoms: C_9  and  C_21
REMARK   10  A    between atoms: N_10  and  C_11
REMARK   11  A    between atoms: C_14  and  C_15
REMARK                            x       y       z     vdW  Elec       q    Type
REMARK                         _______ _______ _______ _____ _____    ______ ____
ROOT
ATOM      1  C   UNL     1       3.788   5.196  17.815  0.00  0.00    +0.000 C 
ENDROOT
BRANCH   1   2
ATOM      2  C   UNL     1       4.715   5.186  16.612  0.00  0.00    +0.000 A 
ATOM      3  C   UNL     1       4.567   4.365  15.553  0.00  0.00    +0.000 A 
ATOM      4  C   UNL     1       5.553   4.356  14.466  0.00  0.00    +0.000 A 
ATOM      5  C   UNL     1       5.311   3.729  13.246  0.00  0.00    +0.000 A 
ATOM      6  C   UNL     1       6.302   3.725  12.260  0.00  0.00    +0.000 A 
ATOM      7  C   UNL     1       7.549   4.303  12.508  0.00  0.00    +0.000 A 
ATOM      8  C   UNL     1       7.797   4.934  13.724  0.00  0.00    +0.000 A 
ATOM      9  C   UNL     1       6.787   4.992  14.677  0.00  0.00    +0.000 A 
ATOM     10  N   UNL     1       6.943   5.792  15.814  0.00  0.00    +0.000 N 
ATOM     11  C   UNL     1       5.873   6.135  16.587  0.00  0.00    +0.000 A 
ATOM     12  O   UNL     1       5.852   7.209  17.186  0.00  0.00    +0.000 OA
ATOM     13  H   UNL     1       7.753   6.396  15.878  0.00  0.00    +0.000 HD
ENDBRANCH   1   2
BRANCH   1  14
ATOM     14  P   UNL     1       4.052   3.815  18.986  0.00  0.00    +0.000 P 
ATOM     15  O   UNL     1       5.577   4.097  18.943  0.00  0.00    +0.000 OA
BRANCH  14  16
ATOM     16  O   UNL     1       4.301   2.510  20.094  0.00  0.00    +0.000 OA
BRANCH  16  18
ATOM     17  C   UNL     1       2.630   3.810  21.215  0.00  0.00    +0.000 C 
ATOM     18  C   UNL     1       3.376   2.493  21.172  0.00  0.00    +0.000 C 
ENDBRANCH  16  18
ENDBRANCH  14  16
BRANCH  14  19
ATOM     19  O   UNL     1       3.770   2.670  17.787  0.00  0.00    +0.000 OA
BRANCH  19  20
ATOM     20  C   UNL     1       2.494   2.031  17.809  0.00  0.00    +0.000 C 
ATOM     21  C   UNL     1       1.375   3.018  18.087  0.00  0.00    +0.000 C 
ENDBRANCH  19  20
ENDBRANCH  14  19
ENDBRANCH   1  14
BRANCH   1  22
ATOM     22  N   UNL     1       3.887   6.510  18.517  0.00  0.00    +0.000 N 
ATOM     23  H   UNL     1       4.650   6.528  19.188  0.00  0.00    +0.000 HD
BRANCH  22  24
ATOM     24  C   UNL     1       2.875   7.411  18.807  0.00  0.00    +0.000 A 
ATOM     25  C   UNL     1       2.162   7.471  20.004  0.00  0.00    +0.000 A 
ATOM     26  C   UNL     1       1.181   8.455  20.224  0.00  0.00    +0.000 A 
ATOM     27  C   UNL     1       0.857   9.387  19.235  0.00  0.00    +0.000 A 
ATOM     28  C   UNL     1       1.488   9.270  17.994  0.00  0.00    +0.000 A 
ATOM     29  C   UNL     1       2.468   8.289  17.789  0.00  0.00    +0.000 A 
BRANCH  27  30
ATOM     30  C   UNL     1      -0.115  10.516  19.488  0.00  0.00    +0.000 C 
ATOM     31  F   UNL     1      -1.189  10.508  18.648  0.00  0.00    +0.000 F 
ATOM     32  F   UNL     1      -0.629  10.476  20.748  0.00  0.00    +0.000 F 
ATOM     33  F   UNL     1       0.457  11.744  19.353  0.00  0.00    +0.000 F 
ENDBRANCH  27  30
ENDBRANCH  22  24
ENDBRANCH   1  22
TORSDOF 9
ENDMDL
MODEL 3
REMARK VINA RESULT:      -7.8      2.064      4.916
REMARK  Name = 
REMARK  11 active torsions:
REMARK  status: ('A' for Active; 'I' for Inactive)
REMARK    1  A    between atoms: C_1  and  C_2
REMARK    2  A    between atoms: C_2  and  O_3
REMARK    3  A    between atoms: O_3  and  P_4
REMARK    4  A    between atoms: P_4  and  O_6
REMARK    5  A    between atoms: P_4  and  C_9
REMARK    6  A    between atoms: O_6  and  C_7
REMARK    7  A    between atoms: C_7  and  C_8
REMARK    8  A    between atoms: C_9  and  N_10
REMARK    9  A    between atoms: C_9  and  C_21
REMARK   10  A    between atoms: N_10  and  C_11
REMARK   11  A    between atoms: C_14  and  C_15
REMARK                            x       y       z     vdW  Elec       q    Type
REMARK                         _______ _______ _______ _____ _____    ______ ____
ROOT
ATOM      1  C   UNL     1       4.523   6.776  17.525  0.00  0.00    +0.000 C 
ENDROOT
BRANCH   1   2
ATOM      2  C   UNL     1       3.877   5.636  18.292  0.00  0.00    +0.000 A 
ATOM      3  C   UNL     1       2.775   4.977  17.877  0.00  0.00    +0.000 A 
ATOM      4  C   UNL     1       2.159   3.941  18.715  0.00  0.00    +0.000 A 
ATOM      5  C   UNL     1       1.196   3.063  18.225  0.00  0.00    +0.000 A 
ATOM      6  C   UNL     1       0.620   2.119  19.080  0.00  0.00    +0.000 A 
ATOM      7  C   UNL     1       0.971   2.082  20.432  0.00  0.00    +0.000 A 
ATOM      8  C   UNL     1       1.936   2.954  20.927  0.00  0.00    +0.000 A 
ATOM      9  C   UNL     1       2.552   3.849  20.060  0.00  0.00    +0.000 A 
ATOM     10  N   UNL     1       3.661   4.586  20.487  0.00  0.00    +0.000 N 
ATOM     11  C   UNL     1       4.481   5.208  19.593  0.00  0.00    +0.000 A 
ATOM     12  O   UNL     1       5.679   5.351  19.836  0.00  0.00    +0.000 OA
ATOM     13  H   UNL     1       4.060   4.385  21.396  0.00  0.00    +0.000 HD
ENDBRANCH   1   2
BRANCH   1  14
ATOM     14  P   UNL     1       5.374   6.268  15.986  0.00  0.00    +0.000 P 
ATOM     15  O   UNL     1       5.759   4.927  16.665  0.00  0.00    +0.000 OA
BRANCH  14  16
ATOM     16  O   UNL     1       6.177   5.788  14.531  0.00  0.00    +0.000 OA
BRANCH  16  18
ATOM     17  C   UNL     1       6.183   3.743  13.284  0.00  0.00    +0.000 C 
ATOM     18  C   UNL     1       6.633   4.443  14.549  0.00  0.00    +0.000 C 
ENDBRANCH  16  18
ENDBRANCH  14  16
BRANCH  14  19
ATOM     19  O   UNL     1       6.658   7.311  16.286  0.00  0.00    +0.000 OA
BRANCH  19  20
ATOM     20  C   UNL     1       7.347   7.127  17.523  0.00  0.00    +0.000 C 
ATOM     21  C   UNL     1       8.110   8.375  17.933  0.00  0.00    +0.000 C 
ENDBRANCH  19  20
ENDBRANCH  14  19
ENDBRANCH   1  14
BRANCH   1  22
ATOM     22  N   UNL     1       3.507   7.832  17.241  0.00  0.00    +0.000 N 
ATOM     23  H   UNL     1       3.800   8.455  16.494  0.00  0.00    +0.000 HD
BRANCH  22  24
ATOM     24  C   UNL     1       2.595   8.408  18.112  0.00  0.00    +0.000 A 
ATOM     25  C   UNL     1       2.204   7.878  19.341  0.00  0.00    +0.000 A 
ATOM     26  C   UNL     1       1.303   8.562  20.179  0.00  0.00    +0.000 A 
ATOM     27  C   UNL     1       0.737   9.779  19.793  0.00  0.00    +0.000 A 
ATOM     28  C   UNL     1       1.037  10.265  18.519  0.00  0.00    +0.000 A 
ATOM     29  C   UNL     1       1.940   9.579  17.695  0.00  0.00    +0.000 A 
BRANCH  27  30
ATOM     30  C   UNL     1      -0.148  10.580  20.721  0.00  0.00    +0.000 C 
ATOM     31  F   UNL     1      -0.605   9.865  21.788  0.00  0.00    +0.000 F 
ATOM     32  F   UNL     1       0.501  11.656  21.245  0.00  0.00    +0.000 F 
ATOM     33  F   UNL     1      -1.253  11.073  20.098  0.00  0.00    +0.000 F 
ENDBRANCH  27  30
ENDBRANCH  22  24
ENDBRANCH   1  22
TORSDOF 9
ENDMDL
MODEL 4
REMARK VINA RESULT:      -7.8      1.409      2.445
REMARK  Name = 
REMARK  11 active torsions:
REMARK  status: ('A' for Active; 'I' for Inactive)
REMARK    1  A    between atoms: C_1  and  C_2
REMARK    2  A    between atoms: C_2  and  O_3
REMARK    3  A    between atoms: O_3  and  P_4
REMARK    4  A    between atoms: P_4  and  O_6
REMARK    5  A    between atoms: P_4  and  C_9
REMARK    6  A    between atoms: O_6  and  C_7
REMARK    7  A    between atoms: C_7  and  C_8
REMARK    8  A    between atoms: C_9  and  N_10
REMARK    9  A    between atoms: C_9  and  C_21
REMARK   10  A    between atoms: N_10  and  C_11
REMARK   11  A    between atoms: C_14  and  C_15
REMARK                            x       y       z     vdW  Elec       q    Type
REMARK                         _______ _______ _______ _____ _____    ______ ____
ROOT
ATOM      1  C   UNL     1       3.967   5.165  17.407  0.00  0.00    +0.000 C 
ENDROOT
BRANCH   1   2
ATOM      2  C   UNL     1       4.869   5.139  16.186  0.00  0.00    +0.000 A 
ATOM      3  C   UNL     1       4.703   4.297  15.145  0.00  0.00    +0.000 A 
ATOM      4  C   UNL     1       5.667   4.274  14.037  0.00  0.00    +0.000 A 
ATOM      5  C   UNL     1       5.402   3.624  12.834  0.00  0.00    +0.000 A 
ATOM      6  C   UNL     1       6.372   3.607  11.828  0.00  0.00    +0.000 A 
ATOM      7  C   UNL     1       7.621   4.196  12.039  0.00  0.00    +0.000 A 
ATOM      8  C   UNL     1       7.890   4.851  13.237  0.00  0.00    +0.000 A 
ATOM      9  C   UNL     1       6.900   4.921  14.211  0.00  0.00    +0.000 A 
ATOM     10  N   UNL     1       7.076   5.742  15.329  0.00  0.00    +0.000 N 
ATOM     11  C   UNL     1       6.020   6.093  16.118  0.00  0.00    +0.000 A 
ATOM     12  O   UNL     1       6.005   7.178  16.698  0.00  0.00    +0.000 OA
ATOM     13  H   UNL     1       7.883   6.352  15.365  0.00  0.00    +0.000 HD
ENDBRANCH   1   2
BRANCH   1  14
ATOM     14  P   UNL     1       4.522   4.093  18.782  0.00  0.00    +0.000 P 
ATOM     15  O   UNL     1       5.879   3.897  18.055  0.00  0.00    +0.000 OA
BRANCH  14  16
ATOM     16  O   UNL     1       5.047   3.079  20.082  0.00  0.00    +0.000 OA
BRANCH  16  18
ATOM     17  C   UNL     1       3.082   2.640  21.380  0.00  0.00    +0.000 C 
ATOM     18  C   UNL     1       4.112   2.068  20.429  0.00  0.00    +0.000 C 
ENDBRANCH  16  18
ENDBRANCH  14  16
BRANCH  14  19
ATOM     19  O   UNL     1       3.544   2.827  18.263  0.00  0.00    +0.000 OA
BRANCH  19  20
ATOM     20  C   UNL     1       2.305   3.192  17.658  0.00  0.00    +0.000 C 
ATOM     21  C   UNL     1       1.118   2.637  18.426  0.00  0.00    +0.000 C 
ENDBRANCH  19  20
ENDBRANCH  14  19
ENDBRANCH   1  14
BRANCH   1  22
ATOM     22  N   UNL     1       3.792   6.573  17.874  0.00  0.00    +0.000 N 
ATOM     23  H   UNL     1       4.665   7.094  17.855  0.00  0.00    +0.000 HD
BRANCH  22  24
ATOM     24  C   UNL     1       2.871   7.073  18.781  0.00  0.00    +0.000 A 
ATOM     25  C   UNL     1       2.398   6.401  19.908  0.00  0.00    +0.000 A 
ATOM     26  C   UNL     1       1.495   7.011  20.798  0.00  0.00    +0.000 A 
ATOM     27  C   UNL     1       1.009   8.300  20.566  0.00  0.00    +0.000 A 
ATOM     28  C   UNL     1       1.392   8.940  19.385  0.00  0.00    +0.000 A 
ATOM     29  C   UNL     1       2.296   8.325  18.508  0.00  0.00    +0.000 A 
BRANCH  27  30
ATOM     30  C   UNL     1       0.124   9.013  21.562  0.00  0.00    +0.000 C 
ATOM     31  F   UNL     1       0.767   9.352  22.716  0.00  0.00    +0.000 F 
ATOM     32  F   UNL     1      -0.378  10.175  21.061  0.00  0.00    +0.000 F 
ATOM     33  F   UNL     1      -0.952   8.268  21.937  0.00  0.00    +0.000 F 
ENDBRANCH  27  30
ENDBRANCH  22  24
ENDBRANCH   1  22
TORSDOF 9
ENDMDL
MODEL 5
REMARK VINA RESULT:      -7.7      2.069      4.825
REMARK  Name = 
REMARK  11 active torsions:
REMARK  status: ('A' for Active; 'I' for Inactive)
REMARK    1  A    between atoms: C_1  and  C_2
REMARK    2  A    between atoms: C_2  and  O_3
REMARK    3  A    between atoms: O_3  and  P_4
REMARK    4  A    between atoms: P_4  and  O_6
REMARK    5  A    between atoms: P_4  and  C_9
REMARK    6  A    between atoms: O_6  and  C_7
REMARK    7  A    between atoms: C_7  and  C_8
REMARK    8  A    between atoms: C_9  and  N_10
REMARK    9  A    between atoms: C_9  and  C_21
REMARK   10  A    between atoms: N_10  and  C_11
REMARK   11  A    between atoms: C_14  and  C_15
REMARK                            x       y       z     vdW  Elec       q    Type
REMARK                         _______ _______ _______ _____ _____    ______ ____
ROOT
ATOM      1  C   UNL     1       4.457   6.809  17.423  0.00  0.00    +0.000 C 
ENDROOT
BRANCH   1   2
ATOM      2  C   UNL     1       3.859   5.688  18.254  0.00  0.00    +0.000 A 
ATOM      3  C   UNL     1       2.718   5.042  17.938  0.00  0.00    +0.000 A 
ATOM      4  C   UNL     1       2.157   4.025  18.836  0.00  0.00    +0.000 A 
ATOM      5  C   UNL     1       1.144   3.157  18.437  0.00  0.00    +0.000 A 
ATOM      6  C   UNL     1       0.626   2.231  19.348  0.00  0.00    +0.000 A 
ATOM      7  C   UNL     1       1.086   2.203  20.667  0.00  0.00    +0.000 A 
ATOM      8  C   UNL     1       2.101   3.066  21.071  0.00  0.00    +0.000 A 
ATOM      9  C   UNL     1       2.657   3.941  20.145  0.00  0.00    +0.000 A 
ATOM     10  N   UNL     1       3.808   4.666  20.472  0.00  0.00    +0.000 N 
ATOM     11  C   UNL     1       4.561   5.265  19.506  0.00  0.00    +0.000 A 
ATOM     12  O   UNL     1       5.777   5.392  19.649  0.00  0.00    +0.000 OA
ATOM     13  H   UNL     1       4.276   4.469  21.348  0.00  0.00    +0.000 HD
ENDBRANCH   1   2
BRANCH   1  14
ATOM     14  P   UNL     1       5.325   6.253  15.911  0.00  0.00    +0.000 P 
ATOM     15  O   UNL     1       4.890   4.796  16.222  0.00  0.00    +0.000 OA
BRANCH  14  16
ATOM     16  O   UNL     1       6.145   5.727  14.481  0.00  0.00    +0.000 OA
BRANCH  16  18
ATOM     17  C   UNL     1       6.191   3.734  13.152  0.00  0.00    +0.000 C 
ATOM     18  C   UNL     1       6.498   4.351  14.501  0.00  0.00    +0.000 C 
ENDBRANCH  16  18
ENDBRANCH  14  16
BRANCH  14  19
ATOM     19  O   UNL     1       6.829   6.441  16.639  0.00  0.00    +0.000 OA
BRANCH  19  20
ATOM     20  C   UNL     1       7.051   7.673  17.325  0.00  0.00    +0.000 C 
ATOM     21  C   UNL     1       8.164   7.553  18.351  0.00  0.00    +0.000 C 
ENDBRANCH  19  20
ENDBRANCH  14  19
ENDBRANCH   1  14
BRANCH   1  22
ATOM     22  N   UNL     1       3.398   7.807  17.086  0.00  0.00    +0.000 N 
ATOM     23  H   UNL     1       3.603   8.307  16.225  0.00  0.00    +0.000 HD
BRANCH  22  24
ATOM     24  C   UNL     1       2.567   8.507  17.946  0.00  0.00    +0.000 A 
ATOM     25  C   UNL     1       2.053   9.783  17.716  0.00  0.00    +0.000 A 
ATOM     26  C   UNL     1       1.177  10.396  18.631  0.00  0.00    +0.000 A 
ATOM     27  C   UNL     1       0.819   9.762  19.824  0.00  0.00    +0.000 A 
ATOM     28  C   UNL     1       1.412   8.532  20.115  0.00  0.00    +0.000 A 
ATOM     29  C   UNL     1       2.279   7.929  19.194  0.00  0.00    +0.000 A 
BRANCH  27  30
ATOM     30  C   UNL     1      -0.202  10.355  20.768  0.00  0.00    +0.000 C 
ATOM     31  F   UNL     1      -1.277  10.902  20.133  0.00  0.00    +0.000 F 
ATOM     32  F   UNL     1      -0.708   9.424  21.624  0.00  0.00    +0.000 F 
ATOM     33  F   UNL     1       0.316  11.343  21.549  0.00  0.00    +0.000 F 
ENDBRANCH  27  30
ENDBRANCH  22  24
ENDBRANCH   1  22
TORSDOF 9
ENDMDL
MODEL 6
REMARK VINA RESULT:      -7.6      3.973      7.765
REMARK  Name = 
REMARK  11 active torsions:
REMARK  status: ('A' for Active; 'I' for Inactive)
REMARK    1  A    between atoms: C_1  and  C_2
REMARK    2  A    between atoms: C_2  and  O_3
REMARK    3  A    between atoms: O_3  and  P_4
REMARK    4  A    between atoms: P_4  and  O_6
REMARK    5  A    between atoms: P_4  and  C_9
REMARK    6  A    between atoms: O_6  and  C_7
REMARK    7  A    between atoms: C_7  and  C_8
REMARK    8  A    between atoms: C_9  and  N_10
REMARK    9  A    between atoms: C_9  and  C_21
REMARK   10  A    between atoms: N_10  and  C_11
REMARK   11  A    between atoms: C_14  and  C_15
REMARK                            x       y       z     vdW  Elec       q    Type
REMARK                         _______ _______ _______ _____ _____    ______ ____
ROOT
ATOM      1  C   UNL     1       3.196   5.956  19.569  0.00  0.00    +0.000 C 
ENDROOT
BRANCH   1   2
ATOM      2  C   UNL     1       2.353   7.194  19.818  0.00  0.00    +0.000 A 
ATOM      3  C   UNL     1       1.715   7.450  20.979  0.00  0.00    +0.000 A 
ATOM      4  C   UNL     1       0.849   8.628  21.115  0.00  0.00    +0.000 A 
ATOM      5  C   UNL     1       0.388   9.073  22.351  0.00  0.00    +0.000 A 
ATOM      6  C   UNL     1      -0.462  10.181  22.416  0.00  0.00    +0.000 A 
ATOM      7  C   UNL     1      -0.889  10.815  21.246  0.00  0.00    +0.000 A 
ATOM      8  C   UNL     1      -0.428  10.377  20.008  0.00  0.00    +0.000 A 
ATOM      9  C   UNL     1       0.467   9.315  19.952  0.00  0.00    +0.000 A 
ATOM     10  N   UNL     1       1.096   8.993  18.745  0.00  0.00    +0.000 N 
ATOM     11  C   UNL     1       2.204   8.198  18.718  0.00  0.00    +0.000 A 
ATOM     12  O   UNL     1       3.065   8.352  17.852  0.00  0.00    +0.000 OA
ATOM     13  H   UNL     1       0.964   9.603  17.948  0.00  0.00    +0.000 HD
ENDBRANCH   1   2
BRANCH   1  14
ATOM     14  P   UNL     1       2.290   4.564  18.800  0.00  0.00    +0.000 P 
ATOM     15  O   UNL     1       1.676   5.555  17.776  0.00  0.00    +0.000 OA
BRANCH  14  16
ATOM     16  O   UNL     1       1.433   3.248  18.073  0.00  0.00    +0.000 OA
BRANCH  16  18
ATOM     17  C   UNL     1       3.240   1.700  18.358  0.00  0.00    +0.000 C 
ATOM     18  C   UNL     1       2.273   2.335  17.380  0.00  0.00    +0.000 C 
ENDBRANCH  16  18
ENDBRANCH  14  16
BRANCH  14  19
ATOM     19  O   UNL     1       1.196   4.498  20.076  0.00  0.00    +0.000 OA
BRANCH  19  20
ATOM     20  C   UNL     1       1.121   3.260  20.783  0.00  0.00    +0.000 C 
ATOM     21  C   UNL     1       2.313   3.063  21.702  0.00  0.00    +0.000 C 
ENDBRANCH  19  20
ENDBRANCH  14  19
ENDBRANCH   1  14
BRANCH   1  22
ATOM     22  N   UNL     1       4.395   6.317  18.756  0.00  0.00    +0.000 N 
ATOM     23  H   UNL     1       4.620   7.306  18.825  0.00  0.00    +0.000 HD
BRANCH  22  24
ATOM     24  C   UNL     1       4.856   5.727  17.590  0.00  0.00    +0.000 A 
ATOM     25  C   UNL     1       5.415   4.453  17.494  0.00  0.00    +0.000 A 
ATOM     26  C   UNL     1       5.815   3.920  16.254  0.00  0.00    +0.000 A 
ATOM     27  C   UNL     1       5.700   4.664  15.076  0.00  0.00    +0.000 A 
ATOM     28  C   UNL     1       5.243   5.980  15.176  0.00  0.00    +0.000 A 
ATOM     29  C   UNL     1       4.843   6.498  16.416  0.00  0.00    +0.000 A 
BRANCH  27  30
ATOM     30  C   UNL     1       6.023   4.074  13.723  0.00  0.00    +0.000 C 
ATOM     31  F   UNL     1       7.007   4.743  13.058  0.00  0.00    +0.000 F 
ATOM     32  F   UNL     1       6.449   2.783  13.817  0.00  0.00    +0.000 F 
ATOM     33  F   UNL     1       4.949   4.056  12.887  0.00  0.00    +0.000 F 
ENDBRANCH  27  30
ENDBRANCH  22  24
ENDBRANCH   1  22
TORSDOF 9
ENDMDL
MODEL 7
REMARK VINA RESULT:      -7.6      1.376      2.692
REMARK  Name = 
REMARK  11 active torsions:
REMARK  status: ('A' for Active; 'I' for Inactive)
REMARK    1  A    between atoms: C_1  and  C_2
REMARK    2  A    between atoms: C_2  and  O_3
REMARK    3  A    between atoms: O_3  and  P_4
REMARK    4  A    between atoms: P_4  and  O_6
REMARK    5  A    between atoms: P_4  and  C_9
REMARK    6  A    between atoms: O_6  and  C_7
REMARK    7  A    between atoms: C_7  and  C_8
REMARK    8  A    between atoms: C_9  and  N_10
REMARK    9  A    between atoms: C_9  and  C_21
REMARK   10  A    between atoms: N_10  and  C_11
REMARK   11  A    between atoms: C_14  and  C_15
REMARK                            x       y       z     vdW  Elec       q    Type
REMARK                         _______ _______ _______ _____ _____    ______ ____
ROOT
ATOM      1  C   UNL     1       4.527   4.369  17.323  0.00  0.00    +0.000 C 
ENDROOT
BRANCH   1   2
ATOM      2  C   UNL     1       5.183   4.535  15.964  0.00  0.00    +0.000 A 
ATOM      3  C   UNL     1       5.209   3.575  15.017  0.00  0.00    +0.000 A 
ATOM      4  C   UNL     1       5.937   3.780  13.759  0.00  0.00    +0.000 A 
ATOM      5  C   UNL     1       5.775   2.940  12.660  0.00  0.00    +0.000 A 
ATOM      6  C   UNL     1       6.521   3.166  11.499  0.00  0.00    +0.000 A 
ATOM      7  C   UNL     1       7.460   4.199  11.452  0.00  0.00    +0.000 A 
ATOM      8  C   UNL     1       7.624   5.044  12.546  0.00  0.00    +0.000 A 
ATOM      9  C   UNL     1       6.835   4.856  13.674  0.00  0.00    +0.000 A 
ATOM     10  N   UNL     1       6.837   5.810  14.697  0.00  0.00    +0.000 N 
ATOM     11  C   UNL     1       5.852   5.834  15.641  0.00  0.00    +0.000 A 
ATOM     12  O   UNL     1       5.502   6.896  16.153  0.00  0.00    +0.000 OA
ATOM     13  H   UNL     1       7.342   6.676  14.555  0.00  0.00    +0.000 HD
ENDBRANCH   1   2
BRANCH   1  14
ATOM     14  P   UNL     1       5.566   4.890  18.736  0.00  0.00    +0.000 P 
ATOM     15  O   UNL     1       6.738   4.053  18.157  0.00  0.00    +0.000 OA
BRANCH  14  16
ATOM     16  O   UNL     1       6.549   5.382  20.072  0.00  0.00    +0.000 OA
BRANCH  16  18
ATOM     17  C   UNL     1       7.929   6.783  18.702  0.00  0.00    +0.000 C 
ATOM     18  C   UNL     1       7.897   5.659  19.716  0.00  0.00    +0.000 C 
ENDBRANCH  16  18
ENDBRANCH  14  16
BRANCH  14  19
ATOM     19  O   UNL     1       4.752   3.860  19.787  0.00  0.00    +0.000 OA
BRANCH  19  20
ATOM     20  C   UNL     1       4.506   2.536  19.312  0.00  0.00    +0.000 C 
ATOM     21  C   UNL     1       3.079   2.096  19.584  0.00  0.00    +0.000 C 
ENDBRANCH  19  20
ENDBRANCH  14  19
ENDBRANCH   1  14
BRANCH   1  22
ATOM     22  N   UNL     1       3.216   5.084  17.341  0.00  0.00    +0.000 N 
ATOM     23  H   UNL     1       2.839   5.216  16.406  0.00  0.00    +0.000 HD
BRANCH  22  24
ATOM     24  C   UNL     1       2.754   6.015  18.258  0.00  0.00    +0.000 A 
ATOM     25  C   UNL     1       2.798   7.400  18.098  0.00  0.00    +0.000 A 
ATOM     26  C   UNL     1       2.260   8.267  19.068  0.00  0.00    +0.000 A 
ATOM     27  C   UNL     1       1.694   7.772  20.246  0.00  0.00    +0.000 A 
ATOM     28  C   UNL     1       1.742   6.394  20.465  0.00  0.00    +0.000 A 
ATOM     29  C   UNL     1       2.275   5.540  19.490  0.00  0.00    +0.000 A 
BRANCH  27  30
ATOM     30  C   UNL     1       1.016   8.677  21.248  0.00  0.00    +0.000 C 
ATOM     31  F   UNL     1       0.820   9.946  20.790  0.00  0.00    +0.000 F 
ATOM     32  F   UNL     1      -0.215   8.216  21.603  0.00  0.00    +0.000 F 
ATOM     33  F   UNL     1       1.721   8.800  22.406  0.00  0.00    +0.000 F 
ENDBRANCH  27  30
ENDBRANCH  22  24
ENDBRANCH   1  22
TORSDOF 9
ENDMDL
MODEL 8
REMARK VINA RESULT:      -7.6      1.128      2.647
REMARK  Name = 
REMARK  11 active torsions:
REMARK  status: ('A' for Active; 'I' for Inactive)
REMARK    1  A    between atoms: C_1  and  C_2
REMARK    2  A    between atoms: C_2  and  O_3
REMARK    3  A    between atoms: O_3  and  P_4
REMARK    4  A    between atoms: P_4  and  O_6
REMARK    5  A    between atoms: P_4  and  C_9
REMARK    6  A    between atoms: O_6  and  C_7
REMARK    7  A    between atoms: C_7  and  C_8
REMARK    8  A    between atoms: C_9  and  N_10
REMARK    9  A    between atoms: C_9  and  C_21
REMARK   10  A    between atoms: N_10  and  C_11
REMARK   11  A    between atoms: C_14  and  C_15
REMARK                            x       y       z     vdW  Elec       q    Type
REMARK                         _______ _______ _______ _____ _____    ______ ____
ROOT
ATOM      1  C   UNL     1       4.716   5.418  17.556  0.00  0.00    +0.000 C 
ENDROOT
BRANCH   1   2
ATOM      2  C   UNL     1       5.314   5.209  16.177  0.00  0.00    +0.000 A 
ATOM      3  C   UNL     1       4.874   4.285  15.297  0.00  0.00    +0.000 A 
ATOM      4  C   UNL     1       5.558   4.085  14.013  0.00  0.00    +0.000 A 
ATOM      5  C   UNL     1       4.996   3.345  12.977  0.00  0.00    +0.000 A 
ATOM      6  C   UNL     1       5.709   3.160  11.790  0.00  0.00    +0.000 A 
ATOM      7  C   UNL     1       7.000   3.675  11.653  0.00  0.00    +0.000 A 
ATOM      8  C   UNL     1       7.567   4.420  12.683  0.00  0.00    +0.000 A 
ATOM      9  C   UNL     1       6.830   4.655  13.838  0.00  0.00    +0.000 A 
ATOM     10  N   UNL     1       7.295   5.565  14.792  0.00  0.00    +0.000 N 
ATOM     11  C   UNL     1       6.466   6.066  15.752  0.00  0.00    +0.000 A 
ATOM     12  O   UNL     1       6.637   7.199  16.198  0.00  0.00    +0.000 OA
ATOM     13  H   UNL     1       8.119   6.114  14.582  0.00  0.00    +0.000 HD
ENDBRANCH   1   2
BRANCH   1  14
ATOM     14  P   UNL     1       5.906   5.228  18.934  0.00  0.00    +0.000 P 
ATOM     15  O   UNL     1       6.719   4.230  18.069  0.00  0.00    +0.000 OA
BRANCH  14  16
ATOM     16  O   UNL     1       7.030   5.049  20.237  0.00  0.00    +0.000 OA
BRANCH  16  18
ATOM     17  C   UNL     1       8.128   6.710  18.904  0.00  0.00    +0.000 C 
ATOM     18  C   UNL     1       8.283   5.674  19.998  0.00  0.00    +0.000 C 
ENDBRANCH  16  18
ENDBRANCH  14  16
BRANCH  14  19
ATOM     19  O   UNL     1       4.823   4.288  19.812  0.00  0.00    +0.000 OA
BRANCH  19  20
ATOM     20  C   UNL     1       4.036   3.362  19.063  0.00  0.00    +0.000 C 
ATOM     21  C   UNL     1       4.072   1.971  19.672  0.00  0.00    +0.000 C 
ENDBRANCH  19  20
ENDBRANCH  14  19
ENDBRANCH   1  14
BRANCH   1  22
ATOM     22  N   UNL     1       4.046   6.750  17.619  0.00  0.00    +0.000 N 
ATOM     23  H   UNL     1       4.641   7.495  17.268  0.00  0.00    +0.000 HD
BRANCH  22  24
ATOM     24  C   UNL     1       3.081   7.190  18.511  0.00  0.00    +0.000 A 
ATOM     25  C   UNL     1       2.629   6.486  19.627  0.00  0.00    +0.000 A 
ATOM     26  C   UNL     1       1.676   7.036  20.504  0.00  0.00    +0.000 A 
ATOM     27  C   UNL     1       1.118   8.296  20.268  0.00  0.00    +0.000 A 
ATOM     28  C   UNL     1       1.482   8.963  19.096  0.00  0.00    +0.000 A 
ATOM     29  C   UNL     1       2.437   8.407  18.233  0.00  0.00    +0.000 A 
BRANCH  27  30
ATOM     30  C   UNL     1       0.175   8.949  21.251  0.00  0.00    +0.000 C 
ATOM     31  F   UNL     1       0.802   9.463  22.347  0.00  0.00    +0.000 F 
ATOM     32  F   UNL     1      -0.508   9.987  20.693  0.00  0.00    +0.000 F 
ATOM     33  F   UNL     1      -0.768   8.090  21.726  0.00  0.00    +0.000 F 
ENDBRANCH  27  30
ENDBRANCH  22  24
ENDBRANCH   1  22
TORSDOF 9
ENDMDL
MODEL 9
REMARK VINA RESULT:      -7.6      1.047      2.132
REMARK  Name = 
REMARK  11 active torsions:
REMARK  status: ('A' for Active; 'I' for Inactive)
REMARK    1  A    between atoms: C_1  and  C_2
REMARK    2  A    between atoms: C_2  and  O_3
REMARK    3  A    between atoms: O_3  and  P_4
REMARK    4  A    between atoms: P_4  and  O_6
REMARK    5  A    between atoms: P_4  and  C_9
REMARK    6  A    between atoms: O_6  and  C_7
REMARK    7  A    between atoms: C_7  and  C_8
REMARK    8  A    between atoms: C_9  and  N_10
REMARK    9  A    between atoms: C_9  and  C_21
REMARK   10  A    between atoms: N_10  and  C_11
REMARK   11  A    between atoms: C_14  and  C_15
REMARK                            x       y       z     vdW  Elec       q    Type
REMARK                         _______ _______ _______ _____ _____    ______ ____
ROOT
ATOM      1  C   UNL     1       4.052   5.286  17.794  0.00  0.00    +0.000 C 
ENDROOT
BRANCH   1   2
ATOM      2  C   UNL     1       4.877   5.221  16.521  0.00  0.00    +0.000 A 
ATOM      3  C   UNL     1       4.629   4.368  15.505  0.00  0.00    +0.000 A 
ATOM      4  C   UNL     1       5.523   4.305  14.342  0.00  0.00    +0.000 A 
ATOM      5  C   UNL     1       5.171   3.644  13.168  0.00  0.00    +0.000 A 
ATOM      6  C   UNL     1       6.077   3.590  12.105  0.00  0.00    +0.000 A 
ATOM      7  C   UNL     1       7.349   4.154  12.230  0.00  0.00    +0.000 A 
ATOM      8  C   UNL     1       7.705   4.820  13.399  0.00  0.00    +0.000 A 
ATOM      9  C   UNL     1       6.779   4.927  14.430  0.00  0.00    +0.000 A 
ATOM     10  N   UNL     1       7.040   5.761  15.522  0.00  0.00    +0.000 N 
ATOM     11  C   UNL     1       6.042   6.147  16.368  0.00  0.00    +0.000 A 
ATOM     12  O   UNL     1       6.087   7.241  16.930  0.00  0.00    +0.000 OA
ATOM     13  H   UNL     1       7.862   6.352  15.499  0.00  0.00    +0.000 HD
ENDBRANCH   1   2
BRANCH   1  14
ATOM     14  P   UNL     1       4.558   4.093  19.086  0.00  0.00    +0.000 P 
ATOM     15  O   UNL     1       4.095   2.931  18.168  0.00  0.00    +0.000 OA
BRANCH  14  16
ATOM     16  O   UNL     1       5.037   2.966  20.308  0.00  0.00    +0.000 OA
BRANCH  16  18
ATOM     17  C   UNL     1       5.359   0.694  20.999  0.00  0.00    +0.000 C 
ATOM     18  C   UNL     1       4.673   1.623  20.019  0.00  0.00    +0.000 C 
ENDBRANCH  16  18
ENDBRANCH  14  16
BRANCH  14  19
ATOM     19  O   UNL     1       3.225   4.475  20.038  0.00  0.00    +0.000 OA
BRANCH  19  20
ATOM     20  C   UNL     1       1.968   3.958  19.603  0.00  0.00    +0.000 C 
ATOM     21  C   UNL     1       1.290   3.140  20.687  0.00  0.00    +0.000 C 
ENDBRANCH  19  20
ENDBRANCH  14  19
ENDBRANCH   1  14
BRANCH   1  22
ATOM     22  N   UNL     1       4.062   6.679  18.330  0.00  0.00    +0.000 N 
ATOM     23  H   UNL     1       4.867   6.855  18.924  0.00  0.00    +0.000 HD
BRANCH  22  24
ATOM     24  C   UNL     1       2.984   7.506  18.603  0.00  0.00    +0.000 A 
ATOM     25  C   UNL     1       2.274   7.541  19.803  0.00  0.00    +0.000 A 
ATOM     26  C   UNL     1       1.219   8.450  20.004  0.00  0.00    +0.000 A 
ATOM     27  C   UNL     1       0.818   9.328  18.993  0.00  0.00    +0.000 A 
ATOM     28  C   UNL     1       1.449   9.227  17.752  0.00  0.00    +0.000 A 
ATOM     29  C   UNL     1       2.503   8.321  17.565  0.00  0.00    +0.000 A 
BRANCH  27  30
ATOM     30  C   UNL     1      -0.240  10.383  19.223  0.00  0.00    +0.000 C 
ATOM     31  F   UNL     1      -0.380  10.735  20.533  0.00  0.00    +0.000 F 
ATOM     32  F   UNL     1       0.036  11.537  18.555  0.00  0.00    +0.000 F 
ATOM     33  F   UNL     1      -1.474   9.990  18.805  0.00  0.00    +0.000 F 
ENDBRANCH  27  30
ENDBRANCH  22  24
ENDBRANCH   1  22
TORSDOF 9
ENDMDL
