MODEL 1
REMARK VINA RESULT:      -7.9      0.000      0.000
REMARK  Name = 
REMARK  8 active torsions:
REMARK  status: ('A' for Active; 'I' for Inactive)
REMARK    1  A    between atoms: C_1  and  C_2
REMARK    2  A    between atoms: C_6  and  C_7
REMARK    3  A    between atoms: C_13  and  C_14
REMARK    4  A    between atoms: C_14  and  C_16
REMARK    5  A    between atoms: C_20  and  O_21
REMARK    6  A    between atoms: O_21  and  C_22
REMARK    7  A    between atoms: C_22  and  C_23
REMARK    8  A    between atoms: C_22  and  C_24
REMARK                            x       y       z     vdW  Elec       q    Type
REMARK                         _______ _______ _______ _____ _____    ______ ____
ROOT
ATOM      1  C   UNL     1       6.055   4.890  17.096  0.00  0.00    +0.000 C 
ATOM      2  O   UNL     1       6.378   4.234  16.104  0.00  0.00    +0.000 OA
ATOM      3  N   UNL     1       4.918   4.546  17.844  0.00  0.00    +0.000 N 
ATOM      4  C   UNL     1       4.259   3.264  17.618  0.00  0.00    +0.000 C 
ATOM      5  C   UNL     1       2.790   3.468  17.257  0.00  0.00    +0.000 C 
ATOM      6  C   UNL     1       2.073   4.325  18.306  0.00  0.00    +0.000 C 
ATOM      7  C   UNL     1       2.803   5.657  18.507  0.00  0.00    +0.000 C 
ATOM      8  C   UNL     1       4.277   5.401  18.850  0.00  0.00    +0.000 C 
ENDROOT
BRANCH   1  14
ATOM      9  C   UNL     1       8.035   5.406  19.689  0.00  0.00    +0.000 C 
ATOM     10  C   UNL     1       7.653   6.297  18.575  0.00  0.00    +0.000 A 
ATOM     11  N   UNL     1       8.183   7.569  18.475  0.00  0.00    +0.000 NA
ATOM     12  C   UNL     1       7.609   8.059  17.404  0.00  0.00    +0.000 A 
ATOM     13  O   UNL     1       6.734   7.226  16.787  0.00  0.00    +0.000 OA
ATOM     14  C   UNL     1       6.813   6.054  17.503  0.00  0.00    +0.000 A 
ENDBRANCH   1  14
BRANCH   7  15
ATOM     15  C   UNL     1       2.207   6.514  19.624  0.00  0.00    +0.000 C 
ATOM     16  O   UNL     1       2.055   6.089  20.768  0.00  0.00    +0.000 OA
BRANCH  15  17
ATOM     17  C   UNL     1       1.857   7.932  19.339  0.00  0.00    +0.000 A 
ATOM     18  C   UNL     1       2.215   8.491  18.107  0.00  0.00    +0.000 A 
ATOM     19  C   UNL     1       1.895   9.821  17.828  0.00  0.00    +0.000 A 
ATOM     20  C   UNL     1       1.222  10.590  18.780  0.00  0.00    +0.000 A 
ATOM     21  C   UNL     1       0.854  10.033  20.006  0.00  0.00    +0.000 A 
ATOM     22  C   UNL     1       1.193   8.712  20.287  0.00  0.00    +0.000 A 
BRANCH  21  23
ATOM     23  O   UNL     1       0.220  10.867  20.883  0.00  0.00    +0.000 OA
BRANCH  23  24
ATOM     24  C   UNL     1      -0.154  12.167  20.400  0.00  0.00    +0.000 C 
ATOM     25  C   UNL     1      -1.673  12.300  20.434  0.00  0.00    +0.000 C 
ATOM     26  C   UNL     1       0.501  13.191  21.318  0.00  0.00    +0.000 C 
ENDBRANCH  23  24
ENDBRANCH  21  23
ENDBRANCH  15  17
ENDBRANCH   7  15
TORSDOF 5
ENDMDL
MODEL 2
REMARK VINA RESULT:      -7.6      1.255      1.710
REMARK  Name = 
REMARK  8 active torsions:
REMARK  status: ('A' for Active; 'I' for Inactive)
REMARK    1  A    between atoms: C_1  and  C_2
REMARK    2  A    between atoms: C_6  and  C_7
REMARK    3  A    between atoms: C_13  and  C_14
REMARK    4  A    between atoms: C_14  and  C_16
REMARK    5  A    between atoms: C_20  and  O_21
REMARK    6  A    between atoms: O_21  and  C_22
REMARK    7  A    between atoms: C_22  and  C_23
REMARK    8  A    between atoms: C_22  and  C_24
REMARK                            x       y       z     vdW  Elec       q    Type
REMARK                         _______ _______ _______ _____ _____    ______ ____
ROOT
ATOM      1  C   UNL     1       5.197   4.089  17.283  0.00  0.00    +0.000 C 
ATOM      2  O   UNL     1       5.329   3.241  16.397  0.00  0.00    +0.000 OA
ATOM      3  N   UNL     1       4.203   3.952  18.263  0.00  0.00    +0.000 N 
ATOM      4  C   UNL     1       3.489   2.686  18.404  0.00  0.00    +0.000 C 
ATOM      5  C   UNL     1       1.984   2.896  18.262  0.00  0.00    +0.000 C 
ATOM      6  C   UNL     1       1.479   3.971  19.230  0.00  0.00    +0.000 C 
ATOM      7  C   UNL     1       2.258   5.277  19.043  0.00  0.00    +0.000 C 
ATOM      8  C   UNL     1       3.763   5.013  19.176  0.00  0.00    +0.000 C 
ENDROOT
BRANCH   1  14
ATOM      9  C   UNL     1       5.013   6.955  15.651  0.00  0.00    +0.000 C 
ATOM     10  C   UNL     1       5.982   6.479  16.660  0.00  0.00    +0.000 A 
ATOM     11  N   UNL     1       7.001   7.300  17.100  0.00  0.00    +0.000 NA
ATOM     12  C   UNL     1       7.658   6.549  17.950  0.00  0.00    +0.000 A 
ATOM     13  O   UNL     1       7.169   5.294  18.104  0.00  0.00    +0.000 OA
ATOM     14  C   UNL     1       6.038   5.266  17.323  0.00  0.00    +0.000 A 
ENDBRANCH   1  14
BRANCH   7  15
ATOM     15  C   UNL     1       1.883   6.359  20.056  0.00  0.00    +0.000 C 
ATOM     16  O   UNL     1       1.762   6.121  21.257  0.00  0.00    +0.000 OA
BRANCH  15  17
ATOM     17  C   UNL     1       1.720   7.762  19.588  0.00  0.00    +0.000 A 
ATOM     18  C   UNL     1       2.122   8.102  18.292  0.00  0.00    +0.000 A 
ATOM     19  C   UNL     1       1.978   9.416  17.841  0.00  0.00    +0.000 A 
ATOM     20  C   UNL     1       1.436  10.386  18.688  0.00  0.00    +0.000 A 
ATOM     21  C   UNL     1       1.024  10.049  19.978  0.00  0.00    +0.000 A 
ATOM     22  C   UNL     1       1.189   8.742  20.428  0.00  0.00    +0.000 A 
BRANCH  21  23
ATOM     23  O   UNL     1       0.528  11.068  20.740  0.00  0.00    +0.000 OA
BRANCH  23  24
ATOM     24  C   UNL     1      -0.815  10.931  21.229  0.00  0.00    +0.000 C 
ATOM     25  C   UNL     1      -0.805  10.983  22.752  0.00  0.00    +0.000 C 
ATOM     26  C   UNL     1      -1.622  12.086  20.652  0.00  0.00    +0.000 C 
ENDBRANCH  23  24
ENDBRANCH  21  23
ENDBRANCH  15  17
ENDBRANCH   7  15
TORSDOF 5
ENDMDL
MODEL 3
REMARK VINA RESULT:      -7.5      2.348      4.428
REMARK  Name = 
REMARK  8 active torsions:
REMARK  status: ('A' for Active; 'I' for Inactive)
REMARK    1  A    between atoms: C_1  and  C_2
REMARK    2  A    between atoms: C_6  and  C_7
REMARK    3  A    between atoms: C_13  and  C_14
REMARK    4  A    between atoms: C_14  and  C_16
REMARK    5  A    between atoms: C_20  and  O_21
REMARK    6  A    between atoms: O_21  and  C_22
REMARK    7  A    between atoms: C_22  and  C_23
REMARK    8  A    between atoms: C_22  and  C_24
REMARK                            x       y       z     vdW  Elec       q    Type
REMARK                         _______ _______ _______ _____ _____    ______ ____
ROOT
ATOM      1  C   UNL     1       4.034   2.985  18.957  0.00  0.00    +0.000 C 
ATOM      2  O   UNL     1       4.876   2.237  19.458  0.00  0.00    +0.000 OA
ATOM      3  N   UNL     1       4.426   4.089  18.183  0.00  0.00    +0.000 N 
ATOM      4  C   UNL     1       5.812   4.214  17.744  0.00  0.00    +0.000 C 
ATOM      5  C   UNL     1       6.410   5.536  18.215  0.00  0.00    +0.000 C 
ATOM      6  C   UNL     1       5.544   6.724  17.785  0.00  0.00    +0.000 C 
ATOM      7  C   UNL     1       4.101   6.545  18.268  0.00  0.00    +0.000 C 
ATOM      8  C   UNL     1       3.550   5.197  17.786  0.00  0.00    +0.000 C 
ENDROOT
BRANCH   1  14
ATOM      9  C   UNL     1       2.108   3.649  21.557  0.00  0.00    +0.000 C 
ATOM     10  C   UNL     1       1.786   3.047  20.247  0.00  0.00    +0.000 A 
ATOM     11  N   UNL     1       0.488   2.699  19.930  0.00  0.00    +0.000 NA
ATOM     12  C   UNL     1       0.590   2.184  18.729  0.00  0.00    +0.000 A 
ATOM     13  O   UNL     1       1.848   2.149  18.224  0.00  0.00    +0.000 OA
ATOM     14  C   UNL     1       2.619   2.774  19.177  0.00  0.00    +0.000 A 
ENDBRANCH   1  14
BRANCH   7  15
ATOM     15  C   UNL     1       3.154   7.639  17.774  0.00  0.00    +0.000 C 
ATOM     16  O   UNL     1       3.118   7.994  16.597  0.00  0.00    +0.000 OA
BRANCH  15  17
ATOM     17  C   UNL     1       2.197   8.253  18.733  0.00  0.00    +0.000 A 
ATOM     18  C   UNL     1       2.011   7.663  19.988  0.00  0.00    +0.000 A 
ATOM     19  C   UNL     1       1.113   8.227  20.896  0.00  0.00    +0.000 A 
ATOM     20  C   UNL     1       0.401   9.377  20.547  0.00  0.00    +0.000 A 
ATOM     21  C   UNL     1       0.590   9.975  19.300  0.00  0.00    +0.000 A 
ATOM     22  C   UNL     1       1.472   9.397  18.392  0.00  0.00    +0.000 A 
BRANCH  21  23
ATOM     23  O   UNL     1      -0.166  11.082  19.040  0.00  0.00    +0.000 OA
BRANCH  23  24
ATOM     24  C   UNL     1      -1.589  10.904  18.968  0.00  0.00    +0.000 C 
ATOM     25  C   UNL     1      -2.278  12.233  19.260  0.00  0.00    +0.000 C 
ATOM     26  C   UNL     1      -1.910  10.424  17.559  0.00  0.00    +0.000 C 
ENDBRANCH  23  24
ENDBRANCH  21  23
ENDBRANCH  15  17
ENDBRANCH   7  15
TORSDOF 5
ENDMDL
MODEL 4
REMARK VINA RESULT:      -7.4      1.228      1.332
REMARK  Name = 
REMARK  8 active torsions:
REMARK  status: ('A' for Active; 'I' for Inactive)
REMARK    1  A    between atoms: C_1  and  C_2
REMARK    2  A    between atoms: C_6  and  C_7
REMARK    3  A    between atoms: C_13  and  C_14
REMARK    4  A    between atoms: C_14  and  C_16
REMARK    5  A    between atoms: C_20  and  O_21
REMARK    6  A    between atoms: O_21  and  C_22
REMARK    7  A    between atoms: C_22  and  C_23
REMARK    8  A    between atoms: C_22  and  C_24
REMARK                            x       y       z     vdW  Elec       q    Type
REMARK                         _______ _______ _______ _____ _____    ______ ____
ROOT
ATOM      1  C   UNL     1       6.768   5.675  16.666  0.00  0.00    +0.000 C 
ATOM      2  O   UNL     1       7.194   5.288  15.576  0.00  0.00    +0.000 OA
ATOM      3  N   UNL     1       5.641   5.075  17.249  0.00  0.00    +0.000 N 
ATOM      4  C   UNL     1       5.122   3.822  16.708  0.00  0.00    +0.000 C 
ATOM      5  C   UNL     1       3.657   3.972  16.311  0.00  0.00    +0.000 C 
ATOM      6  C   UNL     1       2.816   4.507  17.474  0.00  0.00    +0.000 C 
ATOM      7  C   UNL     1       3.401   5.820  18.006  0.00  0.00    +0.000 C 
ATOM      8  C   UNL     1       4.877   5.624  18.375  0.00  0.00    +0.000 C 
ENDROOT
BRANCH   1  14
ATOM      9  C   UNL     1       8.262   5.836  19.607  0.00  0.00    +0.000 C 
ATOM     10  C   UNL     1       8.027   6.877  18.587  0.00  0.00    +0.000 A 
ATOM     11  N   UNL     1       8.502   8.161  18.767  0.00  0.00    +0.000 NA
ATOM     12  C   UNL     1       8.091   8.796  17.697  0.00  0.00    +0.000 A 
ATOM     13  O   UNL     1       7.372   8.047  16.824  0.00  0.00    +0.000 OA
ATOM     14  C   UNL     1       7.389   6.781  17.363  0.00  0.00    +0.000 A 
ENDBRANCH   1  14
BRANCH   7  15
ATOM     15  C   UNL     1       2.677   6.350  19.244  0.00  0.00    +0.000 C 
ATOM     16  O   UNL     1       2.627   5.717  20.297  0.00  0.00    +0.000 OA
BRANCH  15  17
ATOM     17  C   UNL     1       2.067   7.706  19.199  0.00  0.00    +0.000 A 
ATOM     18  C   UNL     1       2.458   8.599  18.196  0.00  0.00    +0.000 A 
ATOM     19  C   UNL     1       1.895   9.876  18.143  0.00  0.00    +0.000 A 
ATOM     20  C   UNL     1       0.945  10.258  19.095  0.00  0.00    +0.000 A 
ATOM     21  C   UNL     1       0.545   9.366  20.091  0.00  0.00    +0.000 A 
ATOM     22  C   UNL     1       1.124   8.101  20.150  0.00  0.00    +0.000 A 
BRANCH  21  23
ATOM     23  O   UNL     1      -0.371   9.835  20.989  0.00  0.00    +0.000 OA
BRANCH  23  24
ATOM     24  C   UNL     1       0.131  10.569  22.117  0.00  0.00    +0.000 C 
ATOM     25  C   UNL     1      -0.730  11.809  22.335  0.00  0.00    +0.000 C 
ATOM     26  C   UNL     1       0.062   9.641  23.323  0.00  0.00    +0.000 C 
ENDBRANCH  23  24
ENDBRANCH  21  23
ENDBRANCH  15  17
ENDBRANCH   7  15
TORSDOF 5
ENDMDL
MODEL 5
REMARK VINA RESULT:      -7.3      2.170      3.061
REMARK  Name = 
REMARK  8 active torsions:
REMARK  status: ('A' for Active; 'I' for Inactive)
REMARK    1  A    between atoms: C_1  and  C_2
REMARK    2  A    between atoms: C_6  and  C_7
REMARK    3  A    between atoms: C_13  and  C_14
REMARK    4  A    between atoms: C_14  and  C_16
REMARK    5  A    between atoms: C_20  and  O_21
REMARK    6  A    between atoms: O_21  and  C_22
REMARK    7  A    between atoms: C_22  and  C_23
REMARK    8  A    between atoms: C_22  and  C_24
REMARK                            x       y       z     vdW  Elec       q    Type
REMARK                         _______ _______ _______ _____ _____    ______ ____
ROOT
ATOM      1  C   UNL     1       4.534   3.503  17.462  0.00  0.00    +0.000 C 
ATOM      2  O   UNL     1       4.265   2.300  17.469  0.00  0.00    +0.000 OA
ATOM      3  N   UNL     1       3.937   4.376  18.385  0.00  0.00    +0.000 N 
ATOM      4  C   UNL     1       3.201   3.838  19.525  0.00  0.00    +0.000 C 
ATOM      5  C   UNL     1       1.769   4.366  19.540  0.00  0.00    +0.000 C 
ATOM      6  C   UNL     1       1.740   5.897  19.486  0.00  0.00    +0.000 C 
ATOM      7  C   UNL     1       2.525   6.411  18.275  0.00  0.00    +0.000 C 
ATOM      8  C   UNL     1       3.949   5.841  18.294  0.00  0.00    +0.000 C 
ENDROOT
BRANCH   1  14
ATOM      9  C   UNL     1       7.633   4.610  17.747  0.00  0.00    +0.000 C 
ATOM     10  C   UNL     1       6.743   4.525  16.571  0.00  0.00    +0.000 A 
ATOM     11  N   UNL     1       7.188   4.906  15.321  0.00  0.00    +0.000 NA
ATOM     12  C   UNL     1       6.144   4.721  14.550  0.00  0.00    +0.000 A 
ATOM     13  O   UNL     1       5.038   4.258  15.184  0.00  0.00    +0.000 OA
ATOM     14  C   UNL     1       5.443   4.061  16.484  0.00  0.00    +0.000 A 
ENDBRANCH   1  14
BRANCH   7  15
ATOM     15  C   UNL     1       2.634   7.935  18.224  0.00  0.00    +0.000 C 
ATOM     16  O   UNL     1       3.572   8.509  17.675  0.00  0.00    +0.000 OA
BRANCH  15  17
ATOM     17  C   UNL     1       1.536   8.758  18.801  0.00  0.00    +0.000 A 
ATOM     18  C   UNL     1       1.407   8.849  20.191  0.00  0.00    +0.000 A 
ATOM     19  C   UNL     1       0.379   9.615  20.745  0.00  0.00    +0.000 A 
ATOM     20  C   UNL     1      -0.518  10.285  19.910  0.00  0.00    +0.000 A 
ATOM     21  C   UNL     1      -0.386  10.204  18.523  0.00  0.00    +0.000 A 
ATOM     22  C   UNL     1       0.628   9.424  17.976  0.00  0.00    +0.000 A 
BRANCH  21  23
ATOM     23  O   UNL     1      -1.323  10.874  17.787  0.00  0.00    +0.000 OA
BRANCH  23  24
ATOM     24  C   UNL     1      -2.672  10.384  17.838  0.00  0.00    +0.000 C 
ATOM     25  C   UNL     1      -3.597  11.503  18.305  0.00  0.00    +0.000 C 
ATOM     26  C   UNL     1      -3.037   9.930  16.431  0.00  0.00    +0.000 C 
ENDBRANCH  23  24
ENDBRANCH  21  23
ENDBRANCH  15  17
ENDBRANCH   7  15
TORSDOF 5
ENDMDL
MODEL 6
REMARK VINA RESULT:      -7.3      2.096      2.783
REMARK  Name = 
REMARK  8 active torsions:
REMARK  status: ('A' for Active; 'I' for Inactive)
REMARK    1  A    between atoms: C_1  and  C_2
REMARK    2  A    between atoms: C_6  and  C_7
REMARK    3  A    between atoms: C_13  and  C_14
REMARK    4  A    between atoms: C_14  and  C_16
REMARK    5  A    between atoms: C_20  and  O_21
REMARK    6  A    between atoms: O_21  and  C_22
REMARK    7  A    between atoms: C_22  and  C_23
REMARK    8  A    between atoms: C_22  and  C_24
REMARK                            x       y       z     vdW  Elec       q    Type
REMARK                         _______ _______ _______ _____ _____    ______ ____
ROOT
ATOM      1  C   UNL     1       4.444   3.813  18.106  0.00  0.00    +0.000 C 
ATOM      2  O   UNL     1       4.241   2.635  18.412  0.00  0.00    +0.000 OA
ATOM      3  N   UNL     1       3.907   4.855  18.876  0.00  0.00    +0.000 N 
ATOM      4  C   UNL     1       3.329   4.570  20.186  0.00  0.00    +0.000 C 
ATOM      5  C   UNL     1       1.882   5.049  20.254  0.00  0.00    +0.000 C 
ATOM      6  C   UNL     1       1.766   6.527  19.866  0.00  0.00    +0.000 C 
ATOM      7  C   UNL     1       2.386   6.775  18.487  0.00  0.00    +0.000 C 
ATOM      8  C   UNL     1       3.832   6.261  18.462  0.00  0.00    +0.000 C 
ENDROOT
BRANCH   1  14
ATOM      9  C   UNL     1       7.613   4.670  17.739  0.00  0.00    +0.000 C 
ATOM     10  C   UNL     1       6.534   4.513  16.742  0.00  0.00    +0.000 A 
ATOM     11  N   UNL     1       6.786   4.691  15.396  0.00  0.00    +0.000 NA
ATOM     12  C   UNL     1       5.618   4.501  14.835  0.00  0.00    +0.000 A 
ATOM     13  O   UNL     1       4.605   4.223  15.694  0.00  0.00    +0.000 OA
ATOM     14  C   UNL     1       5.210   4.158  16.928  0.00  0.00    +0.000 A 
ENDBRANCH   1  14
BRANCH   7  15
ATOM     15  C   UNL     1       2.409   8.250  18.086  0.00  0.00    +0.000 C 
ATOM     16  O   UNL     1       3.289   8.723  17.369  0.00  0.00    +0.000 OA
BRANCH  15  17
ATOM     17  C   UNL     1       1.294   9.134  18.523  0.00  0.00    +0.000 A 
ATOM     18  C   UNL     1       0.209   9.343  17.665  0.00  0.00    +0.000 A 
ATOM     19  C   UNL     1      -0.841  10.173  18.062  0.00  0.00    +0.000 A 
ATOM     20  C   UNL     1      -0.803  10.794  19.313  0.00  0.00    +0.000 A 
ATOM     21  C   UNL     1       0.272  10.580  20.176  0.00  0.00    +0.000 A 
ATOM     22  C   UNL     1       1.326   9.768  19.767  0.00  0.00    +0.000 A 
BRANCH  21  23
ATOM     23  O   UNL     1       0.233  11.247  21.367  0.00  0.00    +0.000 OA
BRANCH  23  24
ATOM     24  C   UNL     1      -0.878  10.977  22.236  0.00  0.00    +0.000 C 
ATOM     25  C   UNL     1      -0.492   9.880  23.221  0.00  0.00    +0.000 C 
ATOM     26  C   UNL     1      -1.201  12.274  22.967  0.00  0.00    +0.000 C 
ENDBRANCH  23  24
ENDBRANCH  21  23
ENDBRANCH  15  17
ENDBRANCH   7  15
TORSDOF 5
ENDMDL
MODEL 7
REMARK VINA RESULT:      -7.2      2.189      4.275
REMARK  Name = 
REMARK  8 active torsions:
REMARK  status: ('A' for Active; 'I' for Inactive)
REMARK    1  A    between atoms: C_1  and  C_2
REMARK    2  A    between atoms: C_6  and  C_7
REMARK    3  A    between atoms: C_13  and  C_14
REMARK    4  A    between atoms: C_14  and  C_16
REMARK    5  A    between atoms: C_20  and  O_21
REMARK    6  A    between atoms: O_21  and  C_22
REMARK    7  A    between atoms: C_22  and  C_23
REMARK    8  A    between atoms: C_22  and  C_24
REMARK                            x       y       z     vdW  Elec       q    Type
REMARK                         _______ _______ _______ _____ _____    ______ ____
ROOT
ATOM      1  C   UNL     1       4.089   3.208  18.844  0.00  0.00    +0.000 C 
ATOM      2  O   UNL     1       4.980   2.470  19.271  0.00  0.00    +0.000 OA
ATOM      3  N   UNL     1       4.402   4.330  18.062  0.00  0.00    +0.000 N 
ATOM      4  C   UNL     1       5.750   4.492  17.526  0.00  0.00    +0.000 C 
ATOM      5  C   UNL     1       6.354   5.820  17.974  0.00  0.00    +0.000 C 
ATOM      6  C   UNL     1       5.434   6.995  17.626  0.00  0.00    +0.000 C 
ATOM      7  C   UNL     1       4.034   6.778  18.209  0.00  0.00    +0.000 C 
ATOM      8  C   UNL     1       3.477   5.425  17.746  0.00  0.00    +0.000 C 
ENDROOT
BRANCH   1  14
ATOM      9  C   UNL     1       2.241   4.152  21.414  0.00  0.00    +0.000 C 
ATOM     10  C   UNL     1       1.898   3.350  20.222  0.00  0.00    +0.000 A 
ATOM     11  N   UNL     1       0.608   2.898  20.023  0.00  0.00    +0.000 NA
ATOM     12  C   UNL     1       0.688   2.218  18.905  0.00  0.00    +0.000 A 
ATOM     13  O   UNL     1       1.924   2.169  18.349  0.00  0.00    +0.000 OA
ATOM     14  C   UNL     1       2.699   2.963  19.162  0.00  0.00    +0.000 A 
ENDBRANCH   1  14
BRANCH   7  15
ATOM     15  C   UNL     1       3.032   7.859  17.802  0.00  0.00    +0.000 C 
ATOM     16  O   UNL     1       2.966   8.295  16.654  0.00  0.00    +0.000 OA
BRANCH  15  17
ATOM     17  C   UNL     1       2.057   8.357  18.810  0.00  0.00    +0.000 A 
ATOM     18  C   UNL     1       1.996   7.742  20.065  0.00  0.00    +0.000 A 
ATOM     19  C   UNL     1       1.083   8.197  21.019  0.00  0.00    +0.000 A 
ATOM     20  C   UNL     1       0.233   9.263  20.715  0.00  0.00    +0.000 A 
ATOM     21  C   UNL     1       0.298   9.886  19.468  0.00  0.00    +0.000 A 
ATOM     22  C   UNL     1       1.196   9.415  18.514  0.00  0.00    +0.000 A 
BRANCH  21  23
ATOM     23  O   UNL     1      -0.588  10.904  19.253  0.00  0.00    +0.000 OA
BRANCH  23  24
ATOM     24  C   UNL     1      -0.225  12.205  19.740  0.00  0.00    +0.000 C 
ATOM     25  C   UNL     1       0.436  12.996  18.617  0.00  0.00    +0.000 C 
ATOM     26  C   UNL     1      -1.507  12.885  20.201  0.00  0.00    +0.000 C 
ENDBRANCH  23  24
ENDBRANCH  21  23
ENDBRANCH  15  17
ENDBRANCH   7  15
TORSDOF 5
ENDMDL
MODEL 8
REMARK VINA RESULT:      -7.1      2.384      3.292
REMARK  Name = 
REMARK  8 active torsions:
REMARK  status: ('A' for Active; 'I' for Inactive)
REMARK    1  A    between atoms: C_1  and  C_2
REMARK    2  A    between atoms: C_6  and  C_7
REMARK    3  A    between atoms: C_13  and  C_14
REMARK    4  A    between atoms: C_14  and  C_16
REMARK    5  A    between atoms: C_20  and  O_21
REMARK    6  A    between atoms: O_21  and  C_22
REMARK    7  A    between atoms: C_22  and  C_23
REMARK    8  A    between atoms: C_22  and  C_24
REMARK                            x       y       z     vdW  Elec       q    Type
REMARK                         _______ _______ _______ _____ _____    ______ ____
ROOT
ATOM      1  C   UNL     1       4.698   3.728  19.139  0.00  0.00    +0.000 C 
ATOM      2  O   UNL     1       4.505   2.525  19.333  0.00  0.00    +0.000 OA
ATOM      3  N   UNL     1       3.826   4.689  19.674  0.00  0.00    +0.000 N 
ATOM      4  C   UNL     1       2.841   4.299  20.678  0.00  0.00    +0.000 C 
ATOM      5  C   UNL     1       1.431   4.659  20.219  0.00  0.00    +0.000 C 
ATOM      6  C   UNL     1       1.331   6.139  19.836  0.00  0.00    +0.000 C 
ATOM      7  C   UNL     1       2.384   6.498  18.782  0.00  0.00    +0.000 C 
ATOM      8  C   UNL     1       3.780   6.102  19.281  0.00  0.00    +0.000 C 
ENDROOT
BRANCH   1  14
ATOM      9  C   UNL     1       4.998   4.100  15.871  0.00  0.00    +0.000 C 
ATOM     10  C   UNL     1       5.958   4.360  16.963  0.00  0.00    +0.000 A 
ATOM     11  N   UNL     1       7.207   4.884  16.695  0.00  0.00    +0.000 NA
ATOM     12  C   UNL     1       7.774   4.952  17.875  0.00  0.00    +0.000 A 
ATOM     13  O   UNL     1       7.012   4.505  18.905  0.00  0.00    +0.000 OA
ATOM     14  C   UNL     1       5.805   4.187  18.327  0.00  0.00    +0.000 A 
ENDBRANCH   1  14
BRANCH   7  15
ATOM     15  C   UNL     1       2.417   7.987  18.438  0.00  0.00    +0.000 C 
ATOM     16  O   UNL     1       3.280   8.474  17.711  0.00  0.00    +0.000 OA
BRANCH  15  17
ATOM     17  C   UNL     1       1.333   8.870  18.947  0.00  0.00    +0.000 A 
ATOM     18  C   UNL     1       1.193   9.058  20.326  0.00  0.00    +0.000 A 
ATOM     19  C   UNL     1       0.178   9.882  20.817  0.00  0.00    +0.000 A 
ATOM     20  C   UNL     1      -0.697  10.512  19.928  0.00  0.00    +0.000 A 
ATOM     21  C   UNL     1      -0.555  10.335  18.551  0.00  0.00    +0.000 A 
ATOM     22  C   UNL     1       0.447   9.498  18.069  0.00  0.00    +0.000 A 
BRANCH  21  23
ATOM     23  O   UNL     1      -1.470  10.973  17.762  0.00  0.00    +0.000 OA
BRANCH  23  24
ATOM     24  C   UNL     1      -2.717  10.302  17.528  0.00  0.00    +0.000 C 
ATOM     25  C   UNL     1      -3.868  11.244  17.866  0.00  0.00    +0.000 C 
ATOM     26  C   UNL     1      -2.748   9.914  16.056  0.00  0.00    +0.000 C 
ENDBRANCH  23  24
ENDBRANCH  21  23
ENDBRANCH  15  17
ENDBRANCH   7  15
TORSDOF 5
ENDMDL
MODEL 9
REMARK VINA RESULT:      -7.1      2.054      2.949
REMARK  Name = 
REMARK  8 active torsions:
REMARK  status: ('A' for Active; 'I' for Inactive)
REMARK    1  A    between atoms: C_1  and  C_2
REMARK    2  A    between atoms: C_6  and  C_7
REMARK    3  A    between atoms: C_13  and  C_14
REMARK    4  A    between atoms: C_14  and  C_16
REMARK    5  A    between atoms: C_20  and  O_21
REMARK    6  A    between atoms: O_21  and  C_22
REMARK    7  A    between atoms: C_22  and  C_23
REMARK    8  A    between atoms: C_22  and  C_24
REMARK                            x       y       z     vdW  Elec       q    Type
REMARK                         _______ _______ _______ _____ _____    ______ ____
ROOT
ATOM      1  C   UNL     1       4.522   3.526  19.056  0.00  0.00    +0.000 C 
ATOM      2  O   UNL     1       4.335   2.307  19.085  0.00  0.00    +0.000 OA
ATOM      3  N   UNL     1       3.666   4.398  19.747  0.00  0.00    +0.000 N 
ATOM      4  C   UNL     1       2.712   3.866  20.715  0.00  0.00    +0.000 C 
ATOM      5  C   UNL     1       1.289   4.281  20.354  0.00  0.00    +0.000 C 
ATOM      6  C   UNL     1       1.177   5.800  20.186  0.00  0.00    +0.000 C 
ATOM      7  C   UNL     1       2.198   6.308  19.162  0.00  0.00    +0.000 C 
ATOM      8  C   UNL     1       3.608   5.852  19.558  0.00  0.00    +0.000 C 
ENDROOT
BRANCH   1  14
ATOM      9  C   UNL     1       4.794   4.169  15.828  0.00  0.00    +0.000 C 
ATOM     10  C   UNL     1       5.744   4.386  16.938  0.00  0.00    +0.000 A 
ATOM     11  N   UNL     1       6.966   4.989  16.714  0.00  0.00    +0.000 NA
ATOM     12  C   UNL     1       7.532   4.989  17.895  0.00  0.00    +0.000 A 
ATOM     13  O   UNL     1       6.796   4.427  18.886  0.00  0.00    +0.000 OA
ATOM     14  C   UNL     1       5.603   4.099  18.284  0.00  0.00    +0.000 A 
ENDBRANCH   1  14
BRANCH   7  15
ATOM     15  C   UNL     1       2.220   7.831  19.031  0.00  0.00    +0.000 C 
ATOM     16  O   UNL     1       2.859   8.405  18.150  0.00  0.00    +0.000 OA
BRANCH  15  17
ATOM     17  C   UNL     1       1.391   8.648  19.957  0.00  0.00    +0.000 A 
ATOM     18  C   UNL     1       1.398   8.352  21.324  0.00  0.00    +0.000 A 
ATOM     19  C   UNL     1       0.621   9.109  22.204  0.00  0.00    +0.000 A 
ATOM     20  C   UNL     1      -0.161  10.158  21.715  0.00  0.00    +0.000 A 
ATOM     21  C   UNL     1      -0.163  10.464  20.354  0.00  0.00    +0.000 A 
ATOM     22  C   UNL     1       0.598   9.693  19.479  0.00  0.00    +0.000 A 
BRANCH  21  23
ATOM     23  O   UNL     1      -0.976  11.491  19.966  0.00  0.00    +0.000 OA
BRANCH  23  24
ATOM     24  C   UNL     1      -1.091  11.743  18.557  0.00  0.00    +0.000 C 
ATOM     25  C   UNL     1      -2.543  11.559  18.129  0.00  0.00    +0.000 C 
ATOM     26  C   UNL     1      -0.631  13.175  18.318  0.00  0.00    +0.000 C 
ENDBRANCH  23  24
ENDBRANCH  21  23
ENDBRANCH  15  17
ENDBRANCH   7  15
TORSDOF 5
ENDMDL
