MODEL 1
REMARK VINA RESULT:      -8.0      0.000      0.000
REMARK  Name = 
REMARK  5 active torsions:
REMARK  status: ('A' for Active; 'I' for Inactive)
REMARK    1  A    between atoms: C_7  and  N_8
REMARK    2  A    between atoms: C_13  and  N_14
REMARK    3  A    between atoms: N_14  and  C_15
REMARK    4  A    between atoms: C_16  and  C_18
REMARK    5  A    between atoms: C_18  and  C_19
REMARK                            x       y       z     vdW  Elec       q    Type
REMARK                         _______ _______ _______ _____ _____    ______ ____
ROOT
ATOM      1  C   UNL     1      -2.966  10.008  15.378  0.00  0.00    +0.000 C 
ATOM      2  C   UNL     1      -2.881  10.678  16.528  0.00  0.00    +0.000 C 
ATOM      3  C   UNL     1      -1.770  11.493  17.057  0.00  0.00    +0.000 C 
ATOM      4  C   UNL     1      -1.950  11.286  18.562  0.00  0.00    +0.000 C 
ATOM      5  C   UNL     1      -1.694  12.547  19.379  0.00  0.00    +0.000 C 
ATOM      6  C   UNL     1      -0.248  12.991  19.302  0.00  0.00    +0.000 C 
ATOM      7  C   UNL     1       0.777  11.908  19.711  0.00  0.00    +0.000 C 
ATOM      8  C   UNL     1       0.436  10.493  19.071  0.00  0.00    +0.000 C 
ATOM      9  C   UNL     1      -1.075  10.160  19.131  0.00  0.00    +0.000 C 
ATOM     10  O   UNL     1      -3.344  10.965  18.748  0.00  0.00    +0.000 OA
ATOM     11  C   UNL     1      -3.933  10.629  17.569  0.00  0.00    +0.000 C 
ATOM     12  O   UNL     1      -5.106  10.357  17.409  0.00  0.00    +0.000 OA
ENDROOT
BRANCH   7  13
ATOM     13  N   UNL     1       2.179  12.359  19.486  0.00  0.00    +0.000 NA
ATOM     14  C   UNL     1       2.604  13.489  20.328  0.00  0.00    +0.000 C 
ATOM     15  C   UNL     1       2.422  14.757  19.504  0.00  0.00    +0.000 C 
ATOM     16  C   UNL     1       2.515  14.296  18.061  0.00  0.00    +0.000 C 
ATOM     17  C   UNL     1       2.509  12.769  18.111  0.00  0.00    +0.000 C 
ENDBRANCH   7  13
BRANCH   8  18
ATOM     18  N   UNL     1       1.262   9.362  19.596  0.00  0.00    +0.000 N 
ATOM     19  C   UNL     1       1.145   8.969  20.994  0.00  0.00    +0.000 C 
ATOM     20  C   UNL     1       2.104   8.676  18.716  0.00  0.00    +0.000 C 
ATOM     21  O   UNL     1       2.149   8.952  17.512  0.00  0.00    +0.000 OA
BRANCH  20  22
ATOM     22  C   UNL     1       2.980   7.545  19.263  0.00  0.00    +0.000 C 
BRANCH  22  23
ATOM     23  C   UNL     1       2.407   6.155  19.087  0.00  0.00    +0.000 A 
ATOM     24  C   UNL     1       2.048   5.664  17.824  0.00  0.00    +0.000 A 
ATOM     25  C   UNL     1       1.468   4.402  17.686  0.00  0.00    +0.000 A 
ATOM     26  C   UNL     1       1.217   3.614  18.810  0.00  0.00    +0.000 A 
ATOM     27 CL   UNL     1       0.485   2.069  18.567  0.00  0.00    +0.000 Cl
ATOM     28  C   UNL     1       1.551   4.096  20.080  0.00  0.00    +0.000 A 
ATOM     29 CL   UNL     1       1.256   3.187  21.521  0.00  0.00    +0.000 Cl
ATOM     30  C   UNL     1       2.137   5.361  20.215  0.00  0.00    +0.000 A 
ENDBRANCH  22  23
ENDBRANCH  20  22
ENDBRANCH   8  18
TORSDOF 4
ENDMDL
MODEL 2
REMARK VINA RESULT:      -7.9      1.549      1.941
REMARK  Name = 
REMARK  5 active torsions:
REMARK  status: ('A' for Active; 'I' for Inactive)
REMARK    1  A    between atoms: C_7  and  N_8
REMARK    2  A    between atoms: C_13  and  N_14
REMARK    3  A    between atoms: N_14  and  C_15
REMARK    4  A    between atoms: C_16  and  C_18
REMARK    5  A    between atoms: C_18  and  C_19
REMARK                            x       y       z     vdW  Elec       q    Type
REMARK                         _______ _______ _______ _____ _____    ______ ____
ROOT
ATOM      1  C   UNL     1      -3.167  10.286  15.496  0.00  0.00    +0.000 C 
ATOM      2  C   UNL     1      -3.039  11.020  16.602  0.00  0.00    +0.000 C 
ATOM      3  C   UNL     1      -1.868  11.766  17.100  0.00  0.00    +0.000 C 
ATOM      4  C   UNL     1      -2.085  11.674  18.611  0.00  0.00    +0.000 C 
ATOM      5  C   UNL     1      -1.730  12.959  19.351  0.00  0.00    +0.000 C 
ATOM      6  C   UNL     1      -0.250  13.268  19.274  0.00  0.00    +0.000 C 
ATOM      7  C   UNL     1       0.669  12.129  19.770  0.00  0.00    +0.000 C 
ATOM      8  C   UNL     1       0.214  10.710  19.216  0.00  0.00    +0.000 C 
ATOM      9  C   UNL     1      -1.322  10.515  19.268  0.00  0.00    +0.000 C 
ATOM     10  O   UNL     1      -3.505  11.489  18.791  0.00  0.00    +0.000 OA
ATOM     11  C   UNL     1      -4.105  11.130  17.625  0.00  0.00    +0.000 C 
ATOM     12  O   UNL     1      -5.296  10.953  17.459  0.00  0.00    +0.000 OA
ENDROOT
BRANCH   7  13
ATOM     13  N   UNL     1       2.109  12.440  19.544  0.00  0.00    +0.000 NA
ATOM     14  C   UNL     1       2.646  13.517  20.392  0.00  0.00    +0.000 C 
ATOM     15  C   UNL     1       2.589  14.802  19.575  0.00  0.00    +0.000 C 
ATOM     16  C   UNL     1       2.633  14.343  18.129  0.00  0.00    +0.000 C 
ATOM     17  C   UNL     1       2.476  12.823  18.171  0.00  0.00    +0.000 C 
ENDBRANCH   7  13
BRANCH   8  18
ATOM     18  N   UNL     1       0.930   9.548  19.827  0.00  0.00    +0.000 N 
ATOM     19  C   UNL     1       0.930   9.380  21.274  0.00  0.00    +0.000 C 
ATOM     20  C   UNL     1       1.551   8.621  18.987  0.00  0.00    +0.000 C 
ATOM     21  O   UNL     1       1.487   8.714  17.756  0.00  0.00    +0.000 OA
BRANCH  20  22
ATOM     22  C   UNL     1       2.318   7.454  19.615  0.00  0.00    +0.000 C 
BRANCH  22  23
ATOM     23  C   UNL     1       3.080   6.590  18.631  0.00  0.00    +0.000 A 
ATOM     24  C   UNL     1       4.121   7.111  17.851  0.00  0.00    +0.000 A 
ATOM     25  C   UNL     1       4.775   6.316  16.908  0.00  0.00    +0.000 A 
ATOM     26  C   UNL     1       4.387   4.990  16.714  0.00  0.00    +0.000 A 
ATOM     27 CL   UNL     1       5.231   4.068  15.521  0.00  0.00    +0.000 Cl
ATOM     28  C   UNL     1       3.338   4.459  17.470  0.00  0.00    +0.000 A 
ATOM     29 CL   UNL     1       2.789   2.831  17.276  0.00  0.00    +0.000 Cl
ATOM     30  C   UNL     1       2.687   5.258  18.419  0.00  0.00    +0.000 A 
ENDBRANCH  22  23
ENDBRANCH  20  22
ENDBRANCH   8  18
TORSDOF 4
ENDMDL
MODEL 3
REMARK VINA RESULT:      -7.9      2.061      2.304
REMARK  Name = 
REMARK  5 active torsions:
REMARK  status: ('A' for Active; 'I' for Inactive)
REMARK    1  A    between atoms: C_7  and  N_8
REMARK    2  A    between atoms: C_13  and  N_14
REMARK    3  A    between atoms: N_14  and  C_15
REMARK    4  A    between atoms: C_16  and  C_18
REMARK    5  A    between atoms: C_18  and  C_19
REMARK                            x       y       z     vdW  Elec       q    Type
REMARK                         _______ _______ _______ _____ _____    ______ ____
ROOT
ATOM      1  C   UNL     1      -3.109  10.330  15.356  0.00  0.00    +0.000 C 
ATOM      2  C   UNL     1      -2.995  11.038  16.481  0.00  0.00    +0.000 C 
ATOM      3  C   UNL     1      -1.824  11.752  17.023  0.00  0.00    +0.000 C 
ATOM      4  C   UNL     1      -2.081  11.632  18.526  0.00  0.00    +0.000 C 
ATOM      5  C   UNL     1      -1.722  12.894  19.303  0.00  0.00    +0.000 C 
ATOM      6  C   UNL     1      -0.235  13.178  19.269  0.00  0.00    +0.000 C 
ATOM      7  C   UNL     1       0.651  12.011  19.763  0.00  0.00    +0.000 C 
ATOM      8  C   UNL     1       0.185  10.614  19.166  0.00  0.00    +0.000 C 
ATOM      9  C   UNL     1      -1.355  10.446  19.176  0.00  0.00    +0.000 C 
ATOM     10  O   UNL     1      -3.508  11.469  18.667  0.00  0.00    +0.000 OA
ATOM     11  C   UNL     1      -4.085  11.145  17.479  0.00  0.00    +0.000 C 
ATOM     12  O   UNL     1      -5.274  10.993  17.280  0.00  0.00    +0.000 OA
ENDROOT
BRANCH   7  13
ATOM     13  N   UNL     1       2.101  12.302  19.579  0.00  0.00    +0.000 NA
ATOM     14  C   UNL     1       2.613  13.420  20.389  0.00  0.00    +0.000 C 
ATOM     15  C   UNL     1       2.599  14.658  19.503  0.00  0.00    +0.000 C 
ATOM     16  C   UNL     1       2.697  14.121  18.087  0.00  0.00    +0.000 C 
ATOM     17  C   UNL     1       2.526  12.607  18.204  0.00  0.00    +0.000 C 
ENDBRANCH   7  13
BRANCH   8  18
ATOM     18  N   UNL     1       0.864   9.426  19.770  0.00  0.00    +0.000 N 
ATOM     19  C   UNL     1       0.720   9.157  21.195  0.00  0.00    +0.000 C 
ATOM     20  C   UNL     1       1.594   8.571  18.939  0.00  0.00    +0.000 C 
ATOM     21  O   UNL     1       1.654   8.748  17.717  0.00  0.00    +0.000 OA
BRANCH  20  22
ATOM     22  C   UNL     1       2.322   7.378  19.564  0.00  0.00    +0.000 C 
BRANCH  22  23
ATOM     23  C   UNL     1       3.085   6.513  18.583  0.00  0.00    +0.000 A 
ATOM     24  C   UNL     1       2.566   5.297  18.120  0.00  0.00    +0.000 A 
ATOM     25  C   UNL     1       3.307   4.485  17.260  0.00  0.00    +0.000 A 
ATOM     26  C   UNL     1       4.589   4.864  16.861  0.00  0.00    +0.000 A 
ATOM     27 CL   UNL     1       5.454   3.804  15.807  0.00  0.00    +0.000 Cl
ATOM     28  C   UNL     1       5.131   6.065  17.329  0.00  0.00    +0.000 A 
ATOM     29 CL   UNL     1       6.718   6.595  16.895  0.00  0.00    +0.000 Cl
ATOM     30  C   UNL     1       4.383   6.880  18.189  0.00  0.00    +0.000 A 
ENDBRANCH  22  23
ENDBRANCH  20  22
ENDBRANCH   8  18
TORSDOF 4
ENDMDL
MODEL 4
REMARK VINA RESULT:      -7.8      1.208      1.535
REMARK  Name = 
REMARK  5 active torsions:
REMARK  status: ('A' for Active; 'I' for Inactive)
REMARK    1  A    between atoms: C_7  and  N_8
REMARK    2  A    between atoms: C_13  and  N_14
REMARK    3  A    between atoms: N_14  and  C_15
REMARK    4  A    between atoms: C_16  and  C_18
REMARK    5  A    between atoms: C_18  and  C_19
REMARK                            x       y       z     vdW  Elec       q    Type
REMARK                         _______ _______ _______ _____ _____    ______ ____
ROOT
ATOM      1  C   UNL     1      -3.225   9.940  15.638  0.00  0.00    +0.000 C 
ATOM      2  C   UNL     1      -3.096  10.806  16.643  0.00  0.00    +0.000 C 
ATOM      3  C   UNL     1      -1.905  11.555  17.087  0.00  0.00    +0.000 C 
ATOM      4  C   UNL     1      -2.179  11.674  18.587  0.00  0.00    +0.000 C 
ATOM      5  C   UNL     1      -1.783  13.027  19.168  0.00  0.00    +0.000 C 
ATOM      6  C   UNL     1      -0.287  13.253  19.111  0.00  0.00    +0.000 C 
ATOM      7  C   UNL     1       0.554  12.146  19.789  0.00  0.00    +0.000 C 
ATOM      8  C   UNL     1       0.044  10.690  19.405  0.00  0.00    +0.000 C 
ATOM      9  C   UNL     1      -1.500  10.577  19.420  0.00  0.00    +0.000 C 
ATOM     10  O   UNL     1      -3.611  11.582  18.731  0.00  0.00    +0.000 OA
ATOM     11  C   UNL     1      -4.190  11.101  17.598  0.00  0.00    +0.000 C 
ATOM     12  O   UNL     1      -5.382  10.960  17.408  0.00  0.00    +0.000 OA
ENDROOT
BRANCH   7  13
ATOM     13  N   UNL     1       2.015  12.357  19.583  0.00  0.00    +0.000 NA
ATOM     14  C   UNL     1       2.606  13.424  20.407  0.00  0.00    +0.000 C 
ATOM     15  C   UNL     1       2.647  14.682  19.549  0.00  0.00    +0.000 C 
ATOM     16  C   UNL     1       2.688  14.173  18.120  0.00  0.00    +0.000 C 
ATOM     17  C   UNL     1       2.432  12.669  18.207  0.00  0.00    +0.000 C 
ENDBRANCH   7  13
BRANCH   8  18
ATOM     18  N   UNL     1       0.677   9.587  20.191  0.00  0.00    +0.000 N 
ATOM     19  C   UNL     1       0.398   9.463  21.616  0.00  0.00    +0.000 C 
ATOM     20  C   UNL     1       1.493   8.667  19.528  0.00  0.00    +0.000 C 
ATOM     21  O   UNL     1       1.669   8.719  18.305  0.00  0.00    +0.000 OA
BRANCH  20  22
ATOM     22  C   UNL     1       2.173   7.562  20.341  0.00  0.00    +0.000 C 
BRANCH  22  23
ATOM     23  C   UNL     1       2.215   6.208  19.663  0.00  0.00    +0.000 A 
ATOM     24  C   UNL     1       1.435   5.136  20.117  0.00  0.00    +0.000 A 
ATOM     25  C   UNL     1       1.528   3.879  19.516  0.00  0.00    +0.000 A 
ATOM     26  C   UNL     1       2.417   3.665  18.463  0.00  0.00    +0.000 A 
ATOM     27 CL   UNL     1       2.491   2.082  17.776  0.00  0.00    +0.000 Cl
ATOM     28  C   UNL     1       3.218   4.718  18.010  0.00  0.00    +0.000 A 
ATOM     29 CL   UNL     1       4.356   4.528  16.722  0.00  0.00    +0.000 Cl
ATOM     30  C   UNL     1       3.119   5.980  18.612  0.00  0.00    +0.000 A 
ENDBRANCH  22  23
ENDBRANCH  20  22
ENDBRANCH   8  18
TORSDOF 4
ENDMDL
MODEL 5
REMARK VINA RESULT:      -7.5      4.400      8.991
REMARK  Name = 
REMARK  5 active torsions:
REMARK  status: ('A' for Active; 'I' for Inactive)
REMARK    1  A    between atoms: C_7  and  N_8
REMARK    2  A    between atoms: C_13  and  N_14
REMARK    3  A    between atoms: N_14  and  C_15
REMARK    4  A    between atoms: C_16  and  C_18
REMARK    5  A    between atoms: C_18  and  C_19
REMARK                            x       y       z     vdW  Elec       q    Type
REMARK                         _______ _______ _______ _____ _____    ______ ____
ROOT
ATOM      1  C   UNL     1       5.843   3.750  12.976  0.00  0.00    +0.000 C 
ATOM      2  C   UNL     1       6.351   4.161  14.138  0.00  0.00    +0.000 C 
ATOM      3  C   UNL     1       5.990   3.762  15.512  0.00  0.00    +0.000 C 
ATOM      4  C   UNL     1       6.295   5.050  16.278  0.00  0.00    +0.000 C 
ATOM      5  C   UNL     1       6.930   4.804  17.643  0.00  0.00    +0.000 C 
ATOM      6  C   UNL     1       5.982   4.102  18.592  0.00  0.00    +0.000 C 
ATOM      7  C   UNL     1       4.624   4.816  18.787  0.00  0.00    +0.000 C 
ATOM      8  C   UNL     1       4.007   5.311  17.408  0.00  0.00    +0.000 C 
ATOM      9  C   UNL     1       5.067   5.949  16.475  0.00  0.00    +0.000 C 
ATOM     10  O   UNL     1       7.289   5.744  15.495  0.00  0.00    +0.000 OA
ATOM     11  C   UNL     1       7.370   5.232  14.238  0.00  0.00    +0.000 C 
ATOM     12  O   UNL     1       8.148   5.581  13.373  0.00  0.00    +0.000 OA
ENDROOT
BRANCH   7  13
ATOM     13  N   UNL     1       3.689   4.010  19.621  0.00  0.00    +0.000 NA
ATOM     14  C   UNL     1       4.344   3.095  20.571  0.00  0.00    +0.000 C 
ATOM     15  C   UNL     1       4.397   1.725  19.909  0.00  0.00    +0.000 C 
ATOM     16  C   UNL     1       3.247   1.728  18.920  0.00  0.00    +0.000 C 
ATOM     17  C   UNL     1       2.733   3.168  18.885  0.00  0.00    +0.000 C 
ENDBRANCH   7  13
BRANCH   8  18
ATOM     18  N   UNL     1       2.807   6.191  17.548  0.00  0.00    +0.000 N 
ATOM     19  C   UNL     1       1.473   5.605  17.517  0.00  0.00    +0.000 C 
ATOM     20  C   UNL     1       2.994   7.561  17.748  0.00  0.00    +0.000 C 
ATOM     21  O   UNL     1       4.122   8.054  17.856  0.00  0.00    +0.000 OA
BRANCH  20  22
ATOM     22  C   UNL     1       1.764   8.468  17.851  0.00  0.00    +0.000 C 
BRANCH  22  23
ATOM     23  C   UNL     1       1.328   8.791  19.265  0.00  0.00    +0.000 A 
ATOM     24  C   UNL     1       1.698   7.984  20.349  0.00  0.00    +0.000 A 
ATOM     25  C   UNL     1       1.241   8.265  21.638  0.00  0.00    +0.000 A 
ATOM     26  C   UNL     1       0.388   9.346  21.864  0.00  0.00    +0.000 A 
ATOM     27 CL   UNL     1      -0.150   9.626  23.481  0.00  0.00    +0.000 Cl
ATOM     28  C   UNL     1      -0.007  10.150  20.791  0.00  0.00    +0.000 A 
ATOM     29 CL   UNL     1      -1.074  11.496  20.987  0.00  0.00    +0.000 Cl
ATOM     30  C   UNL     1       0.457   9.869  19.499  0.00  0.00    +0.000 A 
ENDBRANCH  22  23
ENDBRANCH  20  22
ENDBRANCH   8  18
TORSDOF 4
ENDMDL
MODEL 6
REMARK VINA RESULT:      -7.2      2.921      4.780
REMARK  Name = 
REMARK  5 active torsions:
REMARK  status: ('A' for Active; 'I' for Inactive)
REMARK    1  A    between atoms: C_7  and  N_8
REMARK    2  A    between atoms: C_13  and  N_14
REMARK    3  A    between atoms: N_14  and  C_15
REMARK    4  A    between atoms: C_16  and  C_18
REMARK    5  A    between atoms: C_18  and  C_19
REMARK                            x       y       z     vdW  Elec       q    Type
REMARK                         _______ _______ _______ _____ _____    ______ ____
ROOT
ATOM      1  C   UNL     1      -4.145  12.441  24.852  0.00  0.00    +0.000 C 
ATOM      2  C   UNL     1      -3.890  12.982  23.660  0.00  0.00    +0.000 C 
ATOM      3  C   UNL     1      -3.876  12.349  22.328  0.00  0.00    +0.000 C 
ATOM      4  C   UNL     1      -2.819  13.194  21.616  0.00  0.00    +0.000 C 
ATOM      5  C   UNL     1      -3.165  13.494  20.161  0.00  0.00    +0.000 C 
ATOM      6  C   UNL     1      -3.179  12.241  19.311  0.00  0.00    +0.000 C 
ATOM      7  C   UNL     1      -1.870  11.419  19.360  0.00  0.00    +0.000 C 
ATOM      8  C   UNL     1      -1.320  11.261  20.843  0.00  0.00    +0.000 C 
ATOM      9  C   UNL     1      -1.414  12.575  21.657  0.00  0.00    +0.000 C 
ATOM     10  O   UNL     1      -2.813  14.466  22.295  0.00  0.00    +0.000 OA
ATOM     11  C   UNL     1      -3.458  14.389  23.490  0.00  0.00    +0.000 C 
ATOM     12  O   UNL     1      -3.653  15.310  24.258  0.00  0.00    +0.000 OA
ENDROOT
BRANCH   7  13
ATOM     13  N   UNL     1      -1.994  10.135  18.613  0.00  0.00    +0.000 NA
ATOM     14  C   UNL     1      -1.185  10.057  17.385  0.00  0.00    +0.000 C 
ATOM     15  C   UNL     1      -2.096  10.430  16.224  0.00  0.00    +0.000 C 
ATOM     16  C   UNL     1      -3.495  10.092  16.705  0.00  0.00    +0.000 C 
ATOM     17  C   UNL     1      -3.355   9.766  18.192  0.00  0.00    +0.000 C 
ENDBRANCH   7  13
BRANCH   8  18
ATOM     18  N   UNL     1       0.047  10.662  20.935  0.00  0.00    +0.000 N 
ATOM     19  C   UNL     1       1.215  11.478  20.629  0.00  0.00    +0.000 C 
ATOM     20  C   UNL     1       0.177   9.336  21.356  0.00  0.00    +0.000 C 
ATOM     21  O   UNL     1      -0.803   8.663  21.694  0.00  0.00    +0.000 OA
BRANCH  20  22
ATOM     22  C   UNL     1       1.575   8.712  21.410  0.00  0.00    +0.000 C 
BRANCH  22  23
ATOM     23  C   UNL     1       1.797   7.565  20.447  0.00  0.00    +0.000 A 
ATOM     24  C   UNL     1       2.213   7.786  19.127  0.00  0.00    +0.000 A 
ATOM     25  C   UNL     1       2.359   6.722  18.236  0.00  0.00    +0.000 A 
ATOM     26  C   UNL     1       2.072   5.418  18.641  0.00  0.00    +0.000 A 
ATOM     27 CL   UNL     1       2.260   4.151  17.482  0.00  0.00    +0.000 Cl
ATOM     28  C   UNL     1       1.637   5.181  19.949  0.00  0.00    +0.000 A 
ATOM     29 CL   UNL     1       1.245   3.598  20.521  0.00  0.00    +0.000 Cl
ATOM     30  C   UNL     1       1.496   6.251  20.843  0.00  0.00    +0.000 A 
ENDBRANCH  22  23
ENDBRANCH  20  22
ENDBRANCH   8  18
TORSDOF 4
ENDMDL
MODEL 7
REMARK VINA RESULT:      -7.1      3.212      5.381
REMARK  Name = 
REMARK  5 active torsions:
REMARK  status: ('A' for Active; 'I' for Inactive)
REMARK    1  A    between atoms: C_7  and  N_8
REMARK    2  A    between atoms: C_13  and  N_14
REMARK    3  A    between atoms: N_14  and  C_15
REMARK    4  A    between atoms: C_16  and  C_18
REMARK    5  A    between atoms: C_18  and  C_19
REMARK                            x       y       z     vdW  Elec       q    Type
REMARK                         _______ _______ _______ _____ _____    ______ ____
ROOT
ATOM      1  C   UNL     1       4.625  14.838  19.499  0.00  0.00    +0.000 C 
ATOM      2  C   UNL     1       3.338  15.186  19.481  0.00  0.00    +0.000 C 
ATOM      3  C   UNL     1       2.312  15.034  20.531  0.00  0.00    +0.000 C 
ATOM      4  C   UNL     1       1.052  14.856  19.682  0.00  0.00    +0.000 C 
ATOM      5  C   UNL     1      -0.167  15.571  20.256  0.00  0.00    +0.000 C 
ATOM      6  C   UNL     1      -0.603  14.977  21.578  0.00  0.00    +0.000 C 
ATOM      7  C   UNL     1      -0.881  13.456  21.537  0.00  0.00    +0.000 C 
ATOM      8  C   UNL     1       0.247  12.665  20.745  0.00  0.00    +0.000 C 
ATOM      9  C   UNL     1       0.679  13.387  19.444  0.00  0.00    +0.000 C 
ATOM     10  O   UNL     1       1.336  15.499  18.423  0.00  0.00    +0.000 OA
ATOM     11  C   UNL     1       2.668  15.734  18.279  0.00  0.00    +0.000 C 
ATOM     12  O   UNL     1       3.197  16.304  17.345  0.00  0.00    +0.000 OA
ENDROOT
BRANCH   7  13
ATOM     13  N   UNL     1      -1.174  12.910  22.893  0.00  0.00    +0.000 NA
ATOM     14  C   UNL     1      -2.238  11.894  22.930  0.00  0.00    +0.000 C 
ATOM     15  C   UNL     1      -3.528  12.609  23.310  0.00  0.00    +0.000 C 
ATOM     16  C   UNL     1      -3.077  13.834  24.084  0.00  0.00    +0.000 C 
ATOM     17  C   UNL     1      -1.560  13.898  23.914  0.00  0.00    +0.000 C 
ENDBRANCH   7  13
BRANCH   8  18
ATOM     18  N   UNL     1      -0.071  11.227  20.487  0.00  0.00    +0.000 N 
ATOM     19  C   UNL     1      -1.071  10.876  19.487  0.00  0.00    +0.000 C 
ATOM     20  C   UNL     1       0.632  10.243  21.187  0.00  0.00    +0.000 C 
ATOM     21  O   UNL     1       1.538  10.532  21.978  0.00  0.00    +0.000 OA
BRANCH  20  22
ATOM     22  C   UNL     1       0.277   8.772  20.953  0.00  0.00    +0.000 C 
BRANCH  22  23
ATOM     23  C   UNL     1       1.281   8.000  20.124  0.00  0.00    +0.000 A 
ATOM     24  C   UNL     1       1.754   8.491  18.899  0.00  0.00    +0.000 A 
ATOM     25  C   UNL     1       2.636   7.740  18.121  0.00  0.00    +0.000 A 
ATOM     26  C   UNL     1       3.047   6.474  18.541  0.00  0.00    +0.000 A 
ATOM     27 CL   UNL     1       4.128   5.595  17.521  0.00  0.00    +0.000 Cl
ATOM     28  C   UNL     1       2.570   5.961  19.751  0.00  0.00    +0.000 A 
ATOM     29 CL   UNL     1       3.018   4.395  20.332  0.00  0.00    +0.000 Cl
ATOM     30  C   UNL     1       1.688   6.718  20.533  0.00  0.00    +0.000 A 
ENDBRANCH  22  23
ENDBRANCH  20  22
ENDBRANCH   8  18
TORSDOF 4
ENDMDL
MODEL 8
REMARK VINA RESULT:      -6.9      3.869      8.439
REMARK  Name = 
REMARK  5 active torsions:
REMARK  status: ('A' for Active; 'I' for Inactive)
REMARK    1  A    between atoms: C_7  and  N_8
REMARK    2  A    between atoms: C_13  and  N_14
REMARK    3  A    between atoms: N_14  and  C_15
REMARK    4  A    between atoms: C_16  and  C_18
REMARK    5  A    between atoms: C_18  and  C_19
REMARK                            x       y       z     vdW  Elec       q    Type
REMARK                         _______ _______ _______ _____ _____    ______ ____
ROOT
ATOM      1  C   UNL     1       5.130   6.195  14.693  0.00  0.00    +0.000 C 
ATOM      2  C   UNL     1       5.411   5.767  15.925  0.00  0.00    +0.000 C 
ATOM      3  C   UNL     1       4.552   5.048  16.885  0.00  0.00    +0.000 C 
ATOM      4  C   UNL     1       5.112   5.558  18.214  0.00  0.00    +0.000 C 
ATOM      5  C   UNL     1       5.188   4.480  19.290  0.00  0.00    +0.000 C 
ATOM      6  C   UNL     1       3.815   3.993  19.703  0.00  0.00    +0.000 C 
ATOM      7  C   UNL     1       2.854   5.110  20.173  0.00  0.00    +0.000 C 
ATOM      8  C   UNL     1       2.895   6.375  19.212  0.00  0.00    +0.000 C 
ATOM      9  C   UNL     1       4.336   6.752  18.785  0.00  0.00    +0.000 C 
ATOM     10  O   UNL     1       6.474   5.945  17.940  0.00  0.00    +0.000 OA
ATOM     11  C   UNL     1       6.697   6.053  16.603  0.00  0.00    +0.000 C 
ATOM     12  O   UNL     1       7.758   6.316  16.073  0.00  0.00    +0.000 OA
ENDROOT
BRANCH   7  13
ATOM     13  N   UNL     1       1.484   4.586  20.437  0.00  0.00    +0.000 NA
ATOM     14  C   UNL     1       1.430   3.440  21.359  0.00  0.00    +0.000 C 
ATOM     15  C   UNL     1       1.381   2.180  20.506  0.00  0.00    +0.000 C 
ATOM     16  C   UNL     1       0.776   2.628  19.189  0.00  0.00    +0.000 C 
ATOM     17  C   UNL     1       0.723   4.154  19.254  0.00  0.00    +0.000 C 
ENDBRANCH   7  13
BRANCH   8  18
ATOM     18  N   UNL     1       2.152   7.567  19.727  0.00  0.00    +0.000 N 
ATOM     19  C   UNL     1       1.792   7.640  21.137  0.00  0.00    +0.000 C 
ATOM     20  C   UNL     1       1.855   8.610  18.846  0.00  0.00    +0.000 C 
ATOM     21  O   UNL     1       2.229   8.591  17.667  0.00  0.00    +0.000 OA
BRANCH  20  22
ATOM     22  C   UNL     1       1.059   9.811  19.364  0.00  0.00    +0.000 C 
BRANCH  22  23
ATOM     23  C   UNL     1      -0.273  10.034  18.680  0.00  0.00    +0.000 A 
ATOM     24  C   UNL     1      -0.551   9.489  17.419  0.00  0.00    +0.000 A 
ATOM     25  C   UNL     1      -1.763   9.751  16.778  0.00  0.00    +0.000 A 
ATOM     26  C   UNL     1      -2.713  10.580  17.376  0.00  0.00    +0.000 A 
ATOM     27 CL   UNL     1      -4.183  10.873  16.520  0.00  0.00    +0.000 Cl
ATOM     28  C   UNL     1      -2.444  11.148  18.625  0.00  0.00    +0.000 A 
ATOM     29 CL   UNL     1      -3.562  12.198  19.423  0.00  0.00    +0.000 Cl
ATOM     30  C   UNL     1      -1.229  10.879  19.269  0.00  0.00    +0.000 A 
ENDBRANCH  22  23
ENDBRANCH  20  22
ENDBRANCH   8  18
TORSDOF 4
ENDMDL
MODEL 9
REMARK VINA RESULT:      -6.9      4.004      7.810
REMARK  Name = 
REMARK  5 active torsions:
REMARK  status: ('A' for Active; 'I' for Inactive)
REMARK    1  A    between atoms: C_7  and  N_8
REMARK    2  A    between atoms: C_13  and  N_14
REMARK    3  A    between atoms: N_14  and  C_15
REMARK    4  A    between atoms: C_16  and  C_18
REMARK    5  A    between atoms: C_18  and  C_19
REMARK                            x       y       z     vdW  Elec       q    Type
REMARK                         _______ _______ _______ _____ _____    ______ ____
ROOT
ATOM      1  C   UNL     1       1.071   2.774  21.307  0.00  0.00    +0.000 C 
ATOM      2  C   UNL     1       1.553   2.874  20.068  0.00  0.00    +0.000 C 
ATOM      3  C   UNL     1       2.821   3.468  19.602  0.00  0.00    +0.000 C 
ATOM      4  C   UNL     1       2.415   3.963  18.212  0.00  0.00    +0.000 C 
ATOM      5  C   UNL     1       3.499   3.759  17.159  0.00  0.00    +0.000 C 
ATOM      6  C   UNL     1       4.727   4.600  17.437  0.00  0.00    +0.000 C 
ATOM      7  C   UNL     1       4.446   6.113  17.587  0.00  0.00    +0.000 C 
ATOM      8  C   UNL     1       3.174   6.397  18.497  0.00  0.00    +0.000 C 
ATOM      9  C   UNL     1       1.996   5.440  18.190  0.00  0.00    +0.000 C 
ATOM     10  O   UNL     1       1.306   3.134  17.810  0.00  0.00    +0.000 OA
ATOM     11  C   UNL     1       0.789   2.456  18.870  0.00  0.00    +0.000 C 
ATOM     12  O   UNL     1      -0.118   1.648  18.828  0.00  0.00    +0.000 OA
ENDROOT
BRANCH   7  13
ATOM     13  N   UNL     1       5.668   6.865  17.991  0.00  0.00    +0.000 NA
ATOM     14  C   UNL     1       6.543   7.262  16.876  0.00  0.00    +0.000 C 
ATOM     15  C   UNL     1       7.638   6.209  16.769  0.00  0.00    +0.000 C 
ATOM     16  C   UNL     1       7.744   5.618  18.162  0.00  0.00    +0.000 C 
ATOM     17  C   UNL     1       6.557   6.182  18.944  0.00  0.00    +0.000 C 
ENDBRANCH   7  13
BRANCH   8  18
ATOM     18  N   UNL     1       2.727   7.824  18.507  0.00  0.00    +0.000 N 
ATOM     19  C   UNL     1       3.072   8.697  17.393  0.00  0.00    +0.000 C 
ATOM     20  C   UNL     1       1.946   8.279  19.573  0.00  0.00    +0.000 C 
ATOM     21  O   UNL     1       1.582   7.523  20.481  0.00  0.00    +0.000 OA
BRANCH  20  22
ATOM     22  C   UNL     1       1.522   9.750  19.602  0.00  0.00    +0.000 C 
BRANCH  22  23
ATOM     23  C   UNL     1       0.143  10.027  19.041  0.00  0.00    +0.000 A 
ATOM     24  C   UNL     1      -0.282   9.464  17.830  0.00  0.00    +0.000 A 
ATOM     25  C   UNL     1      -1.535   9.774  17.299  0.00  0.00    +0.000 A 
ATOM     26  C   UNL     1      -2.379  10.669  17.957  0.00  0.00    +0.000 A 
ATOM     27 CL   UNL     1      -3.908  11.018  17.235  0.00  0.00    +0.000 Cl
ATOM     28  C   UNL     1      -1.963  11.255  19.156  0.00  0.00    +0.000 A 
ATOM     29 CL   UNL     1      -2.943  12.386  20.022  0.00  0.00    +0.000 Cl
ATOM     30  C   UNL     1      -0.707  10.939  19.690  0.00  0.00    +0.000 A 
ENDBRANCH  22  23
ENDBRANCH  20  22
ENDBRANCH   8  18
TORSDOF 4
ENDMDL
