MODEL 1
REMARK VINA RESULT:      -7.5      0.000      0.000
REMARK  Name = 
REMARK  8 active torsions:
REMARK  status: ('A' for Active; 'I' for Inactive)
REMARK    1  A    between atoms: C_1  and  O_2
REMARK    2  A    between atoms: O_2  and  C_3
REMARK    3  A    between atoms: C_5  and  C_6
REMARK    4  A    between atoms: C_12  and  C_13
REMARK    5  A    between atoms: C_13  and  C_14
REMARK    6  A    between atoms: C_24  and  O_25
REMARK    7  A    between atoms: O_25  and  C_26
REMARK    8  A    between atoms: C_27  and  O_28
REMARK                            x       y       z     vdW  Elec       q    Type
REMARK                         _______ _______ _______ _____ _____    ______ ____
ROOT
ATOM      1  C   UNL     1       1.990   8.238  18.029  0.00  0.00    +0.000 C 
ATOM      2  C   UNL     1       2.097   7.280  18.966  0.00  0.00    +0.000 C 
ATOM      3  C   UNL     1       1.549   7.340  20.346  0.00  0.00    +0.000 C 
ATOM      4  O   UNL     1       1.115   8.311  20.933  0.00  0.00    +0.000 OA
ATOM      5  O   UNL     1       1.647   6.090  20.877  0.00  0.00    +0.000 OA
ATOM      6  C   UNL     1       2.026   5.158  19.867  0.00  0.00    +0.000 C 
ATOM      7  C   UNL     1       2.777   5.951  18.811  0.00  0.00    +0.000 C 
ENDROOT
BRANCH   1  10
ATOM      8  C   UNL     1      -0.635  10.929  18.322  0.00  0.00    +0.000 A 
ATOM      9  C   UNL     1       0.003   9.697  18.112  0.00  0.00    +0.000 A 
ATOM     10  C   UNL     1       1.391   9.564  18.226  0.00  0.00    +0.000 A 
ATOM     11  C   UNL     1       2.155  10.685  18.559  0.00  0.00    +0.000 A 
ATOM     12  C   UNL     1       1.540  11.928  18.770  0.00  0.00    +0.000 A 
ATOM     13  C   UNL     1       0.143  12.045  18.659  0.00  0.00    +0.000 A 
BRANCH   8  15
ATOM     14  C   UNL     1      -2.621  11.192  17.001  0.00  0.00    +0.000 C 
ATOM     15  O   UNL     1      -1.998  10.833  18.224  0.00  0.00    +0.000 OA
ENDBRANCH   8  15
BRANCH  12  16
ATOM     16  O   UNL     1       2.371  12.922  19.231  0.00  0.00    +0.000 OA
ATOM     17  C   UNL     1       2.914  13.801  18.247  0.00  0.00    +0.000 C 
ENDBRANCH  12  16
BRANCH  13  18
ATOM     18  O   UNL     1      -0.464  13.230  18.971  0.00  0.00    +0.000 OA
ATOM     19  H   UNL     1      -0.279  13.818  18.222  0.00  0.00    +0.000 HD
ENDBRANCH  13  18
ENDBRANCH   1  10
BRANCH   7  20
ATOM     20  C   UNL     1       4.289   6.057  19.104  0.00  0.00    +0.000 C 
BRANCH  20  21
ATOM     21  C   UNL     1       5.181   5.820  17.901  0.00  0.00    +0.000 A 
ATOM     22  C   UNL     1       6.496   6.344  17.887  0.00  0.00    +0.000 A 
ATOM     23  C   UNL     1       7.347   6.145  16.794  0.00  0.00    +0.000 A 
ATOM     24  C   UNL     1       6.861   5.423  15.727  0.00  0.00    +0.000 A 
ATOM     25  C   UNL     1       5.584   4.916  15.724  0.00  0.00    +0.000 A 
ATOM     26  C   UNL     1       4.718   5.099  16.788  0.00  0.00    +0.000 A 
ATOM     27  O   UNL     1       5.297   4.238  14.580  0.00  0.00    +0.000 OA
ATOM     28  C   UNL     1       6.546   4.378  13.866  0.00  0.00    +0.000 C 
ATOM     29  O   UNL     1       7.540   5.131  14.585  0.00  0.00    +0.000 OA
ENDBRANCH  20  21
ENDBRANCH   7  20
TORSDOF 6
ENDMDL
MODEL 2
REMARK VINA RESULT:      -7.4      0.238      2.356
REMARK  Name = 
REMARK  8 active torsions:
REMARK  status: ('A' for Active; 'I' for Inactive)
REMARK    1  A    between atoms: C_1  and  O_2
REMARK    2  A    between atoms: O_2  and  C_3
REMARK    3  A    between atoms: C_5  and  C_6
REMARK    4  A    between atoms: C_12  and  C_13
REMARK    5  A    between atoms: C_13  and  C_14
REMARK    6  A    between atoms: C_24  and  O_25
REMARK    7  A    between atoms: O_25  and  C_26
REMARK    8  A    between atoms: C_27  and  O_28
REMARK                            x       y       z     vdW  Elec       q    Type
REMARK                         _______ _______ _______ _____ _____    ______ ____
ROOT
ATOM      1  C   UNL     1       1.888   8.294  18.049  0.00  0.00    +0.000 C 
ATOM      2  C   UNL     1       2.045   7.321  18.964  0.00  0.00    +0.000 C 
ATOM      3  C   UNL     1       1.505   7.327  20.349  0.00  0.00    +0.000 C 
ATOM      4  O   UNL     1       1.034   8.265  20.960  0.00  0.00    +0.000 OA
ATOM      5  O   UNL     1       1.664   6.072  20.852  0.00  0.00    +0.000 OA
ATOM      6  C   UNL     1       2.076   5.180  19.819  0.00  0.00    +0.000 C 
ATOM      7  C   UNL     1       2.782   6.028  18.775  0.00  0.00    +0.000 C 
ENDROOT
BRANCH   1  10
ATOM      8  C   UNL     1       1.453  11.945  18.885  0.00  0.00    +0.000 A 
ATOM      9  C   UNL     1       2.014  10.675  18.680  0.00  0.00    +0.000 A 
ATOM     10  C   UNL     1       1.232   9.587  18.280  0.00  0.00    +0.000 A 
ATOM     11  C   UNL     1      -0.138   9.773  18.078  0.00  0.00    +0.000 A 
ATOM     12  C   UNL     1      -0.722  11.033  18.279  0.00  0.00    +0.000 A 
ATOM     13  C   UNL     1       0.079  12.119  18.674  0.00  0.00    +0.000 A 
BRANCH   8  15
ATOM     14  C   UNL     1       2.925  13.707  18.185  0.00  0.00    +0.000 C 
ATOM     15  O   UNL     1       2.396  12.883  19.212  0.00  0.00    +0.000 OA
ENDBRANCH   8  15
BRANCH  12  16
ATOM     16  O   UNL     1      -2.043  11.132  17.913  0.00  0.00    +0.000 OA
ATOM     17  C   UNL     1      -2.519  10.157  16.987  0.00  0.00    +0.000 C 
ENDBRANCH  12  16
BRANCH  13  18
ATOM     18  O   UNL     1      -0.471  13.368  18.765  0.00  0.00    +0.000 OA
ATOM     19  H   UNL     1      -0.210  13.702  19.638  0.00  0.00    +0.000 HD
ENDBRANCH  13  18
ENDBRANCH   1  10
BRANCH   7  20
ATOM     20  C   UNL     1       4.290   6.195  19.060  0.00  0.00    +0.000 C 
BRANCH  20  21
ATOM     21  C   UNL     1       5.189   5.917  17.871  0.00  0.00    +0.000 A 
ATOM     22  C   UNL     1       6.514   6.416  17.860  0.00  0.00    +0.000 A 
ATOM     23  C   UNL     1       7.371   6.180  16.780  0.00  0.00    +0.000 A 
ATOM     24  C   UNL     1       6.882   5.446  15.723  0.00  0.00    +0.000 A 
ATOM     25  C   UNL     1       5.596   4.963  15.716  0.00  0.00    +0.000 A 
ATOM     26  C   UNL     1       4.723   5.183  16.768  0.00  0.00    +0.000 A 
ATOM     27  O   UNL     1       5.308   4.267  14.584  0.00  0.00    +0.000 OA
ATOM     28  C   UNL     1       6.566   4.370  13.879  0.00  0.00    +0.000 C 
ATOM     29  O   UNL     1       7.567   5.118  14.594  0.00  0.00    +0.000 OA
ENDBRANCH  20  21
ENDBRANCH   7  20
TORSDOF 6
ENDMDL
MODEL 3
REMARK VINA RESULT:      -7.4      2.655      8.897
REMARK  Name = 
REMARK  8 active torsions:
REMARK  status: ('A' for Active; 'I' for Inactive)
REMARK    1  A    between atoms: C_1  and  O_2
REMARK    2  A    between atoms: O_2  and  C_3
REMARK    3  A    between atoms: C_5  and  C_6
REMARK    4  A    between atoms: C_12  and  C_13
REMARK    5  A    between atoms: C_13  and  C_14
REMARK    6  A    between atoms: C_24  and  O_25
REMARK    7  A    between atoms: O_25  and  C_26
REMARK    8  A    between atoms: C_27  and  O_28
REMARK                            x       y       z     vdW  Elec       q    Type
REMARK                         _______ _______ _______ _____ _____    ______ ____
ROOT
ATOM      1  C   UNL     1       2.892   7.559  17.893  0.00  0.00    +0.000 C 
ATOM      2  C   UNL     1       2.049   8.235  18.693  0.00  0.00    +0.000 C 
ATOM      3  C   UNL     1       1.616   7.823  20.055  0.00  0.00    +0.000 C 
ATOM      4  O   UNL     1       1.759   6.740  20.585  0.00  0.00    +0.000 OA
ATOM      5  O   UNL     1       0.980   8.887  20.618  0.00  0.00    +0.000 OA
ATOM      6  C   UNL     1       1.151  10.045  19.803  0.00  0.00    +0.000 C 
ATOM      7  C   UNL     1       1.385   9.545  18.388  0.00  0.00    +0.000 C 
ENDROOT
BRANCH   1  10
ATOM      8  C   UNL     1       5.319   4.944  19.111  0.00  0.00    +0.000 A 
ATOM      9  C   UNL     1       4.728   6.173  18.783  0.00  0.00    +0.000 A 
ATOM     10  C   UNL     1       3.468   6.240  18.178  0.00  0.00    +0.000 A 
ATOM     11  C   UNL     1       2.786   5.053  17.898  0.00  0.00    +0.000 A 
ATOM     12  C   UNL     1       3.359   3.812  18.214  0.00  0.00    +0.000 A 
ATOM     13  C   UNL     1       4.623   3.761  18.829  0.00  0.00    +0.000 A 
BRANCH   8  15
ATOM     14  C   UNL     1       7.570   5.775  19.076  0.00  0.00    +0.000 C 
ATOM     15  O   UNL     1       6.521   5.099  19.751  0.00  0.00    +0.000 OA
ENDBRANCH   8  15
BRANCH  12  16
ATOM     16  O   UNL     1       2.541   2.724  18.026  0.00  0.00    +0.000 OA
ATOM     17  C   UNL     1       1.272   2.764  18.677  0.00  0.00    +0.000 C 
ENDBRANCH  12  16
BRANCH  13  18
ATOM     18  O   UNL     1       5.131   2.558  19.234  0.00  0.00    +0.000 OA
ATOM     19  H   UNL     1       4.760   1.903  18.622  0.00  0.00    +0.000 HD
ENDBRANCH  13  18
ENDBRANCH   1  10
BRANCH   7  20
ATOM     20  C   UNL     1       0.073   9.338  17.601  0.00  0.00    +0.000 C 
BRANCH  20  21
ATOM     21  C   UNL     1      -1.070  10.234  18.038  0.00  0.00    +0.000 A 
ATOM     22  C   UNL     1      -0.794  11.438  18.731  0.00  0.00    +0.000 A 
ATOM     23  C   UNL     1      -1.824  12.288  19.149  0.00  0.00    +0.000 A 
ATOM     24  C   UNL     1      -3.119  11.914  18.866  0.00  0.00    +0.000 A 
ATOM     25  C   UNL     1      -3.401  10.745  18.202  0.00  0.00    +0.000 A 
ATOM     26  C   UNL     1      -2.405   9.882  17.779  0.00  0.00    +0.000 A 
ATOM     27  O   UNL     1      -4.736  10.559  18.023  0.00  0.00    +0.000 OA
ATOM     28  C   UNL     1      -5.259  11.749  18.653  0.00  0.00    +0.000 C 
ATOM     29  O   UNL     1      -4.240  12.611  19.192  0.00  0.00    +0.000 OA
ENDBRANCH  20  21
ENDBRANCH   7  20
TORSDOF 6
ENDMDL
MODEL 4
REMARK VINA RESULT:      -7.3      2.390      5.391
REMARK  Name = 
REMARK  8 active torsions:
REMARK  status: ('A' for Active; 'I' for Inactive)
REMARK    1  A    between atoms: C_1  and  O_2
REMARK    2  A    between atoms: O_2  and  C_3
REMARK    3  A    between atoms: C_5  and  C_6
REMARK    4  A    between atoms: C_12  and  C_13
REMARK    5  A    between atoms: C_13  and  C_14
REMARK    6  A    between atoms: C_24  and  O_25
REMARK    7  A    between atoms: O_25  and  C_26
REMARK    8  A    between atoms: C_27  and  O_28
REMARK                            x       y       z     vdW  Elec       q    Type
REMARK                         _______ _______ _______ _____ _____    ______ ____
ROOT
ATOM      1  C   UNL     1      -1.414  10.361  18.794  0.00  0.00    +0.000 C 
ATOM      2  C   UNL     1      -0.247  11.026  18.845  0.00  0.00    +0.000 C 
ATOM      3  C   UNL     1      -0.031  12.444  18.456  0.00  0.00    +0.000 C 
ATOM      4  O   UNL     1      -0.783  13.169  17.837  0.00  0.00    +0.000 OA
ATOM      5  O   UNL     1       1.209  12.801  18.893  0.00  0.00    +0.000 OA
ATOM      6  C   UNL     1       1.743  11.780  19.733  0.00  0.00    +0.000 C 
ATOM      7  C   UNL     1       1.071  10.484  19.315  0.00  0.00    +0.000 C 
ENDROOT
BRANCH   1  10
ATOM      8  C   UNL     1      -4.200  11.069  16.354  0.00  0.00    +0.000 A 
ATOM      9  C   UNL     1      -2.995  10.624  16.919  0.00  0.00    +0.000 A 
ATOM     10  C   UNL     1      -2.675  10.886  18.255  0.00  0.00    +0.000 A 
ATOM     11  C   UNL     1      -3.579  11.605  19.042  0.00  0.00    +0.000 A 
ATOM     12  C   UNL     1      -4.788  12.063  18.497  0.00  0.00    +0.000 A 
ATOM     13  C   UNL     1      -5.099  11.785  17.154  0.00  0.00    +0.000 A 
BRANCH   8  15
ATOM     14  C   UNL     1      -3.222  10.130  14.373  0.00  0.00    +0.000 C 
ATOM     15  O   UNL     1      -4.349  10.656  15.055  0.00  0.00    +0.000 OA
ENDBRANCH   8  15
BRANCH  12  16
ATOM     16  O   UNL     1      -5.658  12.631  19.397  0.00  0.00    +0.000 OA
ATOM     17  C   UNL     1      -6.283  11.743  20.323  0.00  0.00    +0.000 C 
ENDBRANCH  12  16
BRANCH  13  18
ATOM     18  O   UNL     1      -6.323  12.138  16.656  0.00  0.00    +0.000 OA
ATOM     19  H   UNL     1      -6.136  12.712  15.897  0.00  0.00    +0.000 HD
ENDBRANCH  13  18
ENDBRANCH   1  10
BRANCH   7  20
ATOM     20  C   UNL     1       1.819   9.762  18.174  0.00  0.00    +0.000 C 
BRANCH  20  21
ATOM     21  C   UNL     1       2.281   8.358  18.514  0.00  0.00    +0.000 A 
ATOM     22  C   UNL     1       1.865   7.756  19.726  0.00  0.00    +0.000 A 
ATOM     23  C   UNL     1       2.272   6.463  20.072  0.00  0.00    +0.000 A 
ATOM     24  C   UNL     1       3.096   5.794  19.195  0.00  0.00    +0.000 A 
ATOM     25  C   UNL     1       3.514   6.369  18.019  0.00  0.00    +0.000 A 
ATOM     26  C   UNL     1       3.131   7.647  17.650  0.00  0.00    +0.000 A 
ATOM     27  O   UNL     1       4.320   5.547  17.296  0.00  0.00    +0.000 OA
ATOM     28  C   UNL     1       4.360   4.386  18.157  0.00  0.00    +0.000 C 
ATOM     29  O   UNL     1       3.589   4.537  19.363  0.00  0.00    +0.000 OA
ENDBRANCH  20  21
ENDBRANCH   7  20
TORSDOF 6
ENDMDL
MODEL 5
REMARK VINA RESULT:      -7.2      2.591      5.563
REMARK  Name = 
REMARK  8 active torsions:
REMARK  status: ('A' for Active; 'I' for Inactive)
REMARK    1  A    between atoms: C_1  and  O_2
REMARK    2  A    between atoms: O_2  and  C_3
REMARK    3  A    between atoms: C_5  and  C_6
REMARK    4  A    between atoms: C_12  and  C_13
REMARK    5  A    between atoms: C_13  and  C_14
REMARK    6  A    between atoms: C_24  and  O_25
REMARK    7  A    between atoms: O_25  and  C_26
REMARK    8  A    between atoms: C_27  and  O_28
REMARK                            x       y       z     vdW  Elec       q    Type
REMARK                         _______ _______ _______ _____ _____    ______ ____
ROOT
ATOM      1  C   UNL     1      -1.322  10.397  18.791  0.00  0.00    +0.000 C 
ATOM      2  C   UNL     1      -0.174  11.093  18.852  0.00  0.00    +0.000 C 
ATOM      3  C   UNL     1       0.004  12.521  18.479  0.00  0.00    +0.000 C 
ATOM      4  O   UNL     1      -0.766  13.232  17.865  0.00  0.00    +0.000 OA
ATOM      5  O   UNL     1       1.232  12.906  18.924  0.00  0.00    +0.000 OA
ATOM      6  C   UNL     1       1.792  11.892  19.755  0.00  0.00    +0.000 C 
ATOM      7  C   UNL     1       1.156  10.582  19.321  0.00  0.00    +0.000 C 
ENDROOT
BRANCH   1  10
ATOM      8  C   UNL     1      -4.112  11.068  16.344  0.00  0.00    +0.000 A 
ATOM      9  C   UNL     1      -2.898  10.650  16.910  0.00  0.00    +0.000 A 
ATOM     10  C   UNL     1      -2.596  10.893  18.254  0.00  0.00    +0.000 A 
ATOM     11  C   UNL     1      -3.528  11.565  19.048  0.00  0.00    +0.000 A 
ATOM     12  C   UNL     1      -4.747  11.996  18.504  0.00  0.00    +0.000 A 
ATOM     13  C   UNL     1      -5.040  11.738  17.153  0.00  0.00    +0.000 A 
BRANCH   8  15
ATOM     14  C   UNL     1      -3.129  10.069  14.396  0.00  0.00    +0.000 C 
ATOM     15  O   UNL     1      -4.238  10.680  15.036  0.00  0.00    +0.000 OA
ENDBRANCH   8  15
BRANCH  12  16
ATOM     16  O   UNL     1      -5.641  12.516  19.409  0.00  0.00    +0.000 OA
ATOM     17  C   UNL     1      -5.086  13.098  20.587  0.00  0.00    +0.000 C 
ENDBRANCH  12  16
BRANCH  13  18
ATOM     18  O   UNL     1      -6.271  12.062  16.653  0.00  0.00    +0.000 OA
ATOM     19  H   UNL     1      -6.876  11.387  17.000  0.00  0.00    +0.000 HD
ENDBRANCH  13  18
ENDBRANCH   1  10
BRANCH   7  20
ATOM     20  C   UNL     1       1.927   9.893  18.175  0.00  0.00    +0.000 C 
BRANCH  20  21
ATOM     21  C   UNL     1       2.332   8.460  18.461  0.00  0.00    +0.000 A 
ATOM     22  C   UNL     1       3.197   7.782  17.569  0.00  0.00    +0.000 A 
ATOM     23  C   UNL     1       3.591   6.460  17.801  0.00  0.00    +0.000 A 
ATOM     24  C   UNL     1       3.105   5.835  18.928  0.00  0.00    +0.000 A 
ATOM     25  C   UNL     1       2.258   6.478  19.798  0.00  0.00    +0.000 A 
ATOM     26  C   UNL     1       1.848   7.784  19.594  0.00  0.00    +0.000 A 
ATOM     27  O   UNL     1       1.892   5.690  20.845  0.00  0.00    +0.000 OA
ATOM     28  C   UNL     1       2.610   4.476  20.529  0.00  0.00    +0.000 C 
ATOM     29  O   UNL     1       3.378   4.560  19.315  0.00  0.00    +0.000 OA
ENDBRANCH  20  21
ENDBRANCH   7  20
TORSDOF 6
ENDMDL
MODEL 6
REMARK VINA RESULT:      -7.2      2.641      8.624
REMARK  Name = 
REMARK  8 active torsions:
REMARK  status: ('A' for Active; 'I' for Inactive)
REMARK    1  A    between atoms: C_1  and  O_2
REMARK    2  A    between atoms: O_2  and  C_3
REMARK    3  A    between atoms: C_5  and  C_6
REMARK    4  A    between atoms: C_12  and  C_13
REMARK    5  A    between atoms: C_13  and  C_14
REMARK    6  A    between atoms: C_24  and  O_25
REMARK    7  A    between atoms: O_25  and  C_26
REMARK    8  A    between atoms: C_27  and  O_28
REMARK                            x       y       z     vdW  Elec       q    Type
REMARK                         _______ _______ _______ _____ _____    ______ ____
ROOT
ATOM      1  C   UNL     1       2.784   7.664  17.982  0.00  0.00    +0.000 C 
ATOM      2  C   UNL     1       1.938   8.372  18.751  0.00  0.00    +0.000 C 
ATOM      3  C   UNL     1       1.514   8.026  20.133  0.00  0.00    +0.000 C 
ATOM      4  O   UNL     1       1.668   6.972  20.717  0.00  0.00    +0.000 OA
ATOM      5  O   UNL     1       0.870   9.112  20.644  0.00  0.00    +0.000 OA
ATOM      6  C   UNL     1       1.027  10.228  19.771  0.00  0.00    +0.000 C 
ATOM      7  C   UNL     1       1.261   9.659  18.383  0.00  0.00    +0.000 C 
ENDROOT
BRANCH   1  10
ATOM      8  C   UNL     1       3.197   3.928  18.279  0.00  0.00    +0.000 A 
ATOM      9  C   UNL     1       2.673   5.200  18.003  0.00  0.00    +0.000 A 
ATOM     10  C   UNL     1       3.373   6.365  18.331  0.00  0.00    +0.000 A 
ATOM     11  C   UNL     1       4.623   6.256  18.946  0.00  0.00    +0.000 A 
ATOM     12  C   UNL     1       5.166   4.994  19.234  0.00  0.00    +0.000 A 
ATOM     13  C   UNL     1       4.453   3.832  18.892  0.00  0.00    +0.000 A 
BRANCH   8  15
ATOM     14  C   UNL     1       1.455   2.337  18.721  0.00  0.00    +0.000 C 
ATOM     15  O   UNL     1       2.386   2.921  17.824  0.00  0.00    +0.000 OA
ENDBRANCH   8  15
BRANCH  12  16
ATOM     16  O   UNL     1       6.457   5.006  19.706  0.00  0.00    +0.000 OA
ATOM     17  C   UNL     1       7.412   5.717  18.921  0.00  0.00    +0.000 C 
ENDBRANCH  12  16
BRANCH  13  18
ATOM     18  O   UNL     1       5.030   2.605  19.075  0.00  0.00    +0.000 OA
ATOM     19  H   UNL     1       5.084   2.211  18.190  0.00  0.00    +0.000 HD
ENDBRANCH  13  18
ENDBRANCH   1  10
BRANCH   7  20
ATOM     20  C   UNL     1      -0.052   9.401  17.613  0.00  0.00    +0.000 C 
BRANCH  20  21
ATOM     21  C   UNL     1      -1.214  10.277  18.040  0.00  0.00    +0.000 A 
ATOM     22  C   UNL     1      -0.965  11.490  18.726  0.00  0.00    +0.000 A 
ATOM     23  C   UNL     1      -2.012  12.322  19.136  0.00  0.00    +0.000 A 
ATOM     24  C   UNL     1      -3.298  11.920  18.852  0.00  0.00    +0.000 A 
ATOM     25  C   UNL     1      -3.555  10.741  18.194  0.00  0.00    +0.000 A 
ATOM     26  C   UNL     1      -2.541   9.895  17.780  0.00  0.00    +0.000 A 
ATOM     27  O   UNL     1      -4.886  10.527  18.013  0.00  0.00    +0.000 OA
ATOM     28  C   UNL     1      -5.435  11.710  18.634  0.00  0.00    +0.000 C 
ATOM     29  O   UNL     1      -4.435  12.596  19.171  0.00  0.00    +0.000 OA
ENDBRANCH  20  21
ENDBRANCH   7  20
TORSDOF 6
ENDMDL
MODEL 7
REMARK VINA RESULT:      -7.2      0.889      1.389
REMARK  Name = 
REMARK  8 active torsions:
REMARK  status: ('A' for Active; 'I' for Inactive)
REMARK    1  A    between atoms: C_1  and  O_2
REMARK    2  A    between atoms: O_2  and  C_3
REMARK    3  A    between atoms: C_5  and  C_6
REMARK    4  A    between atoms: C_12  and  C_13
REMARK    5  A    between atoms: C_13  and  C_14
REMARK    6  A    between atoms: C_24  and  O_25
REMARK    7  A    between atoms: O_25  and  C_26
REMARK    8  A    between atoms: C_27  and  O_28
REMARK                            x       y       z     vdW  Elec       q    Type
REMARK                         _______ _______ _______ _____ _____    ______ ____
ROOT
ATOM      1  C   UNL     1       1.460   8.640  18.089  0.00  0.00    +0.000 C 
ATOM      2  C   UNL     1       1.765   7.800  19.094  0.00  0.00    +0.000 C 
ATOM      3  C   UNL     1       1.541   8.050  20.542  0.00  0.00    +0.000 C 
ATOM      4  O   UNL     1       1.261   9.102  21.081  0.00  0.00    +0.000 OA
ATOM      5  O   UNL     1       1.742   6.872  21.193  0.00  0.00    +0.000 OA
ATOM      6  C   UNL     1       1.875   5.809  20.252  0.00  0.00    +0.000 C 
ATOM      7  C   UNL     1       2.378   6.437  18.963  0.00  0.00    +0.000 C 
ENDROOT
BRANCH   1  10
ATOM      8  C   UNL     1      -1.017  11.464  18.411  0.00  0.00    +0.000 A 
ATOM      9  C   UNL     1      -0.451  10.193  18.235  0.00  0.00    +0.000 A 
ATOM     10  C   UNL     1       0.934  10.002  18.243  0.00  0.00    +0.000 A 
ATOM     11  C   UNL     1       1.770  11.106  18.434  0.00  0.00    +0.000 A 
ATOM     12  C   UNL     1       1.227  12.387  18.609  0.00  0.00    +0.000 A 
ATOM     13  C   UNL     1      -0.169  12.561  18.605  0.00  0.00    +0.000 A 
BRANCH   8  15
ATOM     14  C   UNL     1      -3.081  11.178  17.220  0.00  0.00    +0.000 C 
ATOM     15  O   UNL     1      -2.387  11.425  18.432  0.00  0.00    +0.000 OA
ENDBRANCH   8  15
BRANCH  12  16
ATOM     16  O   UNL     1       2.133  13.369  18.930  0.00  0.00    +0.000 OA
ATOM     17  C   UNL     1       2.475  13.491  20.310  0.00  0.00    +0.000 C 
ENDBRANCH  12  16
BRANCH  13  18
ATOM     18  O   UNL     1      -0.698  13.792  18.883  0.00  0.00    +0.000 OA
ATOM     19  H   UNL     1      -1.660  13.667  18.869  0.00  0.00    +0.000 HD
ENDBRANCH  13  18
ENDBRANCH   1  10
BRANCH   7  20
ATOM     20  C   UNL     1       3.918   6.519  18.899  0.00  0.00    +0.000 C 
BRANCH  20  21
ATOM     21  C   UNL     1       4.541   5.753  17.747  0.00  0.00    +0.000 A 
ATOM     22  C   UNL     1       3.987   4.513  17.347  0.00  0.00    +0.000 A 
ATOM     23  C   UNL     1       4.536   3.780  16.289  0.00  0.00    +0.000 A 
ATOM     24  C   UNL     1       5.637   4.303  15.649  0.00  0.00    +0.000 A 
ATOM     25  C   UNL     1       6.189   5.502  16.032  0.00  0.00    +0.000 A 
ATOM     26  C   UNL     1       5.671   6.249  17.077  0.00  0.00    +0.000 A 
ATOM     27  O   UNL     1       7.268   5.842  15.277  0.00  0.00    +0.000 OA
ATOM     28  C   UNL     1       7.328   4.715  14.374  0.00  0.00    +0.000 C 
ATOM     29  O   UNL     1       6.300   3.735  14.606  0.00  0.00    +0.000 OA
ENDBRANCH  20  21
ENDBRANCH   7  20
TORSDOF 6
ENDMDL
MODEL 8
REMARK VINA RESULT:      -7.1      1.012      2.783
REMARK  Name = 
REMARK  8 active torsions:
REMARK  status: ('A' for Active; 'I' for Inactive)
REMARK    1  A    between atoms: C_1  and  O_2
REMARK    2  A    between atoms: O_2  and  C_3
REMARK    3  A    between atoms: C_5  and  C_6
REMARK    4  A    between atoms: C_12  and  C_13
REMARK    5  A    between atoms: C_13  and  C_14
REMARK    6  A    between atoms: C_24  and  O_25
REMARK    7  A    between atoms: O_25  and  C_26
REMARK    8  A    between atoms: C_27  and  O_28
REMARK                            x       y       z     vdW  Elec       q    Type
REMARK                         _______ _______ _______ _____ _____    ______ ____
ROOT
ATOM      1  C   UNL     1       1.296   8.929  18.149  0.00  0.00    +0.000 C 
ATOM      2  C   UNL     1       1.655   8.078  19.125  0.00  0.00    +0.000 C 
ATOM      3  C   UNL     1       1.494   8.302  20.586  0.00  0.00    +0.000 C 
ATOM      4  O   UNL     1       1.226   9.342  21.153  0.00  0.00    +0.000 OA
ATOM      5  O   UNL     1       1.738   7.117  21.208  0.00  0.00    +0.000 OA
ATOM      6  C   UNL     1       1.841   6.070  20.245  0.00  0.00    +0.000 C 
ATOM      7  C   UNL     1       2.278   6.724  18.946  0.00  0.00    +0.000 C 
ENDROOT
BRANCH   1  10
ATOM      8  C   UNL     1       1.212  12.671  18.607  0.00  0.00    +0.000 A 
ATOM      9  C   UNL     1       1.659  11.350  18.449  0.00  0.00    +0.000 A 
ATOM     10  C   UNL     1       0.762  10.282  18.348  0.00  0.00    +0.000 A 
ATOM     11  C   UNL     1      -0.611  10.540  18.403  0.00  0.00    +0.000 A 
ATOM     12  C   UNL     1      -1.081  11.852  18.563  0.00  0.00    +0.000 A 
ATOM     13  C   UNL     1      -0.167  12.917  18.656  0.00  0.00    +0.000 A 
BRANCH   8  15
ATOM     14  C   UNL     1       2.820  13.926  19.870  0.00  0.00    +0.000 C 
ATOM     15  O   UNL     1       2.244  13.571  18.623  0.00  0.00    +0.000 OA
ENDBRANCH   8  15
BRANCH  12  16
ATOM     16  O   UNL     1      -2.443  12.002  18.460  0.00  0.00    +0.000 OA
ATOM     17  C   UNL     1      -3.077  11.319  17.380  0.00  0.00    +0.000 C 
ENDBRANCH  12  16
BRANCH  13  18
ATOM     18  O   UNL     1      -0.628  14.203  18.703  0.00  0.00    +0.000 OA
ATOM     19  H   UNL     1       0.091  14.720  19.099  0.00  0.00    +0.000 HD
ENDBRANCH  13  18
ENDBRANCH   1  10
BRANCH   7  20
ATOM     20  C   UNL     1       3.813   6.827  18.813  0.00  0.00    +0.000 C 
BRANCH  20  21
ATOM     21  C   UNL     1       4.413   5.932  17.746  0.00  0.00    +0.000 A 
ATOM     22  C   UNL     1       3.930   4.611  17.583  0.00  0.00    +0.000 A 
ATOM     23  C   UNL     1       4.460   3.758  16.610  0.00  0.00    +0.000 A 
ATOM     24  C   UNL     1       5.473   4.244  15.814  0.00  0.00    +0.000 A 
ATOM     25  C   UNL     1       5.957   5.521  15.967  0.00  0.00    +0.000 A 
ATOM     26  C   UNL     1       5.456   6.388  16.923  0.00  0.00    +0.000 A 
ATOM     27  O   UNL     1       6.955   5.807  15.087  0.00  0.00    +0.000 OA
ATOM     28  C   UNL     1       7.040   4.559  14.364  0.00  0.00    +0.000 C 
ATOM     29  O   UNL     1       6.106   3.563  14.821  0.00  0.00    +0.000 OA
ENDBRANCH  20  21
ENDBRANCH   7  20
TORSDOF 6
ENDMDL
MODEL 9
REMARK VINA RESULT:      -7.1      2.599      5.588
REMARK  Name = 
REMARK  8 active torsions:
REMARK  status: ('A' for Active; 'I' for Inactive)
REMARK    1  A    between atoms: C_1  and  O_2
REMARK    2  A    between atoms: O_2  and  C_3
REMARK    3  A    between atoms: C_5  and  C_6
REMARK    4  A    between atoms: C_12  and  C_13
REMARK    5  A    between atoms: C_13  and  C_14
REMARK    6  A    between atoms: C_24  and  O_25
REMARK    7  A    between atoms: O_25  and  C_26
REMARK    8  A    between atoms: C_27  and  O_28
REMARK                            x       y       z     vdW  Elec       q    Type
REMARK                         _______ _______ _______ _____ _____    ______ ____
ROOT
ATOM      1  C   UNL     1      -1.256  10.255  18.751  0.00  0.00    +0.000 C 
ATOM      2  C   UNL     1      -0.142  11.004  18.816  0.00  0.00    +0.000 C 
ATOM      3  C   UNL     1      -0.020  12.429  18.411  0.00  0.00    +0.000 C 
ATOM      4  O   UNL     1      -0.809  13.089  17.765  0.00  0.00    +0.000 OA
ATOM      5  O   UNL     1       1.181  12.880  18.868  0.00  0.00    +0.000 OA
ATOM      6  C   UNL     1       1.769  11.912  19.734  0.00  0.00    +0.000 C 
ATOM      7  C   UNL     1       1.201  10.565  19.321  0.00  0.00    +0.000 C 
ENDROOT
BRANCH   1  10
ATOM      8  C   UNL     1      -4.643  11.891  18.476  0.00  0.00    +0.000 A 
ATOM      9  C   UNL     1      -3.416  11.426  18.974  0.00  0.00    +0.000 A 
ATOM     10  C   UNL     1      -2.540  10.681  18.178  0.00  0.00    +0.000 A 
ATOM     11  C   UNL     1      -2.897  10.397  16.857  0.00  0.00    +0.000 A 
ATOM     12  C   UNL     1      -4.120  10.848  16.339  0.00  0.00    +0.000 A 
ATOM     13  C   UNL     1      -4.987  11.603  17.149  0.00  0.00    +0.000 A 
BRANCH   8  15
ATOM     14  C   UNL     1      -4.755  12.836  20.679  0.00  0.00    +0.000 C 
ATOM     15  O   UNL     1      -5.322  12.651  19.392  0.00  0.00    +0.000 OA
ENDBRANCH   8  15
BRANCH  12  16
ATOM     16  O   UNL     1      -4.300  10.634  14.993  0.00  0.00    +0.000 OA
ATOM     17  C   UNL     1      -3.176  10.129  14.275  0.00  0.00    +0.000 C 
ENDBRANCH  12  16
BRANCH  13  18
ATOM     18  O   UNL     1      -6.127  12.133  16.610  0.00  0.00    +0.000 OA
ATOM     19  H   UNL     1      -5.848  12.552  15.780  0.00  0.00    +0.000 HD
ENDBRANCH  13  18
ENDBRANCH   1  10
BRANCH   7  20
ATOM     20  C   UNL     1       2.024   9.884  18.206  0.00  0.00    +0.000 C 
BRANCH  20  21
ATOM     21  C   UNL     1       2.380   8.436  18.483  0.00  0.00    +0.000 A 
ATOM     22  C   UNL     1       3.205   7.729  17.574  0.00  0.00    +0.000 A 
ATOM     23  C   UNL     1       3.554   6.393  17.797  0.00  0.00    +0.000 A 
ATOM     24  C   UNL     1       3.064   5.783  18.931  0.00  0.00    +0.000 A 
ATOM     25  C   UNL     1       2.257   6.455  19.816  0.00  0.00    +0.000 A 
ATOM     26  C   UNL     1       1.892   7.776  19.622  0.00  0.00    +0.000 A 
ATOM     27  O   UNL     1       1.880   5.678  20.868  0.00  0.00    +0.000 OA
ATOM     28  C   UNL     1       2.547   4.439  20.537  0.00  0.00    +0.000 C 
ATOM     29  O   UNL     1       3.297   4.498  19.310  0.00  0.00    +0.000 OA
ENDBRANCH  20  21
ENDBRANCH   7  20
TORSDOF 6
ENDMDL
