MODEL 1
REMARK VINA RESULT:      -6.1      0.000      0.000
REMARK  Name = 
REMARK  4 active torsions:
REMARK  status: ('A' for Active; 'I' for Inactive)
REMARK    1  A    between atoms: C_1  and  C_2
REMARK    2  A    between atoms: C_2  and  S_3
REMARK    3  A    between atoms: S_3  and  C_4
REMARK    4  A    between atoms: C_7  and  N_8
REMARK                            x       y       z     vdW  Elec       q    Type
REMARK                         _______ _______ _______ _____ _____    ______ ____
ROOT
ATOM      1  C   UNL     1       2.236   7.789  19.147  0.00  0.00    +0.000 A 
ATOM      2  C   UNL     1       2.869   7.996  17.932  0.00  0.00    +0.000 A 
ATOM      3  C   UNL     1       3.793   7.047  17.481  0.00  0.00    +0.000 A 
ATOM      4  C   UNL     1       4.065   5.894  18.221  0.00  0.00    +0.000 A 
ATOM      5  C   UNL     1       3.332   5.781  19.407  0.00  0.00    +0.000 A 
ATOM      6  N   UNL     1       2.443   6.687  19.893  0.00  0.00    +0.000 NA
ENDROOT
BRANCH   4   7
ATOM      7  N   UNL     1       4.978   4.939  17.818  0.00  0.00    +0.000 N 
ATOM      8  C   UNL     1       4.747   4.032  16.695  0.00  0.00    +0.000 C 
ATOM      9  C   UNL     1       5.468   4.509  15.438  0.00  0.00    +0.000 C 
ATOM     10  C   UNL     1       6.959   4.833  15.566  0.00  0.00    +0.000 C 
ATOM     11  N   UNL     1       7.690   4.188  16.662  0.00  0.00    +0.000 NA
ATOM     12  C   UNL     1       7.481   4.916  17.931  0.00  0.00    +0.000 C 
ATOM     13  C   UNL     1       6.149   4.633  18.652  0.00  0.00    +0.000 C 
ATOM     14  H   UNL     1       8.684   4.241  16.442  0.00  0.00    +0.000 HD
ENDBRANCH   4   7
BRANCH   1  15
ATOM     15  S   UNL     1       1.098   9.002  19.773  0.00  0.00    +0.000 S 
BRANCH  15  17
ATOM     16  C   UNL     1      -0.773  10.290  18.240  0.00  0.00    +0.000 C 
ATOM     17  C   UNL     1       0.670   9.817  18.199  0.00  0.00    +0.000 C 
ENDBRANCH  15  17
ENDBRANCH   1  15
TORSDOF 3
ENDMDL
MODEL 2
REMARK VINA RESULT:      -6.0      2.642      3.592
REMARK  Name = 
REMARK  4 active torsions:
REMARK  status: ('A' for Active; 'I' for Inactive)
REMARK    1  A    between atoms: C_1  and  C_2
REMARK    2  A    between atoms: C_2  and  S_3
REMARK    3  A    between atoms: S_3  and  C_4
REMARK    4  A    between atoms: C_7  and  N_8
REMARK                            x       y       z     vdW  Elec       q    Type
REMARK                         _______ _______ _______ _____ _____    ______ ____
ROOT
ATOM      1  C   UNL     1       1.450   9.254  19.002  0.00  0.00    +0.000 A 
ATOM      2  C   UNL     1       2.043   8.495  18.006  0.00  0.00    +0.000 A 
ATOM      3  C   UNL     1       2.505   7.212  18.319  0.00  0.00    +0.000 A 
ATOM      4  C   UNL     1       2.354   6.681  19.602  0.00  0.00    +0.000 A 
ATOM      5  C   UNL     1       1.702   7.528  20.505  0.00  0.00    +0.000 A 
ATOM      6  N   UNL     1       1.259   8.787  20.251  0.00  0.00    +0.000 NA
ENDROOT
BRANCH   4   7
ATOM      7  N   UNL     1       2.805   5.425  19.954  0.00  0.00    +0.000 N 
ATOM      8  C   UNL     1       2.192   4.619  21.009  0.00  0.00    +0.000 C 
ATOM      9  C   UNL     1       1.263   3.558  20.428  0.00  0.00    +0.000 C 
ATOM     10  C   UNL     1       1.829   2.657  19.328  0.00  0.00    +0.000 C 
ATOM     11  N   UNL     1       3.286   2.497  19.281  0.00  0.00    +0.000 NA
ATOM     12  C   UNL     1       3.916   3.641  18.589  0.00  0.00    +0.000 C 
ATOM     13  C   UNL     1       4.083   4.921  19.431  0.00  0.00    +0.000 C 
ATOM     14  H   UNL     1       3.487   1.663  18.731  0.00  0.00    +0.000 HD
ENDBRANCH   4   7
BRANCH   1  15
ATOM     15  S   UNL     1       0.902  10.908  18.652  0.00  0.00    +0.000 S 
BRANCH  15  17
ATOM     16  C   UNL     1      -1.524  10.124  17.649  0.00  0.00    +0.000 C 
ATOM     17  C   UNL     1      -0.886  10.668  18.915  0.00  0.00    +0.000 C 
ENDBRANCH  15  17
ENDBRANCH   1  15
TORSDOF 3
ENDMDL
MODEL 3
REMARK VINA RESULT:      -5.9      2.009      2.459
REMARK  Name = 
REMARK  4 active torsions:
REMARK  status: ('A' for Active; 'I' for Inactive)
REMARK    1  A    between atoms: C_1  and  C_2
REMARK    2  A    between atoms: C_2  and  S_3
REMARK    3  A    between atoms: S_3  and  C_4
REMARK    4  A    between atoms: C_7  and  N_8
REMARK                            x       y       z     vdW  Elec       q    Type
REMARK                         _______ _______ _______ _____ _____    ______ ____
ROOT
ATOM      1  C   UNL     1       1.346   8.798  19.644  0.00  0.00    +0.000 A 
ATOM      2  C   UNL     1       1.782   9.020  18.348  0.00  0.00    +0.000 A 
ATOM      3  C   UNL     1       2.647   8.091  17.758  0.00  0.00    +0.000 A 
ATOM      4  C   UNL     1       3.051   6.943  18.441  0.00  0.00    +0.000 A 
ATOM      5  C   UNL     1       2.509   6.813  19.725  0.00  0.00    +0.000 A 
ATOM      6  N   UNL     1       1.686   7.699  20.344  0.00  0.00    +0.000 NA
ENDROOT
BRANCH   4   7
ATOM      7  N   UNL     1       3.911   6.009  17.900  0.00  0.00    +0.000 N 
ATOM      8  C   UNL     1       4.873   6.321  16.844  0.00  0.00    +0.000 C 
ATOM      9  C   UNL     1       6.275   6.524  17.411  0.00  0.00    +0.000 C 
ATOM     10  C   UNL     1       6.824   5.429  18.329  0.00  0.00    +0.000 C 
ATOM     11  N   UNL     1       6.253   4.086  18.182  0.00  0.00    +0.000 NA
ATOM     12  C   UNL     1       4.974   3.978  18.915  0.00  0.00    +0.000 C 
ATOM     13  C   UNL     1       3.745   4.581  18.207  0.00  0.00    +0.000 C 
ATOM     14  H   UNL     1       6.902   3.426  18.609  0.00  0.00    +0.000 HD
ENDBRANCH   4   7
BRANCH   1  15
ATOM     15  S   UNL     1       0.291   9.985  20.442  0.00  0.00    +0.000 S 
BRANCH  15  17
ATOM     16  C   UNL     1      -0.539   9.898  23.052  0.00  0.00    +0.000 C 
ATOM     17  C   UNL     1       0.654   9.556  22.176  0.00  0.00    +0.000 C 
ENDBRANCH  15  17
ENDBRANCH   1  15
TORSDOF 3
ENDMDL
MODEL 4
REMARK VINA RESULT:      -5.8      1.531      1.952
REMARK  Name = 
REMARK  4 active torsions:
REMARK  status: ('A' for Active; 'I' for Inactive)
REMARK    1  A    between atoms: C_1  and  C_2
REMARK    2  A    between atoms: C_2  and  S_3
REMARK    3  A    between atoms: S_3  and  C_4
REMARK    4  A    between atoms: C_7  and  N_8
REMARK                            x       y       z     vdW  Elec       q    Type
REMARK                         _______ _______ _______ _____ _____    ______ ____
ROOT
ATOM      1  C   UNL     1       1.364   8.868  19.440  0.00  0.00    +0.000 A 
ATOM      2  C   UNL     1       1.845   9.048  18.152  0.00  0.00    +0.000 A 
ATOM      3  C   UNL     1       2.733   8.105  17.625  0.00  0.00    +0.000 A 
ATOM      4  C   UNL     1       3.118   6.983  18.361  0.00  0.00    +0.000 A 
ATOM      5  C   UNL     1       2.533   6.894  19.629  0.00  0.00    +0.000 A 
ATOM      6  N   UNL     1       1.684   7.796  20.189  0.00  0.00    +0.000 NA
ENDROOT
BRANCH   4   7
ATOM      7  N   UNL     1       4.001   6.035  17.883  0.00  0.00    +0.000 N 
ATOM      8  C   UNL     1       5.005   6.319  16.858  0.00  0.00    +0.000 C 
ATOM      9  C   UNL     1       6.382   6.542  17.475  0.00  0.00    +0.000 C 
ATOM     10  C   UNL     1       6.895   5.476  18.446  0.00  0.00    +0.000 C 
ATOM     11  N   UNL     1       6.332   4.128  18.316  0.00  0.00    +0.000 NA
ATOM     12  C   UNL     1       5.025   4.038  18.999  0.00  0.00    +0.000 C 
ATOM     13  C   UNL     1       3.825   4.616  18.224  0.00  0.00    +0.000 C 
ATOM     14  H   UNL     1       6.965   3.483  18.787  0.00  0.00    +0.000 HD
ENDBRANCH   4   7
BRANCH   1  15
ATOM     15  S   UNL     1       0.276  10.076  20.159  0.00  0.00    +0.000 S 
BRANCH  15  17
ATOM     16  C   UNL     1      -1.713  10.302  18.288  0.00  0.00    +0.000 C 
ATOM     17  C   UNL     1      -0.335  10.845  18.623  0.00  0.00    +0.000 C 
ENDBRANCH  15  17
ENDBRANCH   1  15
TORSDOF 3
ENDMDL
MODEL 5
REMARK VINA RESULT:      -5.8      3.222      5.461
REMARK  Name = 
REMARK  4 active torsions:
REMARK  status: ('A' for Active; 'I' for Inactive)
REMARK    1  A    between atoms: C_1  and  C_2
REMARK    2  A    between atoms: C_2  and  S_3
REMARK    3  A    between atoms: S_3  and  C_4
REMARK    4  A    between atoms: C_7  and  N_8
REMARK                            x       y       z     vdW  Elec       q    Type
REMARK                         _______ _______ _______ _____ _____    ______ ____
ROOT
ATOM      1  C   UNL     1       5.936   6.418  17.621  0.00  0.00    +0.000 A 
ATOM      2  C   UNL     1       4.727   6.801  17.062  0.00  0.00    +0.000 A 
ATOM      3  C   UNL     1       3.542   6.284  17.596  0.00  0.00    +0.000 A 
ATOM      4  C   UNL     1       3.559   5.418  18.691  0.00  0.00    +0.000 A 
ATOM      5  C   UNL     1       4.837   5.141  19.190  0.00  0.00    +0.000 A 
ATOM      6  N   UNL     1       6.013   5.602  18.689  0.00  0.00    +0.000 NA
ENDROOT
BRANCH   4   7
ATOM      7  N   UNL     1       2.414   4.877  19.241  0.00  0.00    +0.000 N 
ATOM      8  C   UNL     1       1.356   4.257  18.444  0.00  0.00    +0.000 C 
ATOM      9  C   UNL     1       1.465   2.736  18.463  0.00  0.00    +0.000 C 
ATOM     10  C   UNL     1       1.570   2.058  19.831  0.00  0.00    +0.000 C 
ATOM     11  N   UNL     1       1.040   2.795  20.984  0.00  0.00    +0.000 NA
ATOM     12  C   UNL     1       2.020   3.790  21.465  0.00  0.00    +0.000 C 
ATOM     13  C   UNL     1       2.093   5.101  20.658  0.00  0.00    +0.000 C 
ATOM     14  H   UNL     1       0.893   2.124  21.737  0.00  0.00    +0.000 HD
ENDBRANCH   4   7
BRANCH   1  15
ATOM     15  S   UNL     1       7.462   7.014  16.931  0.00  0.00    +0.000 S 
BRANCH  15  17
ATOM     16  C   UNL     1       8.424   9.254  18.181  0.00  0.00    +0.000 C 
ATOM     17  C   UNL     1       8.162   7.779  18.430  0.00  0.00    +0.000 C 
ENDBRANCH  15  17
ENDBRANCH   1  15
TORSDOF 3
ENDMDL
MODEL 6
REMARK VINA RESULT:      -5.8      3.528      6.351
REMARK  Name = 
REMARK  4 active torsions:
REMARK  status: ('A' for Active; 'I' for Inactive)
REMARK    1  A    between atoms: C_1  and  C_2
REMARK    2  A    between atoms: C_2  and  S_3
REMARK    3  A    between atoms: S_3  and  C_4
REMARK    4  A    between atoms: C_7  and  N_8
REMARK                            x       y       z     vdW  Elec       q    Type
REMARK                         _______ _______ _______ _____ _____    ______ ____
ROOT
ATOM      1  C   UNL     1       5.911   4.430  16.192  0.00  0.00    +0.000 A 
ATOM      2  C   UNL     1       4.585   4.060  16.035  0.00  0.00    +0.000 A 
ATOM      3  C   UNL     1       3.803   3.850  17.176  0.00  0.00    +0.000 A 
ATOM      4  C   UNL     1       4.328   4.030  18.456  0.00  0.00    +0.000 A 
ATOM      5  C   UNL     1       5.664   4.444  18.481  0.00  0.00    +0.000 A 
ATOM      6  N   UNL     1       6.466   4.638  17.401  0.00  0.00    +0.000 NA
ENDROOT
BRANCH   4   7
ATOM      7  N   UNL     1       3.594   3.822  19.607  0.00  0.00    +0.000 N 
ATOM      8  C   UNL     1       3.127   4.907  20.469  0.00  0.00    +0.000 C 
ATOM      9  C   UNL     1       1.660   5.231  20.208  0.00  0.00    +0.000 C 
ATOM     10  C   UNL     1       0.669   4.064  20.233  0.00  0.00    +0.000 C 
ATOM     11  N   UNL     1       1.059   2.874  20.998  0.00  0.00    +0.000 NA
ATOM     12  C   UNL     1       1.962   2.015  20.205  0.00  0.00    +0.000 C 
ATOM     13  C   UNL     1       3.435   2.465  20.151  0.00  0.00    +0.000 C 
ATOM     14  H   UNL     1       0.213   2.336  21.182  0.00  0.00    +0.000 HD
ENDBRANCH   4   7
BRANCH   1  15
ATOM     15  S   UNL     1       6.946   4.652  14.764  0.00  0.00    +0.000 S 
BRANCH  15  17
ATOM     16  C   UNL     1       6.556   3.493  12.312  0.00  0.00    +0.000 C 
ATOM     17  C   UNL     1       5.784   4.068  13.487  0.00  0.00    +0.000 C 
ENDBRANCH  15  17
ENDBRANCH   1  15
TORSDOF 3
ENDMDL
MODEL 7
REMARK VINA RESULT:      -5.8      3.299      4.285
REMARK  Name = 
REMARK  4 active torsions:
REMARK  status: ('A' for Active; 'I' for Inactive)
REMARK    1  A    between atoms: C_1  and  C_2
REMARK    2  A    between atoms: C_2  and  S_3
REMARK    3  A    between atoms: S_3  and  C_4
REMARK    4  A    between atoms: C_7  and  N_8
REMARK                            x       y       z     vdW  Elec       q    Type
REMARK                         _______ _______ _______ _____ _____    ______ ____
ROOT
ATOM      1  C   UNL     1       2.012   3.100  18.854  0.00  0.00    +0.000 A 
ATOM      2  C   UNL     1       1.672   4.381  18.449  0.00  0.00    +0.000 A 
ATOM      3  C   UNL     1       2.573   5.099  17.653  0.00  0.00    +0.000 A 
ATOM      4  C   UNL     1       3.785   4.539  17.246  0.00  0.00    +0.000 A 
ATOM      5  C   UNL     1       3.993   3.227  17.686  0.00  0.00    +0.000 A 
ATOM      6  N   UNL     1       3.158   2.501  18.476  0.00  0.00    +0.000 NA
ENDROOT
BRANCH   4   7
ATOM      7  N   UNL     1       4.705   5.217  16.472  0.00  0.00    +0.000 N 
ATOM      8  C   UNL     1       4.866   6.670  16.505  0.00  0.00    +0.000 C 
ATOM      9  C   UNL     1       6.058   7.078  17.365  0.00  0.00    +0.000 C 
ATOM     10  C   UNL     1       7.398   6.398  17.072  0.00  0.00    +0.000 C 
ATOM     11  N   UNL     1       7.587   5.847  15.725  0.00  0.00    +0.000 NA
ATOM     12  C   UNL     1       6.952   4.518  15.609  0.00  0.00    +0.000 C 
ATOM     13  C   UNL     1       5.426   4.522  15.396  0.00  0.00    +0.000 C 
ATOM     14  H   UNL     1       8.588   5.719  15.582  0.00  0.00    +0.000 HD
ENDBRANCH   4   7
BRANCH   1  15
ATOM     15  S   UNL     1       0.916   2.182  19.909  0.00  0.00    +0.000 S 
BRANCH  15  17
ATOM     16  C   UNL     1       2.210   3.909  21.598  0.00  0.00    +0.000 C 
ATOM     17  C   UNL     1       1.764   2.460  21.498  0.00  0.00    +0.000 C 
ENDBRANCH  15  17
ENDBRANCH   1  15
TORSDOF 3
ENDMDL
MODEL 8
REMARK VINA RESULT:      -5.8      3.545      6.343
REMARK  Name = 
REMARK  4 active torsions:
REMARK  status: ('A' for Active; 'I' for Inactive)
REMARK    1  A    between atoms: C_1  and  C_2
REMARK    2  A    between atoms: C_2  and  S_3
REMARK    3  A    between atoms: S_3  and  C_4
REMARK    4  A    between atoms: C_7  and  N_8
REMARK                            x       y       z     vdW  Elec       q    Type
REMARK                         _______ _______ _______ _____ _____    ______ ____
ROOT
ATOM      1  C   UNL     1       5.975   4.429  16.223  0.00  0.00    +0.000 A 
ATOM      2  C   UNL     1       6.530   4.754  17.450  0.00  0.00    +0.000 A 
ATOM      3  C   UNL     1       5.763   4.576  18.607  0.00  0.00    +0.000 A 
ATOM      4  C   UNL     1       4.468   4.057  18.544  0.00  0.00    +0.000 A 
ATOM      5  C   UNL     1       4.038   3.729  17.254  0.00  0.00    +0.000 A 
ATOM      6  N   UNL     1       4.740   3.905  16.103  0.00  0.00    +0.000 NA
ENDROOT
BRANCH   4   7
ATOM      7  N   UNL     1       3.675   3.876  19.659  0.00  0.00    +0.000 N 
ATOM      8  C   UNL     1       3.194   4.980  20.489  0.00  0.00    +0.000 C 
ATOM      9  C   UNL     1       1.750   5.338  20.155  0.00  0.00    +0.000 C 
ATOM     10  C   UNL     1       0.730   4.197  20.140  0.00  0.00    +0.000 C 
ATOM     11  N   UNL     1       1.052   3.004  20.932  0.00  0.00    +0.000 NA
ATOM     12  C   UNL     1       1.971   2.116  20.190  0.00  0.00    +0.000 C 
ATOM     13  C   UNL     1       3.456   2.529  20.205  0.00  0.00    +0.000 C 
ATOM     14  H   UNL     1       0.185   2.489  21.079  0.00  0.00    +0.000 HD
ENDBRANCH   4   7
BRANCH   1  15
ATOM     15  S   UNL     1       6.903   4.694  14.730  0.00  0.00    +0.000 S 
BRANCH  15  17
ATOM     16  C   UNL     1       6.453   3.498  12.306  0.00  0.00    +0.000 C 
ATOM     17  C   UNL     1       5.715   3.991  13.539  0.00  0.00    +0.000 C 
ENDBRANCH  15  17
ENDBRANCH   1  15
TORSDOF 3
ENDMDL
MODEL 9
REMARK VINA RESULT:      -5.8      3.723      6.145
REMARK  Name = 
REMARK  4 active torsions:
REMARK  status: ('A' for Active; 'I' for Inactive)
REMARK    1  A    between atoms: C_1  and  C_2
REMARK    2  A    between atoms: C_2  and  S_3
REMARK    3  A    between atoms: S_3  and  C_4
REMARK    4  A    between atoms: C_7  and  N_8
REMARK                            x       y       z     vdW  Elec       q    Type
REMARK                         _______ _______ _______ _____ _____    ______ ____
ROOT
ATOM      1  C   UNL     1       6.134   4.722  14.709  0.00  0.00    +0.000 A 
ATOM      2  C   UNL     1       5.537   5.868  15.210  0.00  0.00    +0.000 A 
ATOM      3  C   UNL     1       4.766   5.775  16.373  0.00  0.00    +0.000 A 
ATOM      4  C   UNL     1       4.612   4.560  17.044  0.00  0.00    +0.000 A 
ATOM      5  C   UNL     1       5.297   3.487  16.462  0.00  0.00    +0.000 A 
ATOM      6  N   UNL     1       6.037   3.528  15.323  0.00  0.00    +0.000 NA
ENDROOT
BRANCH   4   7
ATOM      7  N   UNL     1       3.850   4.422  18.187  0.00  0.00    +0.000 N 
ATOM      8  C   UNL     1       2.516   5.001  18.337  0.00  0.00    +0.000 C 
ATOM      9  C   UNL     1       1.428   3.957  18.107  0.00  0.00    +0.000 C 
ATOM     10  C   UNL     1       1.535   2.648  18.894  0.00  0.00    +0.000 C 
ATOM     11  N   UNL     1       2.300   2.683  20.145  0.00  0.00    +0.000 NA
ATOM     12  C   UNL     1       3.749   2.572  19.875  0.00  0.00    +0.000 C 
ATOM     13  C   UNL     1       4.443   3.868  19.413  0.00  0.00    +0.000 C 
ATOM     14  H   UNL     1       2.031   1.868  20.694  0.00  0.00    +0.000 HD
ENDBRANCH   4   7
BRANCH   1  15
ATOM     15  S   UNL     1       7.076   4.797  13.203  0.00  0.00    +0.000 S 
BRANCH  15  17
ATOM     16  C   UNL     1       4.937   3.586  11.992  0.00  0.00    +0.000 C 
ATOM     17  C   UNL     1       6.385   3.328  12.373  0.00  0.00    +0.000 C 
ENDBRANCH  15  17
ENDBRANCH   1  15
TORSDOF 3
ENDMDL
