MODEL 1
REMARK VINA RESULT:      -7.6      0.000      0.000
REMARK  Name = 
REMARK  9 active torsions:
REMARK  status: ('A' for Active; 'I' for Inactive)
REMARK    1  A    between atoms: C_1  and  O_2
REMARK    2  A    between atoms: O_2  and  C_3
REMARK    3  A    between atoms: C_5  and  C_6
REMARK    4  A    between atoms: C_7  and  C_8
REMARK    5  A    between atoms: N_16  and  C_17
REMARK    6  A    between atoms: C_20  and  O_21
REMARK    7  A    between atoms: O_21  and  C_22
REMARK    8  A    between atoms: C_23  and  O_24
REMARK    9  A    between atoms: O_24  and  C_25
REMARK                            x       y       z     vdW  Elec       q    Type
REMARK                         _______ _______ _______ _____ _____    ______ ____
ROOT
ATOM      1  C   UNL     1       2.088   8.256  18.278  0.00  0.00    +0.000 C 
ATOM      2  C   UNL     1       2.646   7.134  18.762  0.00  0.00    +0.000 C 
ENDROOT
BRANCH   2   3
ATOM      3  C   UNL     1       3.450   6.225  17.946  0.00  0.00    +0.000 A 
ATOM      4  C   UNL     1       4.349   6.753  17.005  0.00  0.00    +0.000 A 
ATOM      5  C   UNL     1       5.093   5.913  16.153  0.00  0.00    +0.000 A 
ATOM      6  C   UNL     1       4.965   4.526  16.236  0.00  0.00    +0.000 A 
ATOM      7  C   UNL     1       4.088   4.022  17.174  0.00  0.00    +0.000 A 
ATOM      8  O   UNL     1       3.849   2.673  17.371  0.00  0.00    +0.000 OA
ATOM      9  C   UNL     1       2.890   2.677  18.387  0.00  0.00    +0.000 A 
ATOM     10  O   UNL     1       2.416   1.654  18.856  0.00  0.00    +0.000 OA
ATOM     11  N   UNL     1       2.574   3.972  18.764  0.00  0.00    +0.000 N 
ATOM     12  C   UNL     1       1.645   4.318  19.794  0.00  0.00    +0.000 C 
ATOM     13  C   UNL     1       3.344   4.841  18.005  0.00  0.00    +0.000 A 
ENDBRANCH   2   3
BRANCH   1  16
ATOM     14  C   UNL     1       0.928  10.132  21.356  0.00  0.00    +0.000 A 
ATOM     15  C   UNL     1       1.201   9.077  20.469  0.00  0.00    +0.000 A 
ATOM     16  C   UNL     1       1.471   9.300  19.118  0.00  0.00    +0.000 A 
ATOM     17  C   UNL     1       1.317  10.594  18.629  0.00  0.00    +0.000 A 
ATOM     18  C   UNL     1       0.953  11.655  19.477  0.00  0.00    +0.000 A 
ATOM     19  C   UNL     1       0.769  11.442  20.862  0.00  0.00    +0.000 A 
BRANCH  14  21
ATOM     20  C   UNL     1      -0.481   9.459  23.140  0.00  0.00    +0.000 C 
ATOM     21  O   UNL     1       0.817   9.877  22.701  0.00  0.00    +0.000 OA
ENDBRANCH  14  21
BRANCH  18  22
ATOM     22  O   UNL     1       0.799  12.837  18.788  0.00  0.00    +0.000 OA
ATOM     23  C   UNL     1      -0.483  13.127  18.246  0.00  0.00    +0.000 C 
ENDBRANCH  18  22
BRANCH  19  24
ATOM     24  O   UNL     1       0.438  12.552  21.588  0.00  0.00    +0.000 OA
ATOM     25  C   UNL     1      -0.908  12.855  21.907  0.00  0.00    +0.000 C 
ENDBRANCH  19  24
ENDBRANCH   1  16
TORSDOF 5
ENDMDL
MODEL 2
REMARK VINA RESULT:      -7.5      1.273      2.492
REMARK  Name = 
REMARK  9 active torsions:
REMARK  status: ('A' for Active; 'I' for Inactive)
REMARK    1  A    between atoms: C_1  and  O_2
REMARK    2  A    between atoms: O_2  and  C_3
REMARK    3  A    between atoms: C_5  and  C_6
REMARK    4  A    between atoms: C_7  and  C_8
REMARK    5  A    between atoms: N_16  and  C_17
REMARK    6  A    between atoms: C_20  and  O_21
REMARK    7  A    between atoms: O_21  and  C_22
REMARK    8  A    between atoms: C_23  and  O_24
REMARK    9  A    between atoms: O_24  and  C_25
REMARK                            x       y       z     vdW  Elec       q    Type
REMARK                         _______ _______ _______ _____ _____    ______ ____
ROOT
ATOM      1  C   UNL     1       1.859   8.259  17.981  0.00  0.00    +0.000 C 
ATOM      2  C   UNL     1       2.572   7.294  18.585  0.00  0.00    +0.000 C 
ENDROOT
BRANCH   2   3
ATOM      3  C   UNL     1       3.484   6.407  17.864  0.00  0.00    +0.000 A 
ATOM      4  C   UNL     1       4.438   6.957  16.992  0.00  0.00    +0.000 A 
ATOM      5  C   UNL     1       5.290   6.134  16.229  0.00  0.00    +0.000 A 
ATOM      6  C   UNL     1       5.218   4.745  16.335  0.00  0.00    +0.000 A 
ATOM      7  C   UNL     1       4.285   4.220  17.205  0.00  0.00    +0.000 A 
ATOM      8  O   UNL     1       4.090   2.866  17.414  0.00  0.00    +0.000 OA
ATOM      9  C   UNL     1       3.047   2.846  18.343  0.00  0.00    +0.000 A 
ATOM     10  O   UNL     1       2.579   1.813  18.794  0.00  0.00    +0.000 OA
ATOM     11  N   UNL     1       2.641   4.133  18.659  0.00  0.00    +0.000 N 
ATOM     12  C   UNL     1       1.611   4.457  19.596  0.00  0.00    +0.000 C 
ATOM     13  C   UNL     1       3.435   5.021  17.948  0.00  0.00    +0.000 A 
ENDBRANCH   2   3
BRANCH   1  16
ATOM     14  C   UNL     1      -0.830  10.796  18.806  0.00  0.00    +0.000 A 
ATOM     15  C   UNL     1       0.104  10.041  18.075  0.00  0.00    +0.000 A 
ATOM     16  C   UNL     1       1.112   9.307  18.703  0.00  0.00    +0.000 A 
ATOM     17  C   UNL     1       1.266   9.458  20.078  0.00  0.00    +0.000 A 
ATOM     18  C   UNL     1       0.402  10.281  20.823  0.00  0.00    +0.000 A 
ATOM     19  C   UNL     1      -0.673  10.952  20.197  0.00  0.00    +0.000 A 
BRANCH  14  21
ATOM     20  C   UNL     1      -2.945  10.484  17.781  0.00  0.00    +0.000 C 
ATOM     21  O   UNL     1      -1.890  11.379  18.155  0.00  0.00    +0.000 OA
ENDBRANCH  14  21
BRANCH  18  22
ATOM     22  O   UNL     1       0.760  10.337  22.151  0.00  0.00    +0.000 OA
ATOM     23  C   UNL     1       0.117   9.443  23.050  0.00  0.00    +0.000 C 
ENDBRANCH  18  22
BRANCH  19  24
ATOM     24  O   UNL     1      -1.457  11.705  21.026  0.00  0.00    +0.000 OA
ATOM     25  C   UNL     1      -1.238  13.095  21.192  0.00  0.00    +0.000 C 
ENDBRANCH  19  24
ENDBRANCH   1  16
TORSDOF 5
ENDMDL
MODEL 3
REMARK VINA RESULT:      -7.4      1.302      3.486
REMARK  Name = 
REMARK  9 active torsions:
REMARK  status: ('A' for Active; 'I' for Inactive)
REMARK    1  A    between atoms: C_1  and  O_2
REMARK    2  A    between atoms: O_2  and  C_3
REMARK    3  A    between atoms: C_5  and  C_6
REMARK    4  A    between atoms: C_7  and  C_8
REMARK    5  A    between atoms: N_16  and  C_17
REMARK    6  A    between atoms: C_20  and  O_21
REMARK    7  A    between atoms: O_21  and  C_22
REMARK    8  A    between atoms: C_23  and  O_24
REMARK    9  A    between atoms: O_24  and  C_25
REMARK                            x       y       z     vdW  Elec       q    Type
REMARK                         _______ _______ _______ _____ _____    ______ ____
ROOT
ATOM      1  C   UNL     1       1.295   7.228  20.805  0.00  0.00    +0.000 C 
ATOM      2  C   UNL     1       2.065   6.575  19.918  0.00  0.00    +0.000 C 
ENDROOT
BRANCH   2   3
ATOM      3  C   UNL     1       2.036   5.123  19.753  0.00  0.00    +0.000 A 
ATOM      4  C   UNL     1       1.206   4.349  20.581  0.00  0.00    +0.000 A 
ATOM      5  C   UNL     1       1.199   2.943  20.499  0.00  0.00    +0.000 A 
ATOM      6  C   UNL     1       2.009   2.281  19.576  0.00  0.00    +0.000 A 
ATOM      7  C   UNL     1       2.809   3.055  18.761  0.00  0.00    +0.000 A 
ATOM      8  O   UNL     1       3.669   2.546  17.803  0.00  0.00    +0.000 OA
ATOM      9  C   UNL     1       4.256   3.698  17.275  0.00  0.00    +0.000 A 
ATOM     10  O   UNL     1       5.087   3.670  16.381  0.00  0.00    +0.000 OA
ATOM     11  N   UNL     1       3.769   4.834  17.902  0.00  0.00    +0.000 N 
ATOM     12  C   UNL     1       4.151   6.173  17.577  0.00  0.00    +0.000 C 
ATOM     13  C   UNL     1       2.832   4.437  18.844  0.00  0.00    +0.000 A 
ENDBRANCH   2   3
BRANCH   1  16
ATOM     14  C   UNL     1       0.937  10.803  19.607  0.00  0.00    +0.000 A 
ATOM     15  C   UNL     1       1.388   9.475  19.708  0.00  0.00    +0.000 A 
ATOM     16  C   UNL     1       1.135   8.695  20.837  0.00  0.00    +0.000 A 
ATOM     17  C   UNL     1       0.547   9.312  21.937  0.00  0.00    +0.000 A 
ATOM     18  C   UNL     1       0.170  10.667  21.897  0.00  0.00    +0.000 A 
ATOM     19  C   UNL     1       0.345  11.431  20.720  0.00  0.00    +0.000 A 
BRANCH  14  21
ATOM     20  C   UNL     1       2.299  12.219  18.280  0.00  0.00    +0.000 C 
ATOM     21  O   UNL     1       1.080  11.480  18.420  0.00  0.00    +0.000 OA
ENDBRANCH  14  21
BRANCH  18  22
ATOM     22  O   UNL     1      -0.339  11.096  23.102  0.00  0.00    +0.000 OA
ATOM     23  C   UNL     1      -1.750  11.213  23.222  0.00  0.00    +0.000 C 
ENDBRANCH  18  22
BRANCH  19  24
ATOM     24  O   UNL     1      -0.078  12.728  20.795  0.00  0.00    +0.000 OA
ATOM     25  C   UNL     1      -1.268  13.157  20.158  0.00  0.00    +0.000 C 
ENDBRANCH  19  24
ENDBRANCH   1  16
TORSDOF 5
ENDMDL
MODEL 4
REMARK VINA RESULT:      -7.4      1.525      1.525
REMARK  Name = 
REMARK  9 active torsions:
REMARK  status: ('A' for Active; 'I' for Inactive)
REMARK    1  A    between atoms: C_1  and  O_2
REMARK    2  A    between atoms: O_2  and  C_3
REMARK    3  A    between atoms: C_5  and  C_6
REMARK    4  A    between atoms: C_7  and  C_8
REMARK    5  A    between atoms: N_16  and  C_17
REMARK    6  A    between atoms: C_20  and  O_21
REMARK    7  A    between atoms: O_21  and  C_22
REMARK    8  A    between atoms: C_23  and  O_24
REMARK    9  A    between atoms: O_24  and  C_25
REMARK                            x       y       z     vdW  Elec       q    Type
REMARK                         _______ _______ _______ _____ _____    ______ ____
ROOT
ATOM      1  C   UNL     1       2.086   8.491  18.359  0.00  0.00    +0.000 C 
ATOM      2  C   UNL     1       2.325   7.209  18.679  0.00  0.00    +0.000 C 
ENDROOT
BRANCH   2   3
ATOM      3  C   UNL     1       3.507   6.480  18.222  0.00  0.00    +0.000 A 
ATOM      4  C   UNL     1       4.282   7.006  17.177  0.00  0.00    +0.000 A 
ATOM      5  C   UNL     1       5.390   6.302  16.663  0.00  0.00    +0.000 A 
ATOM      6  C   UNL     1       5.754   5.065  17.194  0.00  0.00    +0.000 A 
ATOM      7  C   UNL     1       4.990   4.567  18.229  0.00  0.00    +0.000 A 
ATOM      8  O   UNL     1       5.222   3.354  18.855  0.00  0.00    +0.000 OA
ATOM      9  C   UNL     1       4.191   3.293  19.795  0.00  0.00    +0.000 A 
ATOM     10  O   UNL     1       4.051   2.356  20.566  0.00  0.00    +0.000 OA
ATOM     11  N   UNL     1       3.384   4.417  19.720  0.00  0.00    +0.000 N 
ATOM     12  C   UNL     1       2.257   4.669  20.561  0.00  0.00    +0.000 C 
ATOM     13  C   UNL     1       3.893   5.246  18.731  0.00  0.00    +0.000 A 
ENDBRANCH   2   3
BRANCH   1  16
ATOM     14  C   UNL     1       0.209  10.513  20.954  0.00  0.00    +0.000 A 
ATOM     15  C   UNL     1       0.977   9.493  20.367  0.00  0.00    +0.000 A 
ATOM     16  C   UNL     1       1.032   9.315  18.984  0.00  0.00    +0.000 A 
ATOM     17  C   UNL     1       0.184  10.086  18.194  0.00  0.00    +0.000 A 
ATOM     18  C   UNL     1      -0.665  11.052  18.764  0.00  0.00    +0.000 A 
ATOM     19  C   UNL     1      -0.652  11.292  20.157  0.00  0.00    +0.000 A 
BRANCH  14  21
ATOM     20  C   UNL     1      -0.560   9.945  23.123  0.00  0.00    +0.000 C 
ATOM     21  O   UNL     1       0.304  10.742  22.306  0.00  0.00    +0.000 OA
ENDBRANCH  14  21
BRANCH  18  22
ATOM     22  O   UNL     1      -1.460  11.661  17.820  0.00  0.00    +0.000 OA
ATOM     23  C   UNL     1      -2.661  11.003  17.439  0.00  0.00    +0.000 C 
ENDBRANCH  18  22
BRANCH  19  24
ATOM     24  O   UNL     1      -1.504  12.268  20.592  0.00  0.00    +0.000 OA
ATOM     25  C   UNL     1      -1.080  13.612  20.736  0.00  0.00    +0.000 C 
ENDBRANCH  19  24
ENDBRANCH   1  16
TORSDOF 5
ENDMDL
MODEL 5
REMARK VINA RESULT:      -7.3      2.274      8.005
REMARK  Name = 
REMARK  9 active torsions:
REMARK  status: ('A' for Active; 'I' for Inactive)
REMARK    1  A    between atoms: C_1  and  O_2
REMARK    2  A    between atoms: O_2  and  C_3
REMARK    3  A    between atoms: C_5  and  C_6
REMARK    4  A    between atoms: C_7  and  C_8
REMARK    5  A    between atoms: N_16  and  C_17
REMARK    6  A    between atoms: C_20  and  O_21
REMARK    7  A    between atoms: O_21  and  C_22
REMARK    8  A    between atoms: C_23  and  O_24
REMARK    9  A    between atoms: O_24  and  C_25
REMARK                            x       y       z     vdW  Elec       q    Type
REMARK                         _______ _______ _______ _____ _____    ______ ____
ROOT
ATOM      1  C   UNL     1       1.972   8.096  17.828  0.00  0.00    +0.000 C 
ATOM      2  C   UNL     1       1.694   8.803  18.935  0.00  0.00    +0.000 C 
ENDROOT
BRANCH   2   3
ATOM      3  C   UNL     1       0.517   9.663  19.058  0.00  0.00    +0.000 A 
ATOM      4  C   UNL     1      -0.136  10.110  17.899  0.00  0.00    +0.000 A 
ATOM      5  C   UNL     1      -1.232  10.993  17.972  0.00  0.00    +0.000 A 
ATOM      6  C   UNL     1      -1.706  11.435  19.207  0.00  0.00    +0.000 A 
ATOM      7  C   UNL     1      -1.062  10.977  20.337  0.00  0.00    +0.000 A 
ATOM      8  O   UNL     1      -1.411  11.330  21.630  0.00  0.00    +0.000 OA
ATOM      9  C   UNL     1      -0.469  10.644  22.399  0.00  0.00    +0.000 A 
ATOM     10  O   UNL     1      -0.445  10.693  23.619  0.00  0.00    +0.000 OA
ATOM     11  N   UNL     1       0.401   9.926  21.594  0.00  0.00    +0.000 N 
ATOM     12  C   UNL     1       1.464   9.100  22.074  0.00  0.00    +0.000 C 
ATOM     13  C   UNL     1       0.024  10.120  20.274  0.00  0.00    +0.000 A 
ENDBRANCH   2   3
BRANCH   1  16
ATOM     14  C   UNL     1       3.587   4.676  17.616  0.00  0.00    +0.000 A 
ATOM     15  C   UNL     1       2.714   5.711  17.994  0.00  0.00    +0.000 A 
ATOM     16  C   UNL     1       3.014   7.053  17.754  0.00  0.00    +0.000 A 
ATOM     17  C   UNL     1       4.279   7.359  17.259  0.00  0.00    +0.000 A 
ATOM     18  C   UNL     1       5.208   6.347  16.959  0.00  0.00    +0.000 A 
ATOM     19  C   UNL     1       4.868   4.984  17.118  0.00  0.00    +0.000 A 
BRANCH  14  21
ATOM     20  C   UNL     1       3.510   2.739  18.981  0.00  0.00    +0.000 C 
ATOM     21  O   UNL     1       3.182   3.369  17.737  0.00  0.00    +0.000 OA
ENDBRANCH  14  21
BRANCH  18  22
ATOM     22  O   UNL     1       6.413   6.862  16.538  0.00  0.00    +0.000 OA
ATOM     23  C   UNL     1       7.372   7.203  17.531  0.00  0.00    +0.000 C 
ENDBRANCH  18  22
BRANCH  19  24
ATOM     24  O   UNL     1       5.844   4.091  16.775  0.00  0.00    +0.000 OA
ATOM     25  C   UNL     1       6.062   3.713  15.428  0.00  0.00    +0.000 C 
ENDBRANCH  19  24
ENDBRANCH   1  16
TORSDOF 5
ENDMDL
MODEL 6
REMARK VINA RESULT:      -7.3      0.786      2.525
REMARK  Name = 
REMARK  9 active torsions:
REMARK  status: ('A' for Active; 'I' for Inactive)
REMARK    1  A    between atoms: C_1  and  O_2
REMARK    2  A    between atoms: O_2  and  C_3
REMARK    3  A    between atoms: C_5  and  C_6
REMARK    4  A    between atoms: C_7  and  C_8
REMARK    5  A    between atoms: N_16  and  C_17
REMARK    6  A    between atoms: C_20  and  O_21
REMARK    7  A    between atoms: O_21  and  C_22
REMARK    8  A    between atoms: C_23  and  O_24
REMARK    9  A    between atoms: O_24  and  C_25
REMARK                            x       y       z     vdW  Elec       q    Type
REMARK                         _______ _______ _______ _____ _____    ______ ____
ROOT
ATOM      1  C   UNL     1       2.253   8.414  18.058  0.00  0.00    +0.000 C 
ATOM      2  C   UNL     1       2.681   7.238  18.544  0.00  0.00    +0.000 C 
ENDROOT
BRANCH   2   3
ATOM      3  C   UNL     1       3.533   6.323  17.785  0.00  0.00    +0.000 A 
ATOM      4  C   UNL     1       4.440   6.841  16.847  0.00  0.00    +0.000 A 
ATOM      5  C   UNL     1       5.231   5.991  16.049  0.00  0.00    +0.000 A 
ATOM      6  C   UNL     1       5.143   4.606  16.184  0.00  0.00    +0.000 A 
ATOM      7  C   UNL     1       4.257   4.112  17.119  0.00  0.00    +0.000 A 
ATOM      8  O   UNL     1       4.054   2.765  17.364  0.00  0.00    +0.000 OA
ATOM      9  C   UNL     1       3.069   2.779  18.354  0.00  0.00    +0.000 A 
ATOM     10  O   UNL     1       2.613   1.762  18.852  0.00  0.00    +0.000 OA
ATOM     11  N   UNL     1       2.704   4.078  18.671  0.00  0.00    +0.000 N 
ATOM     12  C   UNL     1       1.738   4.435  19.663  0.00  0.00    +0.000 C 
ATOM     13  C   UNL     1       3.467   4.940  17.898  0.00  0.00    +0.000 A 
ENDBRANCH   2   3
BRANCH   1  16
ATOM     14  C   UNL     1       0.617  11.695  19.010  0.00  0.00    +0.000 A 
ATOM     15  C   UNL     1       1.509  10.774  18.433  0.00  0.00    +0.000 A 
ATOM     16  C   UNL     1       1.589   9.452  18.871  0.00  0.00    +0.000 A 
ATOM     17  C   UNL     1       0.863   9.097  20.005  0.00  0.00    +0.000 A 
ATOM     18  C   UNL     1       0.033  10.024  20.659  0.00  0.00    +0.000 A 
ATOM     19  C   UNL     1      -0.116  11.338  20.159  0.00  0.00    +0.000 A 
BRANCH  14  21
ATOM     20  C   UNL     1       1.607  13.801  18.556  0.00  0.00    +0.000 C 
ATOM     21  O   UNL     1       0.467  12.940  18.447  0.00  0.00    +0.000 OA
ENDBRANCH  14  21
BRANCH  18  22
ATOM     22  O   UNL     1      -0.547   9.491  21.787  0.00  0.00    +0.000 OA
ATOM     23  C   UNL     1       0.218   9.479  22.985  0.00  0.00    +0.000 C 
ENDBRANCH  18  22
BRANCH  19  24
ATOM     24  O   UNL     1      -0.965  12.143  20.866  0.00  0.00    +0.000 OA
ATOM     25  C   UNL     1      -0.487  13.035  21.857  0.00  0.00    +0.000 C 
ENDBRANCH  19  24
ENDBRANCH   1  16
TORSDOF 5
ENDMDL
MODEL 7
REMARK VINA RESULT:      -7.3      2.043      8.463
REMARK  Name = 
REMARK  9 active torsions:
REMARK  status: ('A' for Active; 'I' for Inactive)
REMARK    1  A    between atoms: C_1  and  O_2
REMARK    2  A    between atoms: O_2  and  C_3
REMARK    3  A    between atoms: C_5  and  C_6
REMARK    4  A    between atoms: C_7  and  C_8
REMARK    5  A    between atoms: N_16  and  C_17
REMARK    6  A    between atoms: C_20  and  O_21
REMARK    7  A    between atoms: O_21  and  C_22
REMARK    8  A    between atoms: C_23  and  O_24
REMARK    9  A    between atoms: O_24  and  C_25
REMARK                            x       y       z     vdW  Elec       q    Type
REMARK                         _______ _______ _______ _____ _____    ______ ____
ROOT
ATOM      1  C   UNL     1       1.650   7.490  20.927  0.00  0.00    +0.000 C 
ATOM      2  C   UNL     1       0.421   8.019  20.809  0.00  0.00    +0.000 C 
ENDROOT
BRANCH   2   3
ATOM      3  C   UNL     1       0.049   9.309  21.388  0.00  0.00    +0.000 A 
ATOM      4  C   UNL     1      -0.523   9.352  22.670  0.00  0.00    +0.000 A 
ATOM      5  C   UNL     1      -0.956  10.568  23.236  0.00  0.00    +0.000 A 
ATOM      6  C   UNL     1      -0.812  11.767  22.539  0.00  0.00    +0.000 A 
ATOM      7  C   UNL     1      -0.236  11.710  21.287  0.00  0.00    +0.000 A 
ATOM      8  O   UNL     1      -0.031  12.812  20.473  0.00  0.00    +0.000 OA
ATOM      9  C   UNL     1       0.542  12.247  19.332  0.00  0.00    +0.000 A 
ATOM     10  O   UNL     1       0.881  12.907  18.363  0.00  0.00    +0.000 OA
ATOM     11  N   UNL     1       0.662  10.872  19.466  0.00  0.00    +0.000 N 
ATOM     12  C   UNL     1       1.231  10.003  18.484  0.00  0.00    +0.000 C 
ATOM     13  C   UNL     1       0.180  10.519  20.718  0.00  0.00    +0.000 A 
ENDBRANCH   2   3
BRANCH   1  16
ATOM     14  C   UNL     1       3.424   5.412  18.304  0.00  0.00    +0.000 A 
ATOM     15  C   UNL     1       2.682   6.447  18.900  0.00  0.00    +0.000 A 
ATOM     16  C   UNL     1       2.118   6.313  20.169  0.00  0.00    +0.000 A 
ATOM     17  C   UNL     1       2.181   5.064  20.781  0.00  0.00    +0.000 A 
ATOM     18  C   UNL     1       2.838   3.983  20.166  0.00  0.00    +0.000 A 
ATOM     19  C   UNL     1       3.486   4.147  18.920  0.00  0.00    +0.000 A 
BRANCH  14  21
ATOM     20  C   UNL     1       5.031   6.717  17.150  0.00  0.00    +0.000 C 
ATOM     21  O   UNL     1       4.084   5.643  17.121  0.00  0.00    +0.000 OA
ENDBRANCH  14  21
BRANCH  18  22
ATOM     22  O   UNL     1       2.735   2.828  20.907  0.00  0.00    +0.000 OA
ATOM     23  C   UNL     1       1.569   2.650  21.701  0.00  0.00    +0.000 C 
ENDBRANCH  18  22
BRANCH  19  24
ATOM     24  O   UNL     1       4.108   3.032  18.432  0.00  0.00    +0.000 OA
ATOM     25  C   UNL     1       3.372   1.946  17.899  0.00  0.00    +0.000 C 
ENDBRANCH  19  24
ENDBRANCH   1  16
TORSDOF 5
ENDMDL
MODEL 8
REMARK VINA RESULT:      -7.2      1.744      2.447
REMARK  Name = 
REMARK  9 active torsions:
REMARK  status: ('A' for Active; 'I' for Inactive)
REMARK    1  A    between atoms: C_1  and  O_2
REMARK    2  A    between atoms: O_2  and  C_3
REMARK    3  A    between atoms: C_5  and  C_6
REMARK    4  A    between atoms: C_7  and  C_8
REMARK    5  A    between atoms: N_16  and  C_17
REMARK    6  A    between atoms: C_20  and  O_21
REMARK    7  A    between atoms: O_21  and  C_22
REMARK    8  A    between atoms: C_23  and  O_24
REMARK    9  A    between atoms: O_24  and  C_25
REMARK                            x       y       z     vdW  Elec       q    Type
REMARK                         _______ _______ _______ _____ _____    ______ ____
ROOT
ATOM      1  C   UNL     1       1.959   8.639  17.851  0.00  0.00    +0.000 C 
ATOM      2  C   UNL     1       2.338   7.557  18.551  0.00  0.00    +0.000 C 
ENDROOT
BRANCH   2   3
ATOM      3  C   UNL     1       3.386   6.642  18.101  0.00  0.00    +0.000 A 
ATOM      4  C   UNL     1       4.199   7.003  17.015  0.00  0.00    +0.000 A 
ATOM      5  C   UNL     1       5.176   6.122  16.509  0.00  0.00    +0.000 A 
ATOM      6  C   UNL     1       5.371   4.869  17.089  0.00  0.00    +0.000 A 
ATOM      7  C   UNL     1       4.573   4.534  18.164  0.00  0.00    +0.000 A 
ATOM      8  O   UNL     1       4.643   3.327  18.840  0.00  0.00    +0.000 OA
ATOM      9  C   UNL     1       3.642   3.459  19.805  0.00  0.00    +0.000 A 
ATOM     10  O   UNL     1       3.389   2.587  20.622  0.00  0.00    +0.000 OA
ATOM     11  N   UNL     1       3.007   4.686  19.696  0.00  0.00    +0.000 N 
ATOM     12  C   UNL     1       1.954   5.138  20.551  0.00  0.00    +0.000 C 
ATOM     13  C   UNL     1       3.602   5.388  18.659  0.00  0.00    +0.000 A 
ENDBRANCH   2   3
BRANCH   1  16
ATOM     14  C   UNL     1      -1.192  10.576  18.665  0.00  0.00    +0.000 A 
ATOM     15  C   UNL     1      -0.249   9.811  17.956  0.00  0.00    +0.000 A 
ATOM     16  C   UNL     1       1.076   9.696  18.379  0.00  0.00    +0.000 A 
ATOM     17  C   UNL     1       1.487  10.484  19.451  0.00  0.00    +0.000 A 
ATOM     18  C   UNL     1       0.586  11.330  20.121  0.00  0.00    +0.000 A 
ATOM     19  C   UNL     1      -0.777  11.376  19.747  0.00  0.00    +0.000 A 
BRANCH  14  21
ATOM     20  C   UNL     1      -2.835  11.258  17.098  0.00  0.00    +0.000 C 
ATOM     21  O   UNL     1      -2.514  10.538  18.294  0.00  0.00    +0.000 OA
ENDBRANCH  14  21
BRANCH  18  22
ATOM     22  O   UNL     1       1.204  12.062  21.109  0.00  0.00    +0.000 OA
ATOM     23  C   UNL     1       1.976  13.189  20.716  0.00  0.00    +0.000 C 
ENDBRANCH  18  22
BRANCH  19  24
ATOM     24  O   UNL     1      -1.560  12.219  20.484  0.00  0.00    +0.000 OA
ATOM     25  C   UNL     1      -1.756  13.570  20.106  0.00  0.00    +0.000 C 
ENDBRANCH  19  24
ENDBRANCH   1  16
TORSDOF 5
ENDMDL
MODEL 9
REMARK VINA RESULT:      -7.2      2.194      8.553
REMARK  Name = 
REMARK  9 active torsions:
REMARK  status: ('A' for Active; 'I' for Inactive)
REMARK    1  A    between atoms: C_1  and  O_2
REMARK    2  A    between atoms: O_2  and  C_3
REMARK    3  A    between atoms: C_5  and  C_6
REMARK    4  A    between atoms: C_7  and  C_8
REMARK    5  A    between atoms: N_16  and  C_17
REMARK    6  A    between atoms: C_20  and  O_21
REMARK    7  A    between atoms: O_21  and  C_22
REMARK    8  A    between atoms: C_23  and  O_24
REMARK    9  A    between atoms: O_24  and  C_25
REMARK                            x       y       z     vdW  Elec       q    Type
REMARK                         _______ _______ _______ _____ _____    ______ ____
ROOT
ATOM      1  C   UNL     1       2.055   7.173  19.229  0.00  0.00    +0.000 C 
ATOM      2  C   UNL     1       1.732   8.475  19.161  0.00  0.00    +0.000 C 
ENDROOT
BRANCH   2   3
ATOM      3  C   UNL     1       1.071   9.191  20.251  0.00  0.00    +0.000 A 
ATOM      4  C   UNL     1       0.504   8.466  21.311  0.00  0.00    +0.000 A 
ATOM      5  C   UNL     1      -0.199   9.115  22.346  0.00  0.00    +0.000 A 
ATOM      6  C   UNL     1      -0.335  10.503  22.350  0.00  0.00    +0.000 A 
ATOM      7  C   UNL     1       0.239  11.202  21.309  0.00  0.00    +0.000 A 
ATOM      8  O   UNL     1       0.184  12.579  21.171  0.00  0.00    +0.000 OA
ATOM      9  C   UNL     1       0.874  12.795  19.976  0.00  0.00    +0.000 A 
ATOM     10  O   UNL     1       1.052  13.907  19.504  0.00  0.00    +0.000 OA
ATOM     11  N   UNL     1       1.308  11.597  19.431  0.00  0.00    +0.000 N 
ATOM     12  C   UNL     1       2.063  11.476  18.223  0.00  0.00    +0.000 C 
ATOM     13  C   UNL     1       0.920  10.572  20.281  0.00  0.00    +0.000 A 
ENDBRANCH   2   3
BRANCH   1  16
ATOM     14  C   UNL     1       5.012   6.429  16.982  0.00  0.00    +0.000 A 
ATOM     15  C   UNL     1       3.995   7.135  17.649  0.00  0.00    +0.000 A 
ATOM     16  C   UNL     1       2.917   6.483  18.249  0.00  0.00    +0.000 A 
ATOM     17  C   UNL     1       2.789   5.113  18.044  0.00  0.00    +0.000 A 
ATOM     18  C   UNL     1       3.743   4.395  17.301  0.00  0.00    +0.000 A 
ATOM     19  C   UNL     1       4.882   5.043  16.771  0.00  0.00    +0.000 A 
BRANCH  14  21
ATOM     20  C   UNL     1       7.226   7.131  17.455  0.00  0.00    +0.000 C 
ATOM     21  O   UNL     1       6.126   7.100  16.538  0.00  0.00    +0.000 OA
ENDBRANCH  14  21
BRANCH  18  22
ATOM     22  O   UNL     1       3.402   3.068  17.168  0.00  0.00    +0.000 OA
ATOM     23  C   UNL     1       3.482   2.243  18.324  0.00  0.00    +0.000 C 
ENDBRANCH  18  22
BRANCH  19  24
ATOM     24  O   UNL     1       5.749   4.239  16.085  0.00  0.00    +0.000 OA
ATOM     25  C   UNL     1       5.773   4.211  14.669  0.00  0.00    +0.000 C 
ENDBRANCH  19  24
ENDBRANCH   1  16
TORSDOF 5
ENDMDL
