MODEL 1
REMARK VINA RESULT:      -8.0      0.000      0.000
REMARK  Name = 
REMARK  4 active torsions:
REMARK  status: ('A' for Active; 'I' for Inactive)
REMARK    1  A    between atoms: C_2  and  C_3
REMARK    2  A    between atoms: C_9  and  N_10
REMARK    3  A    between atoms: C_14  and  C_15
REMARK    4  A    between atoms: N_26  and  C_27
REMARK                            x       y       z     vdW  Elec       q    Type
REMARK                         _______ _______ _______ _____ _____    ______ ____
ROOT
ATOM      1  C   UNL     1      -1.991  12.417  20.594  0.00  0.00    +0.000 A 
ATOM      2  N   UNL     1      -1.642  12.000  19.413  0.00  0.00    +0.000 NA
ATOM      3  C   UNL     1      -2.580  11.716  18.429  0.00  0.00    +0.000 A 
ATOM      4  C   UNL     1      -2.111  11.157  17.232  0.00  0.00    +0.000 A 
ATOM      5  C   UNL     1      -2.988  10.824  16.205  0.00  0.00    +0.000 A 
ATOM      6  C   UNL     1      -4.345  11.077  16.359  0.00  0.00    +0.000 A 
ATOM      7  C   UNL     1      -4.828  11.640  17.549  0.00  0.00    +0.000 A 
ATOM      8 CL   UNL     1      -6.532  11.938  17.588  0.00  0.00    +0.000 Cl
ATOM      9  C   UNL     1      -3.940  11.936  18.601  0.00  0.00    +0.000 A 
ATOM     10  C   UNL     1      -4.339  12.411  19.935  0.00  0.00    +0.000 A 
ATOM     11  O   UNL     1      -5.540  12.519  20.184  0.00  0.00    +0.000 OA
ATOM     12  N   UNL     1      -3.333  12.688  20.896  0.00  0.00    +0.000 N 
ENDROOT
BRANCH  12  13
ATOM     13  C   UNL     1      -3.923  13.119  22.218  0.00  0.00    +0.000 C 
ATOM     14  C   UNL     1      -3.950  14.623  22.500  0.00  0.00    +0.000 C 
ATOM     15  C   UNL     1      -4.213  14.988  23.952  0.00  0.00    +0.000 C 
ATOM     16  O   UNL     1      -3.516  14.116  24.836  0.00  0.00    +0.000 OA
ATOM     17  C   UNL     1      -3.974  12.775  24.707  0.00  0.00    +0.000 C 
ATOM     18  C   UNL     1      -3.507  12.210  23.376  0.00  0.00    +0.000 C 
ENDBRANCH  12  13
BRANCH   1  23
ATOM     19  N   UNL     1       0.550  12.334  20.941  0.00  0.00    +0.000 N 
ATOM     20  C   UNL     1       1.237  13.582  20.663  0.00  0.00    +0.000 C 
ATOM     21  C   UNL     1       0.858  14.442  21.841  0.00  0.00    +0.000 C 
ATOM     22  C   UNL     1      -0.570  14.019  22.127  0.00  0.00    +0.000 C 
ATOM     23  C   UNL     1      -0.769  12.577  21.617  0.00  0.00    +0.000 C 
BRANCH  19  30
ATOM     24  C   UNL     1       0.901   9.910  21.123  0.00  0.00    +0.000 A 
ATOM     25  C   UNL     1       1.232   8.751  20.428  0.00  0.00    +0.000 A 
ATOM     26  N   UNL     1       1.355   7.507  21.057  0.00  0.00    +0.000 N 
ATOM     27  N   UNL     1       1.535   8.752  19.124  0.00  0.00    +0.000 NA
ATOM     28  C   UNL     1       1.525   9.950  18.528  0.00  0.00    +0.000 A 
ATOM     29  N   UNL     1       1.248  11.127  19.107  0.00  0.00    +0.000 NA
ATOM     30  C   UNL     1       0.910  11.118  20.416  0.00  0.00    +0.000 A 
ATOM     31  H   UNL     1       0.574   7.259  21.653  0.00  0.00    +0.000 HD
ATOM     32  H   UNL     1       1.550   6.801  20.353  0.00  0.00    +0.000 HD
BRANCH  24  34
ATOM     33  N   UNL     1       0.292   9.707  23.634  0.00  0.00    +0.000 NA
ATOM     34  C   UNL     1       0.604   9.802  22.516  0.00  0.00    +0.000 C 
ENDBRANCH  24  34
ENDBRANCH  19  30
ENDBRANCH   1  23
TORSDOF 4
ENDMDL
MODEL 2
REMARK VINA RESULT:      -7.7      5.784      9.240
REMARK  Name = 
REMARK  4 active torsions:
REMARK  status: ('A' for Active; 'I' for Inactive)
REMARK    1  A    between atoms: C_2  and  C_3
REMARK    2  A    between atoms: C_9  and  N_10
REMARK    3  A    between atoms: C_14  and  C_15
REMARK    4  A    between atoms: N_26  and  C_27
REMARK                            x       y       z     vdW  Elec       q    Type
REMARK                         _______ _______ _______ _____ _____    ______ ____
ROOT
ATOM      1  C   UNL     1       2.830   5.987  18.244  0.00  0.00    +0.000 A 
ATOM      2  N   UNL     1       2.829   7.217  17.824  0.00  0.00    +0.000 NA
ATOM      3  C   UNL     1       2.186   8.231  18.523  0.00  0.00    +0.000 A 
ATOM      4  C   UNL     1       2.138   9.498  17.925  0.00  0.00    +0.000 A 
ATOM      5  C   UNL     1       1.495  10.561  18.551  0.00  0.00    +0.000 A 
ATOM      6  C   UNL     1       0.916  10.368  19.799  0.00  0.00    +0.000 A 
ATOM      7  C   UNL     1       0.960   9.107  20.410  0.00  0.00    +0.000 A 
ATOM      8 CL   UNL     1       0.236   9.020  21.980  0.00  0.00    +0.000 Cl
ATOM      9  C   UNL     1       1.577   8.025  19.754  0.00  0.00    +0.000 A 
ATOM     10  C   UNL     1       1.579   6.635  20.235  0.00  0.00    +0.000 A 
ATOM     11  O   UNL     1       0.959   6.369  21.265  0.00  0.00    +0.000 OA
ATOM     12  N   UNL     1       2.257   5.646  19.477  0.00  0.00    +0.000 N 
ENDROOT
BRANCH  12  13
ATOM     13  C   UNL     1       2.118   4.273  20.092  0.00  0.00    +0.000 C 
ATOM     14  C   UNL     1       0.726   3.637  20.044  0.00  0.00    +0.000 C 
ATOM     15  C   UNL     1       0.546   2.443  20.967  0.00  0.00    +0.000 C 
ATOM     16  O   UNL     1       1.178   2.664  22.223  0.00  0.00    +0.000 OA
ATOM     17  C   UNL     1       2.587   2.802  22.074  0.00  0.00    +0.000 C 
ATOM     18  C   UNL     1       2.893   4.129  21.402  0.00  0.00    +0.000 C 
ENDBRANCH  12  13
BRANCH   1  23
ATOM     19  N   UNL     1       4.795   4.393  17.817  0.00  0.00    +0.000 N 
ATOM     20  C   UNL     1       4.594   3.043  18.312  0.00  0.00    +0.000 C 
ATOM     21  C   UNL     1       3.601   2.473  17.334  0.00  0.00    +0.000 C 
ATOM     22  C   UNL     1       2.717   3.662  17.012  0.00  0.00    +0.000 C 
ATOM     23  C   UNL     1       3.529   4.954  17.238  0.00  0.00    +0.000 C 
BRANCH  19  30
ATOM     24  C   UNL     1       6.331   6.241  17.307  0.00  0.00    +0.000 A 
ATOM     25  C   UNL     1       7.436   6.960  17.752  0.00  0.00    +0.000 A 
ATOM     26  N   UNL     1       8.013   7.990  17.001  0.00  0.00    +0.000 N 
ATOM     27  N   UNL     1       8.077   6.670  18.890  0.00  0.00    +0.000 NA
ATOM     28  C   UNL     1       7.602   5.620  19.571  0.00  0.00    +0.000 A 
ATOM     29  N   UNL     1       6.566   4.844  19.220  0.00  0.00    +0.000 NA
ATOM     30  C   UNL     1       5.901   5.161  18.087  0.00  0.00    +0.000 A 
ATOM     31  H   UNL     1       7.354   8.678  16.657  0.00  0.00    +0.000 HD
ATOM     32  H   UNL     1       8.768   8.405  17.539  0.00  0.00    +0.000 HD
BRANCH  24  34
ATOM     33  N   UNL     1       5.189   6.982  15.102  0.00  0.00    +0.000 NA
ATOM     34  C   UNL     1       5.726   6.624  16.072  0.00  0.00    +0.000 C 
ENDBRANCH  24  34
ENDBRANCH  19  30
ENDBRANCH   1  23
TORSDOF 4
ENDMDL
MODEL 3
REMARK VINA RESULT:      -7.6      0.751      1.821
REMARK  Name = 
REMARK  4 active torsions:
REMARK  status: ('A' for Active; 'I' for Inactive)
REMARK    1  A    between atoms: C_2  and  C_3
REMARK    2  A    between atoms: C_9  and  N_10
REMARK    3  A    between atoms: C_14  and  C_15
REMARK    4  A    between atoms: N_26  and  C_27
REMARK                            x       y       z     vdW  Elec       q    Type
REMARK                         _______ _______ _______ _____ _____    ______ ____
ROOT
ATOM      1  C   UNL     1      -2.033  12.888  20.347  0.00  0.00    +0.000 A 
ATOM      2  N   UNL     1      -1.699  12.447  19.171  0.00  0.00    +0.000 NA
ATOM      3  C   UNL     1      -2.634  11.905  18.298  0.00  0.00    +0.000 A 
ATOM      4  C   UNL     1      -2.155  11.346  17.105  0.00  0.00    +0.000 A 
ATOM      5  C   UNL     1      -3.024  10.764  16.188  0.00  0.00    +0.000 A 
ATOM      6  C   UNL     1      -4.389  10.765  16.447  0.00  0.00    +0.000 A 
ATOM      7  C   UNL     1      -4.882  11.324  17.633  0.00  0.00    +0.000 A 
ATOM      8 CL   UNL     1      -6.604  11.293  17.807  0.00  0.00    +0.000 Cl
ATOM      9  C   UNL     1      -3.994  11.874  18.578  0.00  0.00    +0.000 A 
ATOM     10  C   UNL     1      -4.377  12.376  19.906  0.00  0.00    +0.000 A 
ATOM     11  O   UNL     1      -5.553  12.273  20.255  0.00  0.00    +0.000 OA
ATOM     12  N   UNL     1      -3.376  12.922  20.750  0.00  0.00    +0.000 N 
ENDROOT
BRANCH  12  13
ATOM     13  C   UNL     1      -3.938  13.344  22.088  0.00  0.00    +0.000 C 
ATOM     14  C   UNL     1      -3.932  14.844  22.393  0.00  0.00    +0.000 C 
ATOM     15  C   UNL     1      -4.166  15.191  23.854  0.00  0.00    +0.000 C 
ATOM     16  O   UNL     1      -3.473  14.293  24.714  0.00  0.00    +0.000 OA
ATOM     17  C   UNL     1      -3.959  12.963  24.571  0.00  0.00    +0.000 C 
ATOM     18  C   UNL     1      -3.523  12.410  23.226  0.00  0.00    +0.000 C 
ENDBRANCH  12  13
BRANCH   1  23
ATOM     19  N   UNL     1       0.368  12.423  21.121  0.00  0.00    +0.000 N 
ATOM     20  C   UNL     1       1.397  12.963  20.250  0.00  0.00    +0.000 C 
ATOM     21  C   UNL     1       1.332  14.441  20.534  0.00  0.00    +0.000 C 
ATOM     22  C   UNL     1      -0.149  14.682  20.757  0.00  0.00    +0.000 C 
ATOM     23  C   UNL     1      -0.793  13.367  21.242  0.00  0.00    +0.000 C 
BRANCH  19  30
ATOM     24  C   UNL     1       0.718  10.014  20.790  0.00  0.00    +0.000 A 
ATOM     25  C   UNL     1       0.674   8.763  21.396  0.00  0.00    +0.000 A 
ATOM     26  N   UNL     1       0.945   7.581  20.698  0.00  0.00    +0.000 N 
ATOM     27  N   UNL     1       0.292   8.588  22.667  0.00  0.00    +0.000 NA
ATOM     28  C   UNL     1      -0.072   9.697  23.320  0.00  0.00    +0.000 A 
ATOM     29  N   UNL     1      -0.094  10.944  22.826  0.00  0.00    +0.000 NA
ATOM     30  C   UNL     1       0.324  11.121  21.552  0.00  0.00    +0.000 A 
ATOM     31  H   UNL     1       1.804   7.599  20.161  0.00  0.00    +0.000 HD
ATOM     32  H   UNL     1       0.905   6.800  21.347  0.00  0.00    +0.000 HD
BRANCH  24  34
ATOM     33  N   UNL     1       1.481  10.084  18.315  0.00  0.00    +0.000 NA
ATOM     34  C   UNL     1       1.129  10.092  19.425  0.00  0.00    +0.000 C 
ENDBRANCH  24  34
ENDBRANCH  19  30
ENDBRANCH   1  23
TORSDOF 4
ENDMDL
MODEL 4
REMARK VINA RESULT:      -7.1      3.284      6.623
REMARK  Name = 
REMARK  4 active torsions:
REMARK  status: ('A' for Active; 'I' for Inactive)
REMARK    1  A    between atoms: C_2  and  C_3
REMARK    2  A    between atoms: C_9  and  N_10
REMARK    3  A    between atoms: C_14  and  C_15
REMARK    4  A    between atoms: N_26  and  C_27
REMARK                            x       y       z     vdW  Elec       q    Type
REMARK                         _______ _______ _______ _____ _____    ______ ____
ROOT
ATOM      1  C   UNL     1      -1.226  12.759  19.986  0.00  0.00    +0.000 A 
ATOM      2  N   UNL     1      -1.323  13.895  19.362  0.00  0.00    +0.000 NA
ATOM      3  C   UNL     1      -0.256  14.781  19.281  0.00  0.00    +0.000 A 
ATOM      4  C   UNL     1      -0.497  16.031  18.693  0.00  0.00    +0.000 A 
ATOM      5  C   UNL     1       0.513  16.982  18.593  0.00  0.00    +0.000 A 
ATOM      6  C   UNL     1       1.786  16.675  19.057  0.00  0.00    +0.000 A 
ATOM      7  C   UNL     1       2.043  15.428  19.643  0.00  0.00    +0.000 A 
ATOM      8 CL   UNL     1       3.680  15.166  20.139  0.00  0.00    +0.000 Cl
ATOM      9  C   UNL     1       1.007  14.485  19.779  0.00  0.00    +0.000 A 
ATOM     10  C   UNL     1       1.121  13.198  20.483  0.00  0.00    +0.000 A 
ATOM     11  O   UNL     1       2.184  12.928  21.042  0.00  0.00    +0.000 OA
ATOM     12  N   UNL     1      -0.004  12.336  20.527  0.00  0.00    +0.000 N 
ENDROOT
BRANCH  12  13
ATOM     13  C   UNL     1       0.278  11.085  21.327  0.00  0.00    +0.000 C 
ATOM     14  C   UNL     1       0.415   9.781  20.537  0.00  0.00    +0.000 C 
ATOM     15  C   UNL     1       0.343   8.520  21.383  0.00  0.00    +0.000 C 
ATOM     16  O   UNL     1      -0.657   8.634  22.390  0.00  0.00    +0.000 OA
ATOM     17  C   UNL     1      -0.347   9.675  23.310  0.00  0.00    +0.000 C 
ATOM     18  C   UNL     1      -0.526  11.020  22.627  0.00  0.00    +0.000 C 
ENDBRANCH  12  13
BRANCH   1  23
ATOM     19  N   UNL     1      -3.687  12.743  20.711  0.00  0.00    +0.000 N 
ATOM     20  C   UNL     1      -4.609  13.273  19.723  0.00  0.00    +0.000 C 
ATOM     21  C   UNL     1      -4.654  12.181  18.687  0.00  0.00    +0.000 C 
ATOM     22  C   UNL     1      -3.231  11.655  18.684  0.00  0.00    +0.000 C 
ATOM     23  C   UNL     1      -2.599  11.937  20.062  0.00  0.00    +0.000 C 
BRANCH  19  30
ATOM     24  C   UNL     1      -3.528  14.474  22.446  0.00  0.00    +0.000 A 
ATOM     25  C   UNL     1      -3.562  14.722  23.815  0.00  0.00    +0.000 A 
ATOM     26  N   UNL     1      -3.354  15.997  24.352  0.00  0.00    +0.000 N 
ATOM     27  N   UNL     1      -3.715  13.750  24.722  0.00  0.00    +0.000 NA
ATOM     28  C   UNL     1      -3.812  12.509  24.231  0.00  0.00    +0.000 A 
ATOM     29  N   UNL     1      -3.763  12.157  22.937  0.00  0.00    +0.000 NA
ATOM     30  C   UNL     1      -3.642  13.145  22.023  0.00  0.00    +0.000 A 
ATOM     31  H   UNL     1      -3.910  16.728  23.924  0.00  0.00    +0.000 HD
ATOM     32  H   UNL     1      -3.475  15.952  25.360  0.00  0.00    +0.000 HD
BRANCH  24  34
ATOM     33  N   UNL     1      -3.205  16.527  20.899  0.00  0.00    +0.000 NA
ATOM     34  C   UNL     1      -3.349  15.581  21.562  0.00  0.00    +0.000 C 
ENDBRANCH  24  34
ENDBRANCH  19  30
ENDBRANCH   1  23
TORSDOF 4
ENDMDL
MODEL 5
REMARK VINA RESULT:      -7.1      0.793      1.152
REMARK  Name = 
REMARK  4 active torsions:
REMARK  status: ('A' for Active; 'I' for Inactive)
REMARK    1  A    between atoms: C_2  and  C_3
REMARK    2  A    between atoms: C_9  and  N_10
REMARK    3  A    between atoms: C_14  and  C_15
REMARK    4  A    between atoms: N_26  and  C_27
REMARK                            x       y       z     vdW  Elec       q    Type
REMARK                         _______ _______ _______ _____ _____    ______ ____
ROOT
ATOM      1  C   UNL     1      -1.876  12.372  20.496  0.00  0.00    +0.000 A 
ATOM      2  N   UNL     1      -1.558  11.746  19.402  0.00  0.00    +0.000 NA
ATOM      3  C   UNL     1      -2.500  11.458  18.422  0.00  0.00    +0.000 A 
ATOM      4  C   UNL     1      -2.083  10.674  17.337  0.00  0.00    +0.000 A 
ATOM      5  C   UNL     1      -2.970  10.323  16.325  0.00  0.00    +0.000 A 
ATOM      6  C   UNL     1      -4.279  10.784  16.376  0.00  0.00    +0.000 A 
ATOM      7  C   UNL     1      -4.709  11.573  17.452  0.00  0.00    +0.000 A 
ATOM      8 CL   UNL     1      -6.352  12.110  17.367  0.00  0.00    +0.000 Cl
ATOM      9  C   UNL     1      -3.818  11.890  18.496  0.00  0.00    +0.000 A 
ATOM     10  C   UNL     1      -4.180  12.602  19.730  0.00  0.00    +0.000 A 
ATOM     11  O   UNL     1      -5.359  12.912  19.904  0.00  0.00    +0.000 OA
ATOM     12  N   UNL     1      -3.172  12.869  20.692  0.00  0.00    +0.000 N 
ENDROOT
BRANCH  12  13
ATOM     13  C   UNL     1      -3.730  13.564  21.912  0.00  0.00    +0.000 C 
ATOM     14  C   UNL     1      -4.724  12.768  22.762  0.00  0.00    +0.000 C 
ATOM     15  C   UNL     1      -5.518  13.603  23.753  0.00  0.00    +0.000 C 
ATOM     16  O   UNL     1      -5.915  14.843  23.177  0.00  0.00    +0.000 OA
ATOM     17  C   UNL     1      -4.786  15.644  22.845  0.00  0.00    +0.000 C 
ATOM     18  C   UNL     1      -4.070  15.033  21.654  0.00  0.00    +0.000 C 
ENDBRANCH  12  13
BRANCH   1  23
ATOM     19  N   UNL     1       0.654  12.240  20.896  0.00  0.00    +0.000 N 
ATOM     20  C   UNL     1       1.370  13.477  20.640  0.00  0.00    +0.000 C 
ATOM     21  C   UNL     1       0.983  14.337  21.814  0.00  0.00    +0.000 C 
ATOM     22  C   UNL     1      -0.459  13.940  22.068  0.00  0.00    +0.000 C 
ATOM     23  C   UNL     1      -0.673  12.504  21.546  0.00  0.00    +0.000 C 
BRANCH  19  30
ATOM     24  C   UNL     1       0.999   9.815  21.085  0.00  0.00    +0.000 A 
ATOM     25  C   UNL     1       1.316   8.652  20.391  0.00  0.00    +0.000 A 
ATOM     26  N   UNL     1       1.444   7.411  21.024  0.00  0.00    +0.000 N 
ATOM     27  N   UNL     1       1.602   8.646  19.083  0.00  0.00    +0.000 NA
ATOM     28  C   UNL     1       1.587   9.841  18.481  0.00  0.00    +0.000 A 
ATOM     29  N   UNL     1       1.323  11.022  19.059  0.00  0.00    +0.000 NA
ATOM     30  C   UNL     1       1.003  11.020  20.372  0.00  0.00    +0.000 A 
ATOM     31  H   UNL     1       0.670   7.169  21.632  0.00  0.00    +0.000 HD
ATOM     32  H   UNL     1       1.627   6.701  20.321  0.00  0.00    +0.000 HD
BRANCH  24  34
ATOM     33  N   UNL     1       0.425   9.643  23.606  0.00  0.00    +0.000 NA
ATOM     34  C   UNL     1       0.722   9.716  22.482  0.00  0.00    +0.000 C 
ENDBRANCH  24  34
ENDBRANCH  19  30
ENDBRANCH   1  23
TORSDOF 4
ENDMDL
MODEL 6
REMARK VINA RESULT:      -7.0      3.114      5.391
REMARK  Name = 
REMARK  4 active torsions:
REMARK  status: ('A' for Active; 'I' for Inactive)
REMARK    1  A    between atoms: C_2  and  C_3
REMARK    2  A    between atoms: C_9  and  N_10
REMARK    3  A    between atoms: C_14  and  C_15
REMARK    4  A    between atoms: N_26  and  C_27
REMARK                            x       y       z     vdW  Elec       q    Type
REMARK                         _______ _______ _______ _____ _____    ______ ____
ROOT
ATOM      1  C   UNL     1       0.148  11.695  20.445  0.00  0.00    +0.000 A 
ATOM      2  N   UNL     1       1.180  12.183  21.066  0.00  0.00    +0.000 NA
ATOM      3  C   UNL     1       1.752  13.394  20.699  0.00  0.00    +0.000 A 
ATOM      4  C   UNL     1       2.934  13.774  21.350  0.00  0.00    +0.000 A 
ATOM      5  C   UNL     1       3.581  14.961  21.025  0.00  0.00    +0.000 A 
ATOM      6  C   UNL     1       3.030  15.796  20.062  0.00  0.00    +0.000 A 
ATOM      7  C   UNL     1       1.846  15.431  19.405  0.00  0.00    +0.000 A 
ATOM      8 CL   UNL     1       1.250  16.583  18.259  0.00  0.00    +0.000 Cl
ATOM      9  C   UNL     1       1.218  14.208  19.709  0.00  0.00    +0.000 A 
ATOM     10  C   UNL     1       0.047  13.661  19.006  0.00  0.00    +0.000 A 
ATOM     11  O   UNL     1      -0.404  14.285  18.045  0.00  0.00    +0.000 OA
ATOM     12  N   UNL     1      -0.493  12.420  19.431  0.00  0.00    +0.000 N 
ENDROOT
BRANCH  12  13
ATOM     13  C   UNL     1      -1.658  11.991  18.571  0.00  0.00    +0.000 C 
ATOM     14  C   UNL     1      -3.053  12.131  19.185  0.00  0.00    +0.000 C 
ATOM     15  C   UNL     1      -4.146  11.373  18.447  0.00  0.00    +0.000 C 
ATOM     16  O   UNL     1      -3.687  10.095  18.021  0.00  0.00    +0.000 OA
ATOM     17  C   UNL     1      -2.625  10.215  17.080  0.00  0.00    +0.000 C 
ATOM     18  C   UNL     1      -1.376  10.706  17.791  0.00  0.00    +0.000 C 
ENDBRANCH  12  13
BRANCH   1  23
ATOM     19  N   UNL     1       0.870   9.281  20.929  0.00  0.00    +0.000 N 
ATOM     20  C   UNL     1       1.396   9.066  22.266  0.00  0.00    +0.000 C 
ATOM     21  C   UNL     1       0.160   9.127  23.125  0.00  0.00    +0.000 C 
ATOM     22  C   UNL     1      -0.682  10.185  22.438  0.00  0.00    +0.000 C 
ATOM     23  C   UNL     1      -0.287  10.237  20.947  0.00  0.00    +0.000 C 
BRANCH  19  30
ATOM     24  C   UNL     1       1.904   7.583  19.486  0.00  0.00    +0.000 A 
ATOM     25  C   UNL     1       2.479   7.343  18.242  0.00  0.00    +0.000 A 
ATOM     26  N   UNL     1       3.006   6.096  17.888  0.00  0.00    +0.000 N 
ATOM     27  N   UNL     1       2.644   8.303  17.324  0.00  0.00    +0.000 NA
ATOM     28  C   UNL     1       2.241   9.526  17.686  0.00  0.00    +0.000 A 
ATOM     29  N   UNL     1       1.701   9.873  18.864  0.00  0.00    +0.000 NA
ATOM     30  C   UNL     1       1.506   8.894  19.776  0.00  0.00    +0.000 A 
ATOM     31  H   UNL     1       2.387   5.314  18.063  0.00  0.00    +0.000 HD
ATOM     32  H   UNL     1       3.324   6.136  16.923  0.00  0.00    +0.000 HD
BRANCH  24  34
ATOM     33  N   UNL     1       1.742   5.570  21.109  0.00  0.00    +0.000 NA
ATOM     34  C   UNL     1       1.784   6.493  20.399  0.00  0.00    +0.000 C 
ENDBRANCH  24  34
ENDBRANCH  19  30
ENDBRANCH   1  23
TORSDOF 4
ENDMDL
MODEL 7
REMARK VINA RESULT:      -7.0      1.664      2.609
REMARK  Name = 
REMARK  4 active torsions:
REMARK  status: ('A' for Active; 'I' for Inactive)
REMARK    1  A    between atoms: C_2  and  C_3
REMARK    2  A    between atoms: C_9  and  N_10
REMARK    3  A    between atoms: C_14  and  C_15
REMARK    4  A    between atoms: N_26  and  C_27
REMARK                            x       y       z     vdW  Elec       q    Type
REMARK                         _______ _______ _______ _____ _____    ______ ____
ROOT
ATOM      1  C   UNL     1      -3.143  13.044  21.492  0.00  0.00    +0.000 A 
ATOM      2  N   UNL     1      -2.584  12.593  20.409  0.00  0.00    +0.000 NA
ATOM      3  C   UNL     1      -3.333  12.168  19.319  0.00  0.00    +0.000 A 
ATOM      4  C   UNL     1      -2.641  11.585  18.248  0.00  0.00    +0.000 A 
ATOM      5  C   UNL     1      -3.319  11.114  17.129  0.00  0.00    +0.000 A 
ATOM      6  C   UNL     1      -4.700  11.250  17.061  0.00  0.00    +0.000 A 
ATOM      7  C   UNL     1      -5.404  11.835  18.123  0.00  0.00    +0.000 A 
ATOM      8 CL   UNL     1      -7.113  11.978  17.887  0.00  0.00    +0.000 Cl
ATOM      9  C   UNL     1      -4.717  12.272  19.271  0.00  0.00    +0.000 A 
ATOM     10  C   UNL     1      -5.354  12.786  20.494  0.00  0.00    +0.000 A 
ATOM     11  O   UNL     1      -6.583  12.798  20.553  0.00  0.00    +0.000 OA
ATOM     12  N   UNL     1      -4.533  13.209  21.571  0.00  0.00    +0.000 N 
ENDROOT
BRANCH  12  13
ATOM     13  C   UNL     1      -5.353  13.661  22.757  0.00  0.00    +0.000 C 
ATOM     14  C   UNL     1      -6.415  12.685  23.270  0.00  0.00    +0.000 C 
ATOM     15  C   UNL     1      -7.437  13.303  24.211  0.00  0.00    +0.000 C 
ATOM     16  O   UNL     1      -7.823  14.601  23.770  0.00  0.00    +0.000 OA
ATOM     17  C   UNL     1      -6.721  15.500  23.786  0.00  0.00    +0.000 C 
ATOM     18  C   UNL     1      -5.757  15.134  22.670  0.00  0.00    +0.000 C 
ENDBRANCH  12  13
BRANCH   1  23
ATOM     19  N   UNL     1      -0.726  12.899  22.339  0.00  0.00    +0.000 N 
ATOM     20  C   UNL     1       0.124  14.001  21.926  0.00  0.00    +0.000 C 
ATOM     21  C   UNL     1      -0.365  15.140  22.781  0.00  0.00    +0.000 C 
ATOM     22  C   UNL     1      -1.857  14.883  22.870  0.00  0.00    +0.000 C 
ATOM     23  C   UNL     1      -2.111  13.375  22.671  0.00  0.00    +0.000 C 
BRANCH  19  30
ATOM     24  C   UNL     1       0.280  11.043  21.083  0.00  0.00    +0.000 A 
ATOM     25  C   UNL     1       0.586   9.685  21.106  0.00  0.00    +0.000 A 
ATOM     26  N   UNL     1       1.176   9.031  20.019  0.00  0.00    +0.000 N 
ATOM     27  N   UNL     1       0.267   8.890  22.134  0.00  0.00    +0.000 NA
ATOM     28  C   UNL     1      -0.391   9.477  23.139  0.00  0.00    +0.000 A 
ATOM     29  N   UNL     1      -0.759  10.766  23.207  0.00  0.00    +0.000 NA
ATOM     30  C   UNL     1      -0.406  11.573  22.183  0.00  0.00    +0.000 A 
ATOM     31  H   UNL     1       1.996   9.494  19.646  0.00  0.00    +0.000 HD
ATOM     32  H   UNL     1       1.354   8.064  20.276  0.00  0.00    +0.000 HD
BRANCH  24  34
ATOM     33  N   UNL     1       1.014  12.375  18.986  0.00  0.00    +0.000 NA
ATOM     34  C   UNL     1       0.654  11.802  19.934  0.00  0.00    +0.000 C 
ENDBRANCH  24  34
ENDBRANCH  19  30
ENDBRANCH   1  23
TORSDOF 4
ENDMDL
MODEL 8
REMARK VINA RESULT:      -7.0      2.959      5.702
REMARK  Name = 
REMARK  4 active torsions:
REMARK  status: ('A' for Active; 'I' for Inactive)
REMARK    1  A    between atoms: C_2  and  C_3
REMARK    2  A    between atoms: C_9  and  N_10
REMARK    3  A    between atoms: C_14  and  C_15
REMARK    4  A    between atoms: N_26  and  C_27
REMARK                            x       y       z     vdW  Elec       q    Type
REMARK                         _______ _______ _______ _____ _____    ______ ____
ROOT
ATOM      1  C   UNL     1      -0.655  13.225  20.750  0.00  0.00    +0.000 A 
ATOM      2  N   UNL     1      -1.782  12.793  21.235  0.00  0.00    +0.000 NA
ATOM      3  C   UNL     1      -2.257  13.212  22.471  0.00  0.00    +0.000 A 
ATOM      4  C   UNL     1      -3.418  12.597  22.959  0.00  0.00    +0.000 A 
ATOM      5  C   UNL     1      -3.946  12.944  24.198  0.00  0.00    +0.000 A 
ATOM      6  C   UNL     1      -3.328  13.937  24.948  0.00  0.00    +0.000 A 
ATOM      7  C   UNL     1      -2.169  14.564  24.470  0.00  0.00    +0.000 A 
ATOM      8 CL   UNL     1      -1.529  15.810  25.487  0.00  0.00    +0.000 Cl
ATOM      9  C   UNL     1      -1.615  14.179  23.234  0.00  0.00    +0.000 A 
ATOM     10  C   UNL     1      -0.342  14.673  22.687  0.00  0.00    +0.000 A 
ATOM     11  O   UNL     1       0.328  15.448  23.369  0.00  0.00    +0.000 OA
ATOM     12  N   UNL     1       0.087  14.209  21.417  0.00  0.00    +0.000 N 
ENDROOT
BRANCH  12  13
ATOM     13  C   UNL     1       1.431  14.783  21.035  0.00  0.00    +0.000 C 
ATOM     14  C   UNL     1       1.456  15.735  19.836  0.00  0.00    +0.000 C 
ATOM     15  C   UNL     1       2.842  16.003  19.272  0.00  0.00    +0.000 C 
ATOM     16  O   UNL     1       3.625  14.814  19.247  0.00  0.00    +0.000 OA
ATOM     17  C   UNL     1       3.854  14.319  20.561  0.00  0.00    +0.000 C 
ATOM     18  C   UNL     1       2.559  13.753  21.118  0.00  0.00    +0.000 C 
ENDBRANCH  12  13
BRANCH   1  23
ATOM     19  N   UNL     1      -0.633  11.088  19.330  0.00  0.00    +0.000 N 
ATOM     20  C   UNL     1      -1.821  10.892  18.518  0.00  0.00    +0.000 C 
ATOM     21  C   UNL     1      -1.650  11.913  17.424  0.00  0.00    +0.000 C 
ATOM     22  C   UNL     1      -0.997  13.078  18.142  0.00  0.00    +0.000 C 
ATOM     23  C   UNL     1      -0.233  12.535  19.367  0.00  0.00    +0.000 C 
BRANCH  19  30
ATOM     24  C   UNL     1       0.926   9.258  19.837  0.00  0.00    +0.000 A 
ATOM     25  C   UNL     1       1.393   8.402  20.828  0.00  0.00    +0.000 A 
ATOM     26  N   UNL     1       2.346   7.410  20.575  0.00  0.00    +0.000 N 
ATOM     27  N   UNL     1       0.908   8.408  22.076  0.00  0.00    +0.000 NA
ATOM     28  C   UNL     1      -0.079   9.280  22.310  0.00  0.00    +0.000 A 
ATOM     29  N   UNL     1      -0.621  10.129  21.424  0.00  0.00    +0.000 NA
ATOM     30  C   UNL     1      -0.107  10.142  20.174  0.00  0.00    +0.000 A 
ATOM     31  H   UNL     1       3.168   7.735  20.080  0.00  0.00    +0.000 HD
ATOM     32  H   UNL     1       2.574   6.943  21.448  0.00  0.00    +0.000 HD
BRANCH  24  34
ATOM     33  N   UNL     1       1.977   9.015  17.481  0.00  0.00    +0.000 NA
ATOM     34  C   UNL     1       1.501   9.164  18.534  0.00  0.00    +0.000 C 
ENDBRANCH  24  34
ENDBRANCH  19  30
ENDBRANCH   1  23
TORSDOF 4
ENDMDL
MODEL 9
REMARK VINA RESULT:      -7.0      3.432      6.643
REMARK  Name = 
REMARK  4 active torsions:
REMARK  status: ('A' for Active; 'I' for Inactive)
REMARK    1  A    between atoms: C_2  and  C_3
REMARK    2  A    between atoms: C_9  and  N_10
REMARK    3  A    between atoms: C_14  and  C_15
REMARK    4  A    between atoms: N_26  and  C_27
REMARK                            x       y       z     vdW  Elec       q    Type
REMARK                         _______ _______ _______ _____ _____    ______ ____
ROOT
ATOM      1  C   UNL     1      -4.226  12.898  20.324  0.00  0.00    +0.000 A 
ATOM      2  N   UNL     1      -4.560  12.088  19.364  0.00  0.00    +0.000 NA
ATOM      3  C   UNL     1      -3.608  11.408  18.614  0.00  0.00    +0.000 A 
ATOM      4  C   UNL     1      -4.063  10.654  17.524  0.00  0.00    +0.000 A 
ATOM      5  C   UNL     1      -3.172   9.961  16.710  0.00  0.00    +0.000 A 
ATOM      6  C   UNL     1      -1.815   9.995  17.003  0.00  0.00    +0.000 A 
ATOM      7  C   UNL     1      -1.346  10.742  18.092  0.00  0.00    +0.000 A 
ATOM      8 CL   UNL     1       0.362  10.662  18.364  0.00  0.00    +0.000 Cl
ATOM      9  C   UNL     1      -2.248  11.475  18.888  0.00  0.00    +0.000 A 
ATOM     10  C   UNL     1      -1.867  12.388  19.976  0.00  0.00    +0.000 A 
ATOM     11  O   UNL     1      -0.670  12.574  20.192  0.00  0.00    +0.000 OA
ATOM     12  N   UNL     1      -2.886  13.050  20.707  0.00  0.00    +0.000 N 
ENDROOT
BRANCH  12  13
ATOM     13  C   UNL     1      -2.315  13.980  21.751  0.00  0.00    +0.000 C 
ATOM     14  C   UNL     1      -2.466  13.549  23.212  0.00  0.00    +0.000 C 
ATOM     15  C   UNL     1      -2.207  14.651  24.226  0.00  0.00    +0.000 C 
ATOM     16  O   UNL     1      -2.762  15.889  23.793  0.00  0.00    +0.000 OA
ATOM     17  C   UNL     1      -2.144  16.341  22.593  0.00  0.00    +0.000 C 
ATOM     18  C   UNL     1      -2.578  15.454  21.439  0.00  0.00    +0.000 C 
ENDBRANCH  12  13
BRANCH   1  23
ATOM     19  N   UNL     1      -6.700  13.555  20.142  0.00  0.00    +0.000 N 
ATOM     20  C   UNL     1      -7.624  12.578  20.688  0.00  0.00    +0.000 C 
ATOM     21  C   UNL     1      -7.439  12.738  22.174  0.00  0.00    +0.000 C 
ATOM     22  C   UNL     1      -5.957  13.033  22.304  0.00  0.00    +0.000 C 
ATOM     23  C   UNL     1      -5.465  13.668  20.988  0.00  0.00    +0.000 C 
BRANCH  19  30
ATOM     24  C   UNL     1      -6.775  15.469  18.605  0.00  0.00    +0.000 A 
ATOM     25  C   UNL     1      -6.821  15.857  17.269  0.00  0.00    +0.000 A 
ATOM     26  N   UNL     1      -6.906  17.198  16.880  0.00  0.00    +0.000 N 
ATOM     27  N   UNL     1      -6.871  14.977  16.262  0.00  0.00    +0.000 NA
ATOM     28  C   UNL     1      -6.896  13.688  16.620  0.00  0.00    +0.000 A 
ATOM     29  N   UNL     1      -6.883  13.207  17.872  0.00  0.00    +0.000 NA
ATOM     30  C   UNL     1      -6.800  14.098  18.885  0.00  0.00    +0.000 A 
ATOM     31  H   UNL     1      -6.227  17.807  17.321  0.00  0.00    +0.000 HD
ATOM     32  H   UNL     1      -6.875  17.248  15.865  0.00  0.00    +0.000 HD
BRANCH  24  34
ATOM     33  N   UNL     1      -6.746  17.360  20.377  0.00  0.00    +0.000 NA
ATOM     34  C   UNL     1      -6.736  16.487  19.604  0.00  0.00    +0.000 C 
ENDBRANCH  24  34
ENDBRANCH  19  30
ENDBRANCH   1  23
TORSDOF 4
ENDMDL
