MODEL 1
REMARK VINA RESULT:      -8.2      0.000      0.000
REMARK  Name = 
REMARK  4 active torsions:
REMARK  status: ('A' for Active; 'I' for Inactive)
REMARK    1  A    between atoms: N_1  and  C_2
REMARK    2  A    between atoms: C_5  and  C_6
REMARK    3  A    between atoms: C_12  and  C_13
REMARK    4  A    between atoms: C_13  and  C_15
REMARK                            x       y       z     vdW  Elec       q    Type
REMARK                         _______ _______ _______ _____ _____    ______ ____
ROOT
ATOM      1  C   UNL     1       3.957   2.912  19.947  0.00  0.00    +0.000 A 
ATOM      2  S   UNL     1       2.421   2.541  20.595  0.00  0.00    +0.000 S 
ATOM      3  C   UNL     1       1.854   4.121  20.348  0.00  0.00    +0.000 A 
ATOM      4  C   UNL     1       2.790   4.949  19.751  0.00  0.00    +0.000 A 
ATOM      5  C   UNL     1       4.043   4.229  19.506  0.00  0.00    +0.000 A 
ENDROOT
BRANCH   4   6
ATOM      6  C   UNL     1       2.429   6.342  19.437  0.00  0.00    +0.000 A 
ATOM      7  C   UNL     1       1.894   7.195  20.419  0.00  0.00    +0.000 A 
ATOM      8  C   UNL     1       1.533   8.513  20.114  0.00  0.00    +0.000 A 
ATOM      9  C   UNL     1       1.719   9.004  18.826  0.00  0.00    +0.000 A 
ATOM     10  C   UNL     1       2.249   8.177  17.841  0.00  0.00    +0.000 A 
ATOM     11  C   UNL     1       2.582   6.852  18.139  0.00  0.00    +0.000 A 
ENDBRANCH   4   6
BRANCH   1  12
ATOM     12  N   UNL     1       4.889   1.930  19.949  0.00  0.00    +0.000 N 
ATOM     13  H   UNL     1       5.854   2.185  19.756  0.00  0.00    +0.000 HD
ATOM     14  H   UNL     1       4.668   0.973  19.676  0.00  0.00    +0.000 HD
ENDBRANCH   1  12
BRANCH   5  15
ATOM     15  C   UNL     1       5.263   4.853  18.967  0.00  0.00    +0.000 C 
ATOM     16  O   UNL     1       5.989   5.553  19.669  0.00  0.00    +0.000 OA
BRANCH  15  17
ATOM     17  C   UNL     1       5.699   4.648  17.550  0.00  0.00    +0.000 A 
ATOM     18  C   UNL     1       4.715   4.268  16.620  0.00  0.00    +0.000 A 
ATOM     19  C   UNL     1       5.031   4.106  15.271  0.00  0.00    +0.000 A 
ATOM     20  C   UNL     1       6.336   4.323  14.839  0.00  0.00    +0.000 A 
ATOM     21 CL   UNL     1       6.718   4.179  13.168  0.00  0.00    +0.000 Cl
ATOM     22  C   UNL     1       7.333   4.661  15.754  0.00  0.00    +0.000 A 
ATOM     23  C   UNL     1       7.021   4.803  17.113  0.00  0.00    +0.000 A 
ENDBRANCH  15  17
ENDBRANCH   5  15
TORSDOF 4
ENDMDL
MODEL 2
REMARK VINA RESULT:      -8.2      0.096      1.054
REMARK  Name = 
REMARK  4 active torsions:
REMARK  status: ('A' for Active; 'I' for Inactive)
REMARK    1  A    between atoms: N_1  and  C_2
REMARK    2  A    between atoms: C_5  and  C_6
REMARK    3  A    between atoms: C_12  and  C_13
REMARK    4  A    between atoms: C_13  and  C_15
REMARK                            x       y       z     vdW  Elec       q    Type
REMARK                         _______ _______ _______ _____ _____    ______ ____
ROOT
ATOM      1  C   UNL     1       4.000   2.909  20.009  0.00  0.00    +0.000 A 
ATOM      2  S   UNL     1       2.466   2.561  20.674  0.00  0.00    +0.000 S 
ATOM      3  C   UNL     1       1.901   4.133  20.381  0.00  0.00    +0.000 A 
ATOM      4  C   UNL     1       2.836   4.941  19.754  0.00  0.00    +0.000 A 
ATOM      5  C   UNL     1       4.087   4.211  19.527  0.00  0.00    +0.000 A 
ENDROOT
BRANCH   4   6
ATOM      6  C   UNL     1       2.475   6.324  19.399  0.00  0.00    +0.000 A 
ATOM      7  C   UNL     1       2.722   6.834  18.113  0.00  0.00    +0.000 A 
ATOM      8  C   UNL     1       2.395   8.156  17.783  0.00  0.00    +0.000 A 
ATOM      9  C   UNL     1       1.800   8.982  18.732  0.00  0.00    +0.000 A 
ATOM     10  C   UNL     1       1.546   8.494  20.010  0.00  0.00    +0.000 A 
ATOM     11  C   UNL     1       1.899   7.184  20.346  0.00  0.00    +0.000 A 
ENDBRANCH   4   6
BRANCH   1  12
ATOM     12  N   UNL     1       4.930   1.926  20.037  0.00  0.00    +0.000 N 
ATOM     13  H   UNL     1       5.859   2.154  20.384  0.00  0.00    +0.000 HD
ATOM     14  H   UNL     1       4.936   1.166  19.358  0.00  0.00    +0.000 HD
ENDBRANCH   1  12
BRANCH   5  15
ATOM     15  C   UNL     1       5.305   4.816  18.963  0.00  0.00    +0.000 C 
ATOM     16  O   UNL     1       6.057   5.504  19.651  0.00  0.00    +0.000 OA
BRANCH  15  17
ATOM     17  C   UNL     1       5.710   4.605  17.537  0.00  0.00    +0.000 A 
ATOM     18  C   UNL     1       4.721   4.150  16.647  0.00  0.00    +0.000 A 
ATOM     19  C   UNL     1       5.004   3.976  15.291  0.00  0.00    +0.000 A 
ATOM     20  C   UNL     1       6.282   4.257  14.815  0.00  0.00    +0.000 A 
ATOM     21 CL   UNL     1       6.621   4.098  13.136  0.00  0.00    +0.000 Cl
ATOM     22  C   UNL     1       7.285   4.670  15.691  0.00  0.00    +0.000 A 
ATOM     23  C   UNL     1       7.007   4.824  17.056  0.00  0.00    +0.000 A 
ENDBRANCH  15  17
ENDBRANCH   5  15
TORSDOF 4
ENDMDL
MODEL 3
REMARK VINA RESULT:      -8.1      1.069      1.495
REMARK  Name = 
REMARK  4 active torsions:
REMARK  status: ('A' for Active; 'I' for Inactive)
REMARK    1  A    between atoms: N_1  and  C_2
REMARK    2  A    between atoms: C_5  and  C_6
REMARK    3  A    between atoms: C_12  and  C_13
REMARK    4  A    between atoms: C_13  and  C_15
REMARK                            x       y       z     vdW  Elec       q    Type
REMARK                         _______ _______ _______ _____ _____    ______ ____
ROOT
ATOM      1  C   UNL     1       3.339   2.090  18.631  0.00  0.00    +0.000 A 
ATOM      2  S   UNL     1       1.690   1.794  18.964  0.00  0.00    +0.000 S 
ATOM      3  C   UNL     1       1.353   3.446  19.147  0.00  0.00    +0.000 A 
ATOM      4  C   UNL     1       2.459   4.254  18.935  0.00  0.00    +0.000 A 
ATOM      5  C   UNL     1       3.643   3.448  18.622  0.00  0.00    +0.000 A 
ENDROOT
BRANCH   4   6
ATOM      6  C   UNL     1       2.313   5.718  19.020  0.00  0.00    +0.000 A 
ATOM      7  C   UNL     1       1.969   6.346  20.230  0.00  0.00    +0.000 A 
ATOM      8  C   UNL     1       1.812   7.736  20.304  0.00  0.00    +0.000 A 
ATOM      9  C   UNL     1       2.014   8.520  19.173  0.00  0.00    +0.000 A 
ATOM     10  C   UNL     1       2.358   7.917  17.967  0.00  0.00    +0.000 A 
ATOM     11  C   UNL     1       2.486   6.527  17.888  0.00  0.00    +0.000 A 
ENDBRANCH   4   6
BRANCH   1  12
ATOM     12  N   UNL     1       4.139   1.016  18.438  0.00  0.00    +0.000 N 
ATOM     13  H   UNL     1       3.779   0.245  17.880  0.00  0.00    +0.000 HD
ATOM     14  H   UNL     1       4.824   0.719  19.131  0.00  0.00    +0.000 HD
ENDBRANCH   1  12
BRANCH   5  15
ATOM     15  C   UNL     1       4.993   4.002  18.434  0.00  0.00    +0.000 C 
ATOM     16  O   UNL     1       5.732   4.230  19.390  0.00  0.00    +0.000 OA
BRANCH  15  17
ATOM     17  C   UNL     1       5.551   4.291  17.075  0.00  0.00    +0.000 A 
ATOM     18  C   UNL     1       6.879   4.748  17.007  0.00  0.00    +0.000 A 
ATOM     19  C   UNL     1       7.489   4.992  15.776  0.00  0.00    +0.000 A 
ATOM     20  C   UNL     1       6.774   4.781  14.600  0.00  0.00    +0.000 A 
ATOM     21 CL   UNL     1       7.538   5.027  13.080  0.00  0.00    +0.000 Cl
ATOM     22  C   UNL     1       5.443   4.367  14.651  0.00  0.00    +0.000 A 
ATOM     23  C   UNL     1       4.823   4.142  15.887  0.00  0.00    +0.000 A 
ENDBRANCH  15  17
ENDBRANCH   5  15
TORSDOF 4
ENDMDL
MODEL 4
REMARK VINA RESULT:      -8.1      0.170      1.060
REMARK  Name = 
REMARK  4 active torsions:
REMARK  status: ('A' for Active; 'I' for Inactive)
REMARK    1  A    between atoms: N_1  and  C_2
REMARK    2  A    between atoms: C_5  and  C_6
REMARK    3  A    between atoms: C_12  and  C_13
REMARK    4  A    between atoms: C_13  and  C_15
REMARK                            x       y       z     vdW  Elec       q    Type
REMARK                         _______ _______ _______ _____ _____    ______ ____
ROOT
ATOM      1  C   UNL     1       3.986   2.969  20.005  0.00  0.00    +0.000 A 
ATOM      2  S   UNL     1       2.462   2.619  20.693  0.00  0.00    +0.000 S 
ATOM      3  C   UNL     1       1.893   4.192  20.413  0.00  0.00    +0.000 A 
ATOM      4  C   UNL     1       2.819   5.001  19.774  0.00  0.00    +0.000 A 
ATOM      5  C   UNL     1       4.066   4.272  19.526  0.00  0.00    +0.000 A 
ENDROOT
BRANCH   4   6
ATOM      6  C   UNL     1       2.453   6.386  19.429  0.00  0.00    +0.000 A 
ATOM      7  C   UNL     1       1.894   7.252  20.384  0.00  0.00    +0.000 A 
ATOM      8  C   UNL     1       1.530   8.562  20.049  0.00  0.00    +0.000 A 
ATOM      9  C   UNL     1       1.736   9.031  18.756  0.00  0.00    +0.000 A 
ATOM     10  C   UNL     1       2.291   8.190  17.796  0.00  0.00    +0.000 A 
ATOM     11  C   UNL     1       2.627   6.874  18.125  0.00  0.00    +0.000 A 
ENDBRANCH   4   6
BRANCH   1  12
ATOM     12  N   UNL     1       4.916   1.985  20.017  0.00  0.00    +0.000 N 
ATOM     13  H   UNL     1       4.760   1.186  20.627  0.00  0.00    +0.000 HD
ATOM     14  H   UNL     1       5.904   2.172  19.850  0.00  0.00    +0.000 HD
ENDBRANCH   1  12
BRANCH   5  15
ATOM     15  C   UNL     1       5.275   4.878  18.945  0.00  0.00    +0.000 C 
ATOM     16  O   UNL     1       6.084   5.488  19.641  0.00  0.00    +0.000 OA
BRANCH  15  17
ATOM     17  C   UNL     1       5.600   4.762  17.488  0.00  0.00    +0.000 A 
ATOM     18  C   UNL     1       6.870   5.201  17.075  0.00  0.00    +0.000 A 
ATOM     19  C   UNL     1       7.270   5.081  15.743  0.00  0.00    +0.000 A 
ATOM     20  C   UNL     1       6.400   4.521  14.812  0.00  0.00    +0.000 A 
ATOM     21 CL   UNL     1       6.907   4.320  13.181  0.00  0.00    +0.000 Cl
ATOM     22  C   UNL     1       5.122   4.117  15.197  0.00  0.00    +0.000 A 
ATOM     23  C   UNL     1       4.712   4.257  16.530  0.00  0.00    +0.000 A 
ENDBRANCH  15  17
ENDBRANCH   5  15
TORSDOF 4
ENDMDL
MODEL 5
REMARK VINA RESULT:      -8.0      0.269      1.507
REMARK  Name = 
REMARK  4 active torsions:
REMARK  status: ('A' for Active; 'I' for Inactive)
REMARK    1  A    between atoms: N_1  and  C_2
REMARK    2  A    between atoms: C_5  and  C_6
REMARK    3  A    between atoms: C_12  and  C_13
REMARK    4  A    between atoms: C_13  and  C_15
REMARK                            x       y       z     vdW  Elec       q    Type
REMARK                         _______ _______ _______ _____ _____    ______ ____
ROOT
ATOM      1  C   UNL     1       3.986   2.771  19.909  0.00  0.00    +0.000 A 
ATOM      2  S   UNL     1       2.429   2.404  20.509  0.00  0.00    +0.000 S 
ATOM      3  C   UNL     1       1.880   3.989  20.261  0.00  0.00    +0.000 A 
ATOM      4  C   UNL     1       2.838   4.817  19.699  0.00  0.00    +0.000 A 
ATOM      5  C   UNL     1       4.093   4.091  19.484  0.00  0.00    +0.000 A 
ENDROOT
BRANCH   4   6
ATOM      6  C   UNL     1       2.494   6.215  19.388  0.00  0.00    +0.000 A 
ATOM      7  C   UNL     1       2.694   6.747  18.103  0.00  0.00    +0.000 A 
ATOM      8  C   UNL     1       2.383   8.082  17.815  0.00  0.00    +0.000 A 
ATOM      9  C   UNL     1       1.852   8.901  18.806  0.00  0.00    +0.000 A 
ATOM     10  C   UNL     1       1.644   8.392  20.084  0.00  0.00    +0.000 A 
ATOM     11  C   UNL     1       1.981   7.068  20.377  0.00  0.00    +0.000 A 
ENDBRANCH   4   6
BRANCH   1  12
ATOM     12  N   UNL     1       4.911   1.783  19.929  0.00  0.00    +0.000 N 
ATOM     13  H   UNL     1       5.398   1.565  19.063  0.00  0.00    +0.000 HD
ATOM     14  H   UNL     1       4.834   0.981  20.554  0.00  0.00    +0.000 HD
ENDBRANCH   1  12
BRANCH   5  15
ATOM     15  C   UNL     1       5.331   4.712  18.985  0.00  0.00    +0.000 C 
ATOM     16  O   UNL     1       6.140   5.234  19.750  0.00  0.00    +0.000 OA
BRANCH  15  17
ATOM     17  C   UNL     1       5.687   4.718  17.531  0.00  0.00    +0.000 A 
ATOM     18  C   UNL     1       6.969   5.179  17.183  0.00  0.00    +0.000 A 
ATOM     19  C   UNL     1       7.397   5.169  15.855  0.00  0.00    +0.000 A 
ATOM     20  C   UNL     1       6.543   4.698  14.861  0.00  0.00    +0.000 A 
ATOM     21 CL   UNL     1       7.085   4.632  13.230  0.00  0.00    +0.000 Cl
ATOM     22  C   UNL     1       5.254   4.275  15.184  0.00  0.00    +0.000 A 
ATOM     23  C   UNL     1       4.817   4.305  16.515  0.00  0.00    +0.000 A 
ENDBRANCH  15  17
ENDBRANCH   5  15
TORSDOF 4
ENDMDL
MODEL 6
REMARK VINA RESULT:      -7.9      1.115      1.535
REMARK  Name = 
REMARK  4 active torsions:
REMARK  status: ('A' for Active; 'I' for Inactive)
REMARK    1  A    between atoms: N_1  and  C_2
REMARK    2  A    between atoms: C_5  and  C_6
REMARK    3  A    between atoms: C_12  and  C_13
REMARK    4  A    between atoms: C_13  and  C_15
REMARK                            x       y       z     vdW  Elec       q    Type
REMARK                         _______ _______ _______ _____ _____    ______ ____
ROOT
ATOM      1  C   UNL     1       3.411   2.066  18.548  0.00  0.00    +0.000 A 
ATOM      2  S   UNL     1       1.742   1.770  18.757  0.00  0.00    +0.000 S 
ATOM      3  C   UNL     1       1.394   3.421  18.923  0.00  0.00    +0.000 A 
ATOM      4  C   UNL     1       2.512   4.230  18.795  0.00  0.00    +0.000 A 
ATOM      5  C   UNL     1       3.715   3.423  18.567  0.00  0.00    +0.000 A 
ENDROOT
BRANCH   4   6
ATOM      6  C   UNL     1       2.361   5.693  18.876  0.00  0.00    +0.000 A 
ATOM      7  C   UNL     1       2.566   6.510  17.752  0.00  0.00    +0.000 A 
ATOM      8  C   UNL     1       2.440   7.903  17.836  0.00  0.00    +0.000 A 
ATOM      9  C   UNL     1       2.089   8.497  19.044  0.00  0.00    +0.000 A 
ATOM     10  C   UNL     1       1.878   7.704  20.168  0.00  0.00    +0.000 A 
ATOM     11  C   UNL     1       2.032   6.317  20.089  0.00  0.00    +0.000 A 
ENDBRANCH   4   6
BRANCH   1  12
ATOM     12  N   UNL     1       4.222   0.992  18.408  0.00  0.00    +0.000 N 
ATOM     13  H   UNL     1       4.788   0.712  19.206  0.00  0.00    +0.000 HD
ATOM     14  H   UNL     1       4.646   0.746  17.515  0.00  0.00    +0.000 HD
ENDBRANCH   1  12
BRANCH   5  15
ATOM     15  C   UNL     1       5.076   3.978  18.480  0.00  0.00    +0.000 C 
ATOM     16  O   UNL     1       5.736   4.219  19.489  0.00  0.00    +0.000 OA
BRANCH  15  17
ATOM     17  C   UNL     1       5.740   4.250  17.166  0.00  0.00    +0.000 A 
ATOM     18  C   UNL     1       5.074   3.820  16.005  0.00  0.00    +0.000 A 
ATOM     19  C   UNL     1       5.602   4.080  14.740  0.00  0.00    +0.000 A 
ATOM     20  C   UNL     1       6.804   4.773  14.625  0.00  0.00    +0.000 A 
ATOM     21 CL   UNL     1       7.431   5.144  13.068  0.00  0.00    +0.000 Cl
ATOM     22  C   UNL     1       7.498   5.172  15.767  0.00  0.00    +0.000 A 
ATOM     23  C   UNL     1       6.979   4.892  17.039  0.00  0.00    +0.000 A 
ENDBRANCH  15  17
ENDBRANCH   5  15
TORSDOF 4
ENDMDL
MODEL 7
REMARK VINA RESULT:      -7.4      3.427      4.997
REMARK  Name = 
REMARK  4 active torsions:
REMARK  status: ('A' for Active; 'I' for Inactive)
REMARK    1  A    between atoms: N_1  and  C_2
REMARK    2  A    between atoms: C_5  and  C_6
REMARK    3  A    between atoms: C_12  and  C_13
REMARK    4  A    between atoms: C_13  and  C_15
REMARK                            x       y       z     vdW  Elec       q    Type
REMARK                         _______ _______ _______ _____ _____    ______ ____
ROOT
ATOM      1  C   UNL     1       5.473   4.450  16.523  0.00  0.00    +0.000 A 
ATOM      2  S   UNL     1       6.580   5.743  16.384  0.00  0.00    +0.000 S 
ATOM      3  C   UNL     1       5.502   6.840  17.100  0.00  0.00    +0.000 A 
ATOM      4  C   UNL     1       4.306   6.256  17.485  0.00  0.00    +0.000 A 
ATOM      5  C   UNL     1       4.288   4.830  17.146  0.00  0.00    +0.000 A 
ENDROOT
BRANCH   4   6
ATOM      6  C   UNL     1       3.284   7.076  18.158  0.00  0.00    +0.000 A 
ATOM      7  C   UNL     1       2.661   8.150  17.499  0.00  0.00    +0.000 A 
ATOM      8  C   UNL     1       1.703   8.940  18.147  0.00  0.00    +0.000 A 
ATOM      9  C   UNL     1       1.341   8.656  19.460  0.00  0.00    +0.000 A 
ATOM     10  C   UNL     1       1.944   7.595  20.128  0.00  0.00    +0.000 A 
ATOM     11  C   UNL     1       2.921   6.825  19.490  0.00  0.00    +0.000 A 
ENDBRANCH   4   6
BRANCH   1  12
ATOM     12  N   UNL     1       5.848   3.251  16.018  0.00  0.00    +0.000 N 
ATOM     13  H   UNL     1       6.770   3.176  15.597  0.00  0.00    +0.000 HD
ATOM     14  H   UNL     1       5.175   2.596  15.621  0.00  0.00    +0.000 HD
ENDBRANCH   1  12
BRANCH   5  15
ATOM     15  C   UNL     1       3.126   3.949  17.342  0.00  0.00    +0.000 C 
ATOM     16  O   UNL     1       2.509   3.479  16.387  0.00  0.00    +0.000 OA
BRANCH  15  17
ATOM     17  C   UNL     1       2.648   3.554  18.705  0.00  0.00    +0.000 A 
ATOM     18  C   UNL     1       1.269   3.647  18.956  0.00  0.00    +0.000 A 
ATOM     19  C   UNL     1       0.737   3.251  20.184  0.00  0.00    +0.000 A 
ATOM     20  C   UNL     1       1.584   2.758  21.173  0.00  0.00    +0.000 A 
ATOM     21 CL   UNL     1       0.928   2.217  22.668  0.00  0.00    +0.000 Cl
ATOM     22  C   UNL     1       2.960   2.697  20.954  0.00  0.00    +0.000 A 
ATOM     23  C   UNL     1       3.497   3.115  19.729  0.00  0.00    +0.000 A 
ENDBRANCH  15  17
ENDBRANCH   5  15
TORSDOF 4
ENDMDL
MODEL 8
REMARK VINA RESULT:      -7.4      3.431      4.928
REMARK  Name = 
REMARK  4 active torsions:
REMARK  status: ('A' for Active; 'I' for Inactive)
REMARK    1  A    between atoms: N_1  and  C_2
REMARK    2  A    between atoms: C_5  and  C_6
REMARK    3  A    between atoms: C_12  and  C_13
REMARK    4  A    between atoms: C_13  and  C_15
REMARK                            x       y       z     vdW  Elec       q    Type
REMARK                         _______ _______ _______ _____ _____    ______ ____
ROOT
ATOM      1  C   UNL     1       5.452   4.396  16.514  0.00  0.00    +0.000 A 
ATOM      2  S   UNL     1       6.580   5.670  16.374  0.00  0.00    +0.000 S 
ATOM      3  C   UNL     1       5.523   6.784  17.093  0.00  0.00    +0.000 A 
ATOM      4  C   UNL     1       4.317   6.220  17.479  0.00  0.00    +0.000 A 
ATOM      5  C   UNL     1       4.275   4.794  17.138  0.00  0.00    +0.000 A 
ENDROOT
BRANCH   4   6
ATOM      6  C   UNL     1       3.310   7.056  18.154  0.00  0.00    +0.000 A 
ATOM      7  C   UNL     1       2.926   6.805  19.483  0.00  0.00    +0.000 A 
ATOM      8  C   UNL     1       1.955   7.590  20.117  0.00  0.00    +0.000 A 
ATOM      9  C   UNL     1       1.365   8.650  19.436  0.00  0.00    +0.000 A 
ATOM     10  C   UNL     1       1.734   8.917  18.121  0.00  0.00    +0.000 A 
ATOM     11  C   UNL     1       2.683   8.114  17.480  0.00  0.00    +0.000 A 
ENDBRANCH   4   6
BRANCH   1  12
ATOM     12  N   UNL     1       5.806   3.191  16.007  0.00  0.00    +0.000 N 
ATOM     13  H   UNL     1       6.341   2.561  16.599  0.00  0.00    +0.000 HD
ATOM     14  H   UNL     1       5.988   3.054  15.014  0.00  0.00    +0.000 HD
ENDBRANCH   1  12
BRANCH   5  15
ATOM     15  C   UNL     1       3.098   3.933  17.335  0.00  0.00    +0.000 C 
ATOM     16  O   UNL     1       2.471   3.476  16.381  0.00  0.00    +0.000 OA
BRANCH  15  17
ATOM     17  C   UNL     1       2.618   3.543  18.699  0.00  0.00    +0.000 A 
ATOM     18  C   UNL     1       1.235   3.612  18.939  0.00  0.00    +0.000 A 
ATOM     19  C   UNL     1       0.701   3.218  20.167  0.00  0.00    +0.000 A 
ATOM     20  C   UNL     1       1.550   2.752  21.167  0.00  0.00    +0.000 A 
ATOM     21 CL   UNL     1       0.893   2.213  22.662  0.00  0.00    +0.000 Cl
ATOM     22  C   UNL     1       2.928   2.715  20.959  0.00  0.00    +0.000 A 
ATOM     23  C   UNL     1       3.466   3.130  19.734  0.00  0.00    +0.000 A 
ENDBRANCH  15  17
ENDBRANCH   5  15
TORSDOF 4
ENDMDL
MODEL 9
REMARK VINA RESULT:      -7.3      3.414      5.052
REMARK  Name = 
REMARK  4 active torsions:
REMARK  status: ('A' for Active; 'I' for Inactive)
REMARK    1  A    between atoms: N_1  and  C_2
REMARK    2  A    between atoms: C_5  and  C_6
REMARK    3  A    between atoms: C_12  and  C_13
REMARK    4  A    between atoms: C_13  and  C_15
REMARK                            x       y       z     vdW  Elec       q    Type
REMARK                         _______ _______ _______ _____ _____    ______ ____
ROOT
ATOM      1  C   UNL     1       5.563   4.412  16.505  0.00  0.00    +0.000 A 
ATOM      2  S   UNL     1       6.709   5.679  16.509  0.00  0.00    +0.000 S 
ATOM      3  C   UNL     1       5.620   6.762  17.228  0.00  0.00    +0.000 A 
ATOM      4  C   UNL     1       4.388   6.191  17.507  0.00  0.00    +0.000 A 
ATOM      5  C   UNL     1       4.354   4.789  17.081  0.00  0.00    +0.000 A 
ENDROOT
BRANCH   4   6
ATOM      6  C   UNL     1       3.350   7.000  18.170  0.00  0.00    +0.000 A 
ATOM      7  C   UNL     1       2.759   8.099  17.523  0.00  0.00    +0.000 A 
ATOM      8  C   UNL     1       1.786   8.877  18.162  0.00  0.00    +0.000 A 
ATOM      9  C   UNL     1       1.376   8.556  19.452  0.00  0.00    +0.000 A 
ATOM     10  C   UNL     1       1.947   7.470  20.108  0.00  0.00    +0.000 A 
ATOM     11  C   UNL     1       2.939   6.712  19.480  0.00  0.00    +0.000 A 
ENDBRANCH   4   6
BRANCH   1  12
ATOM     12  N   UNL     1       5.936   3.235  15.951  0.00  0.00    +0.000 N 
ATOM     13  H   UNL     1       6.602   3.257  15.183  0.00  0.00    +0.000 HD
ATOM     14  H   UNL     1       5.308   2.433  15.909  0.00  0.00    +0.000 HD
ENDBRANCH   1  12
BRANCH   5  15
ATOM     15  C   UNL     1       3.159   3.932  17.157  0.00  0.00    +0.000 C 
ATOM     16  O   UNL     1       2.608   3.511  16.142  0.00  0.00    +0.000 OA
BRANCH  15  17
ATOM     17  C   UNL     1       2.569   3.505  18.464  0.00  0.00    +0.000 A 
ATOM     18  C   UNL     1       3.459   3.059  19.458  0.00  0.00    +0.000 A 
ATOM     19  C   UNL     1       2.994   2.691  20.721  0.00  0.00    +0.000 A 
ATOM     20  C   UNL     1       1.632   2.765  21.001  0.00  0.00    +0.000 A 
ATOM     21 CL   UNL     1       1.060   2.365  22.573  0.00  0.00    +0.000 Cl
ATOM     22  C   UNL     1       0.732   3.166  20.014  0.00  0.00    +0.000 A 
ATOM     23  C   UNL     1       1.196   3.516  18.739  0.00  0.00    +0.000 A 
ENDBRANCH  15  17
ENDBRANCH   5  15
TORSDOF 4
ENDMDL
