MODEL 1
REMARK VINA RESULT:      -7.3      0.000      0.000
REMARK  Name = 
REMARK  8 active torsions:
REMARK  status: ('A' for Active; 'I' for Inactive)
REMARK    1  A    between atoms: C_1  and  C_2
REMARK    2  A    between atoms: N_4  and  C_5
REMARK    3  A    between atoms: C_5  and  C_6
REMARK    4  A    between atoms: C_6  and  N_7
REMARK    5  A    between atoms: N_10  and  C_11
REMARK    6  A    between atoms: C_11  and  C_12
REMARK    7  A    between atoms: C_11  and  C_13
REMARK    8  A    between atoms: C_13  and  C_14
REMARK                            x       y       z     vdW  Elec       q    Type
REMARK                         _______ _______ _______ _____ _____    ______ ____
ROOT
ATOM      1  N   UNL     1       6.281   4.712  14.967  0.00  0.00    +0.000 N 
ATOM      2  C   UNL     1       6.786   4.597  16.230  0.00  0.00    +0.000 C 
ATOM      3  O   UNL     1       7.957   4.314  16.451  0.00  0.00    +0.000 OA
ATOM      4  N   UNL     1       5.854   4.835  17.200  0.00  0.00    +0.000 N 
ATOM      5  H   UNL     1       5.291   4.820  14.821  0.00  0.00    +0.000 HD
ATOM      6  H   UNL     1       4.964   5.220  16.924  0.00  0.00    +0.000 HD
ENDROOT
BRANCH   4   7
ATOM      7  C   UNL     1       6.197   4.869  18.616  0.00  0.00    +0.000 C 
ATOM      8  C   UNL     1       7.288   5.912  18.911  0.00  0.00    +0.000 C 
BRANCH   7   9
ATOM      9  C   UNL     1       4.970   5.104  19.529  0.00  0.00    +0.000 C 
BRANCH   9  10
ATOM     10  C   UNL     1       3.667   4.389  19.185  0.00  0.00    +0.000 A 
ATOM     11  C   UNL     1       2.633   5.039  18.480  0.00  0.00    +0.000 A 
ATOM     12 CL   UNL     1       2.665   6.730  18.119  0.00  0.00    +0.000 Cl
ATOM     13  C   UNL     1       1.521   4.332  17.995  0.00  0.00    +0.000 A 
ATOM     14  C   UNL     1       1.431   2.956  18.163  0.00  0.00    +0.000 A 
ATOM     15  C   UNL     1       2.415   2.297  18.886  0.00  0.00    +0.000 A 
ATOM     16  C   UNL     1       3.501   3.007  19.424  0.00  0.00    +0.000 A 
ATOM     17 CL   UNL     1       4.596   2.085  20.395  0.00  0.00    +0.000 Cl
ENDBRANCH   9  10
ENDBRANCH   7   9
ENDBRANCH   4   7
BRANCH   1  18
ATOM     18  C   UNL     1       7.157   4.538  13.822  0.00  0.00    +0.000 C 
BRANCH  18  19
ATOM     19  C   UNL     1       6.414   4.151  12.536  0.00  0.00    +0.000 C 
BRANCH  19  23
ATOM     20  C   UNL     1       6.135   0.648  11.122  0.00  0.00    +0.000 C 
ATOM     21  C   UNL     1       5.693   2.038  11.487  0.00  0.00    +0.000 C 
ATOM     22  O   UNL     1       4.586   2.481  11.188  0.00  0.00    +0.000 OA
ATOM     23  N   UNL     1       6.641   2.766  12.166  0.00  0.00    +0.000 N 
ATOM     24  H   UNL     1       7.574   2.382  12.287  0.00  0.00    +0.000 HD
ENDBRANCH  19  23
ENDBRANCH  18  19
ENDBRANCH   1  18
TORSDOF 6
ENDMDL
MODEL 2
REMARK VINA RESULT:      -7.3      0.685      2.109
REMARK  Name = 
REMARK  8 active torsions:
REMARK  status: ('A' for Active; 'I' for Inactive)
REMARK    1  A    between atoms: C_1  and  C_2
REMARK    2  A    between atoms: N_4  and  C_5
REMARK    3  A    between atoms: C_5  and  C_6
REMARK    4  A    between atoms: C_6  and  N_7
REMARK    5  A    between atoms: N_10  and  C_11
REMARK    6  A    between atoms: C_11  and  C_12
REMARK    7  A    between atoms: C_11  and  C_13
REMARK    8  A    between atoms: C_13  and  C_14
REMARK                            x       y       z     vdW  Elec       q    Type
REMARK                         _______ _______ _______ _____ _____    ______ ____
ROOT
ATOM      1  N   UNL     1       6.768   5.599  15.037  0.00  0.00    +0.000 N 
ATOM      2  C   UNL     1       6.759   4.904  16.212  0.00  0.00    +0.000 C 
ATOM      3  O   UNL     1       6.954   3.695  16.267  0.00  0.00    +0.000 OA
ATOM      4  N   UNL     1       6.515   5.694  17.298  0.00  0.00    +0.000 N 
ATOM      5  H   UNL     1       6.480   6.563  15.014  0.00  0.00    +0.000 HD
ATOM      6  H   UNL     1       6.531   6.695  17.174  0.00  0.00    +0.000 HD
ENDROOT
BRANCH   4   7
ATOM      7  C   UNL     1       6.563   5.180  18.661  0.00  0.00    +0.000 C 
ATOM      8  C   UNL     1       7.725   5.792  19.459  0.00  0.00    +0.000 C 
BRANCH   7   9
ATOM      9  C   UNL     1       5.230   5.369  19.424  0.00  0.00    +0.000 C 
BRANCH   9  10
ATOM     10  C   UNL     1       3.967   4.748  18.836  0.00  0.00    +0.000 A 
ATOM     11  C   UNL     1       3.618   3.406  19.090  0.00  0.00    +0.000 A 
ATOM     12 CL   UNL     1       4.667   2.305  19.916  0.00  0.00    +0.000 Cl
ATOM     13  C   UNL     1       2.367   2.890  18.715  0.00  0.00    +0.000 A 
ATOM     14  C   UNL     1       1.418   3.708  18.114  0.00  0.00    +0.000 A 
ATOM     15  C   UNL     1       1.750   5.023  17.816  0.00  0.00    +0.000 A 
ATOM     16  C   UNL     1       3.019   5.529  18.137  0.00  0.00    +0.000 A 
ATOM     17 CL   UNL     1       3.340   7.146  17.614  0.00  0.00    +0.000 Cl
ENDBRANCH   9  10
ENDBRANCH   7   9
ENDBRANCH   4   7
BRANCH   1  18
ATOM     18  C   UNL     1       7.062   4.910  13.793  0.00  0.00    +0.000 C 
BRANCH  18  19
ATOM     19  C   UNL     1       5.895   4.061  13.273  0.00  0.00    +0.000 C 
BRANCH  19  23
ATOM     20  C   UNL     1       6.264   1.060  10.991  0.00  0.00    +0.000 C 
ATOM     21  C   UNL     1       5.600   2.253  11.620  0.00  0.00    +0.000 C 
ATOM     22  O   UNL     1       4.493   2.657  11.269  0.00  0.00    +0.000 OA
ATOM     23  N   UNL     1       6.348   2.854  12.605  0.00  0.00    +0.000 N 
ATOM     24  H   UNL     1       7.298   2.538  12.774  0.00  0.00    +0.000 HD
ENDBRANCH  19  23
ENDBRANCH  18  19
ENDBRANCH   1  18
TORSDOF 6
ENDMDL
MODEL 3
REMARK VINA RESULT:      -7.1      8.700     10.269
REMARK  Name = 
REMARK  8 active torsions:
REMARK  status: ('A' for Active; 'I' for Inactive)
REMARK    1  A    between atoms: C_1  and  C_2
REMARK    2  A    between atoms: N_4  and  C_5
REMARK    3  A    between atoms: C_5  and  C_6
REMARK    4  A    between atoms: C_6  and  N_7
REMARK    5  A    between atoms: N_10  and  C_11
REMARK    6  A    between atoms: C_11  and  C_12
REMARK    7  A    between atoms: C_11  and  C_13
REMARK    8  A    between atoms: C_13  and  C_14
REMARK                            x       y       z     vdW  Elec       q    Type
REMARK                         _______ _______ _______ _____ _____    ______ ____
ROOT
ATOM      1  N   UNL     1      -2.274  11.293  16.230  0.00  0.00    +0.000 N 
ATOM      2  C   UNL     1      -1.779  10.482  17.209  0.00  0.00    +0.000 C 
ATOM      3  O   UNL     1      -2.370   9.483  17.602  0.00  0.00    +0.000 OA
ATOM      4  N   UNL     1      -0.571  10.901  17.690  0.00  0.00    +0.000 N 
ATOM      5  H   UNL     1      -1.827  12.171  16.021  0.00  0.00    +0.000 HD
ATOM      6  H   UNL     1      -0.088  11.635  17.194  0.00  0.00    +0.000 HD
ENDROOT
BRANCH   4   7
ATOM      7  C   UNL     1       0.189  10.128  18.665  0.00  0.00    +0.000 C 
ATOM      8  C   UNL     1       1.275   9.275  17.991  0.00  0.00    +0.000 C 
BRANCH   7   9
ATOM      9  C   UNL     1       0.809  11.006  19.778  0.00  0.00    +0.000 C 
BRANCH   9  10
ATOM     10  C   UNL     1       0.001  11.234  21.052  0.00  0.00    +0.000 A 
ATOM     11  C   UNL     1      -0.898  12.314  21.171  0.00  0.00    +0.000 A 
ATOM     12 CL   UNL     1      -1.022  13.565  19.984  0.00  0.00    +0.000 Cl
ATOM     13  C   UNL     1      -1.781  12.415  22.258  0.00  0.00    +0.000 A 
ATOM     14  C   UNL     1      -1.818  11.424  23.232  0.00  0.00    +0.000 A 
ATOM     15  C   UNL     1      -0.917  10.371  23.160  0.00  0.00    +0.000 A 
ATOM     16  C   UNL     1       0.007  10.293  22.106  0.00  0.00    +0.000 A 
ATOM     17 CL   UNL     1       1.143   8.992  22.195  0.00  0.00    +0.000 Cl
ENDBRANCH   9  10
ENDBRANCH   7   9
ENDBRANCH   4   7
BRANCH   1  18
ATOM     18  C   UNL     1      -3.528  10.958  15.580  0.00  0.00    +0.000 C 
BRANCH  18  19
ATOM     19  C   UNL     1      -3.353  10.106  14.315  0.00  0.00    +0.000 C 
BRANCH  19  23
ATOM     20  C   UNL     1      -5.962   9.492  11.638  0.00  0.00    +0.000 C 
ATOM     21  C   UNL     1      -4.589   9.657  12.228  0.00  0.00    +0.000 C 
ATOM     22  O   UNL     1      -3.563   9.504  11.569  0.00  0.00    +0.000 OA
ATOM     23  N   UNL     1      -4.590   9.977  13.565  0.00  0.00    +0.000 N 
ATOM     24  H   UNL     1      -5.467   9.983  14.077  0.00  0.00    +0.000 HD
ENDBRANCH  19  23
ENDBRANCH  18  19
ENDBRANCH   1  18
TORSDOF 6
ENDMDL
MODEL 4
REMARK VINA RESULT:      -7.1      1.433      1.578
REMARK  Name = 
REMARK  8 active torsions:
REMARK  status: ('A' for Active; 'I' for Inactive)
REMARK    1  A    between atoms: C_1  and  C_2
REMARK    2  A    between atoms: N_4  and  C_5
REMARK    3  A    between atoms: C_5  and  C_6
REMARK    4  A    between atoms: C_6  and  N_7
REMARK    5  A    between atoms: N_10  and  C_11
REMARK    6  A    between atoms: C_11  and  C_12
REMARK    7  A    between atoms: C_11  and  C_13
REMARK    8  A    between atoms: C_13  and  C_14
REMARK                            x       y       z     vdW  Elec       q    Type
REMARK                         _______ _______ _______ _____ _____    ______ ____
ROOT
ATOM      1  N   UNL     1       6.977   5.546  14.484  0.00  0.00    +0.000 N 
ATOM      2  C   UNL     1       6.417   4.730  15.424  0.00  0.00    +0.000 C 
ATOM      3  O   UNL     1       6.569   3.514  15.419  0.00  0.00    +0.000 OA
ATOM      4  N   UNL     1       5.685   5.411  16.355  0.00  0.00    +0.000 N 
ATOM      5  H   UNL     1       6.729   6.521  14.443  0.00  0.00    +0.000 HD
ATOM      6  H   UNL     1       5.753   6.417  16.373  0.00  0.00    +0.000 HD
ENDROOT
BRANCH   4   7
ATOM      7  C   UNL     1       5.086   4.751  17.508  0.00  0.00    +0.000 C 
ATOM      8  C   UNL     1       5.675   5.269  18.830  0.00  0.00    +0.000 C 
BRANCH   7   9
ATOM      9  C   UNL     1       3.542   4.859  17.530  0.00  0.00    +0.000 C 
BRANCH   9  10
ATOM     10  C   UNL     1       2.797   4.305  18.741  0.00  0.00    +0.000 A 
ATOM     11  C   UNL     1       2.166   5.156  19.671  0.00  0.00    +0.000 A 
ATOM     12 CL   UNL     1       2.339   6.876  19.635  0.00  0.00    +0.000 Cl
ATOM     13  C   UNL     1       1.320   4.649  20.671  0.00  0.00    +0.000 A 
ATOM     14  C   UNL     1       1.051   3.288  20.744  0.00  0.00    +0.000 A 
ATOM     15  C   UNL     1       1.690   2.423  19.866  0.00  0.00    +0.000 A 
ATOM     16  C   UNL     1       2.581   2.918  18.900  0.00  0.00    +0.000 A 
ATOM     17 CL   UNL     1       3.391   1.726  17.943  0.00  0.00    +0.000 Cl
ENDBRANCH   9  10
ENDBRANCH   7   9
ENDBRANCH   4   7
BRANCH   1  18
ATOM     18  C   UNL     1       7.827   4.981  13.452  0.00  0.00    +0.000 C 
BRANCH  18  19
ATOM     19  C   UNL     1       7.095   4.729  12.127  0.00  0.00    +0.000 C 
BRANCH  19  23
ATOM     20  C   UNL     1       5.931   1.225  11.282  0.00  0.00    +0.000 C 
ATOM     21  C   UNL     1       5.814   2.663  11.703  0.00  0.00    +0.000 C 
ATOM     22  O   UNL     1       4.733   3.203  11.924  0.00  0.00    +0.000 OA
ATOM     23  N   UNL     1       7.021   3.316  11.801  0.00  0.00    +0.000 N 
ATOM     24  H   UNL     1       7.869   2.846  11.501  0.00  0.00    +0.000 HD
ENDBRANCH  19  23
ENDBRANCH  18  19
ENDBRANCH   1  18
TORSDOF 6
ENDMDL
MODEL 5
REMARK VINA RESULT:      -7.1      2.473      3.808
REMARK  Name = 
REMARK  8 active torsions:
REMARK  status: ('A' for Active; 'I' for Inactive)
REMARK    1  A    between atoms: C_1  and  C_2
REMARK    2  A    between atoms: N_4  and  C_5
REMARK    3  A    between atoms: C_5  and  C_6
REMARK    4  A    between atoms: C_6  and  N_7
REMARK    5  A    between atoms: N_10  and  C_11
REMARK    6  A    between atoms: C_11  and  C_12
REMARK    7  A    between atoms: C_11  and  C_13
REMARK    8  A    between atoms: C_13  and  C_14
REMARK                            x       y       z     vdW  Elec       q    Type
REMARK                         _______ _______ _______ _____ _____    ______ ____
ROOT
ATOM      1  N   UNL     1       6.137   6.657  16.836  0.00  0.00    +0.000 N 
ATOM      2  C   UNL     1       5.113   6.497  17.724  0.00  0.00    +0.000 C 
ATOM      3  O   UNL     1       5.233   5.863  18.766  0.00  0.00    +0.000 OA
ATOM      4  N   UNL     1       3.962   7.116  17.328  0.00  0.00    +0.000 N 
ATOM      5  H   UNL     1       5.970   7.073  15.935  0.00  0.00    +0.000 HD
ATOM      6  H   UNL     1       4.005   7.748  16.543  0.00  0.00    +0.000 HD
ENDROOT
BRANCH   4   7
ATOM      7  C   UNL     1       2.774   7.164  18.172  0.00  0.00    +0.000 C 
ATOM      8  C   UNL     1       1.954   8.441  17.927  0.00  0.00    +0.000 C 
BRANCH   7   9
ATOM      9  C   UNL     1       1.876   5.913  18.020  0.00  0.00    +0.000 C 
BRANCH   9  10
ATOM     10  C   UNL     1       1.987   4.813  19.072  0.00  0.00    +0.000 A 
ATOM     11  C   UNL     1       2.384   3.504  18.732  0.00  0.00    +0.000 A 
ATOM     12 CL   UNL     1       2.592   2.984  17.095  0.00  0.00    +0.000 Cl
ATOM     13  C   UNL     1       2.674   2.547  19.717  0.00  0.00    +0.000 A 
ATOM     14  C   UNL     1       2.614   2.880  21.065  0.00  0.00    +0.000 A 
ATOM     15  C   UNL     1       2.187   4.151  21.429  0.00  0.00    +0.000 A 
ATOM     16  C   UNL     1       1.841   5.095  20.449  0.00  0.00    +0.000 A 
ATOM     17 CL   UNL     1       1.222   6.599  21.038  0.00  0.00    +0.000 Cl
ENDBRANCH   9  10
ENDBRANCH   7   9
ENDBRANCH   4   7
BRANCH   1  18
ATOM     18  C   UNL     1       7.444   6.100  17.134  0.00  0.00    +0.000 C 
BRANCH  18  19
ATOM     19  C   UNL     1       7.524   4.582  16.928  0.00  0.00    +0.000 C 
BRANCH  19  23
ATOM     20  C   UNL     1       5.966   3.923  13.539  0.00  0.00    +0.000 C 
ATOM     21  C   UNL     1       6.888   4.554  14.544  0.00  0.00    +0.000 C 
ATOM     22  O   UNL     1       7.757   5.365  14.229  0.00  0.00    +0.000 OA
ATOM     23  N   UNL     1       6.680   4.131  15.836  0.00  0.00    +0.000 N 
ATOM     24  H   UNL     1       6.020   3.380  16.015  0.00  0.00    +0.000 HD
ENDBRANCH  19  23
ENDBRANCH  18  19
ENDBRANCH   1  18
TORSDOF 6
ENDMDL
MODEL 6
REMARK VINA RESULT:      -7.0      1.515      2.317
REMARK  Name = 
REMARK  8 active torsions:
REMARK  status: ('A' for Active; 'I' for Inactive)
REMARK    1  A    between atoms: C_1  and  C_2
REMARK    2  A    between atoms: N_4  and  C_5
REMARK    3  A    between atoms: C_5  and  C_6
REMARK    4  A    between atoms: C_6  and  N_7
REMARK    5  A    between atoms: N_10  and  C_11
REMARK    6  A    between atoms: C_11  and  C_12
REMARK    7  A    between atoms: C_11  and  C_13
REMARK    8  A    between atoms: C_13  and  C_14
REMARK                            x       y       z     vdW  Elec       q    Type
REMARK                         _______ _______ _______ _____ _____    ______ ____
ROOT
ATOM      1  N   UNL     1       5.736   4.486  14.990  0.00  0.00    +0.000 N 
ATOM      2  C   UNL     1       5.825   5.335  16.055  0.00  0.00    +0.000 C 
ATOM      3  O   UNL     1       6.831   5.993  16.294  0.00  0.00    +0.000 OA
ATOM      4  N   UNL     1       4.686   5.368  16.807  0.00  0.00    +0.000 N 
ATOM      5  H   UNL     1       4.947   3.868  14.895  0.00  0.00    +0.000 HD
ATOM      6  H   UNL     1       3.858   4.922  16.442  0.00  0.00    +0.000 HD
ENDROOT
BRANCH   4   7
ATOM      7  C   UNL     1       4.522   6.282  17.931  0.00  0.00    +0.000 C 
ATOM      8  C   UNL     1       3.383   7.285  17.686  0.00  0.00    +0.000 C 
BRANCH   7   9
ATOM      9  C   UNL     1       4.312   5.551  19.278  0.00  0.00    +0.000 C 
BRANCH   9  10
ATOM     10  C   UNL     1       3.054   4.704  19.451  0.00  0.00    +0.000 A 
ATOM     11  C   UNL     1       3.003   3.363  19.018  0.00  0.00    +0.000 A 
ATOM     12 CL   UNL     1       4.269   2.627  18.096  0.00  0.00    +0.000 Cl
ATOM     13  C   UNL     1       1.925   2.527  19.348  0.00  0.00    +0.000 A 
ATOM     14  C   UNL     1       0.890   2.993  20.150  0.00  0.00    +0.000 A 
ATOM     15  C   UNL     1       0.895   4.321  20.557  0.00  0.00    +0.000 A 
ATOM     16  C   UNL     1       1.943   5.177  20.183  0.00  0.00    +0.000 A 
ATOM     17 CL   UNL     1       1.772   6.830  20.663  0.00  0.00    +0.000 Cl
ENDBRANCH   9  10
ENDBRANCH   7   9
ENDBRANCH   4   7
BRANCH   1  18
ATOM     18  C   UNL     1       6.848   4.373  14.062  0.00  0.00    +0.000 C 
BRANCH  18  19
ATOM     19  C   UNL     1       6.411   4.144  12.609  0.00  0.00    +0.000 C 
BRANCH  19  23
ATOM     20  C   UNL     1       6.161   0.700  11.052  0.00  0.00    +0.000 C 
ATOM     21  C   UNL     1       5.702   2.062  11.492  0.00  0.00    +0.000 C 
ATOM     22  O   UNL     1       4.576   2.491  11.249  0.00  0.00    +0.000 OA
ATOM     23  N   UNL     1       6.656   2.781  12.171  0.00  0.00    +0.000 N 
ATOM     24  H   UNL     1       7.600   2.414  12.244  0.00  0.00    +0.000 HD
ENDBRANCH  19  23
ENDBRANCH  18  19
ENDBRANCH   1  18
TORSDOF 6
ENDMDL
MODEL 7
REMARK VINA RESULT:      -7.0      3.539      6.492
REMARK  Name = 
REMARK  8 active torsions:
REMARK  status: ('A' for Active; 'I' for Inactive)
REMARK    1  A    between atoms: C_1  and  C_2
REMARK    2  A    between atoms: N_4  and  C_5
REMARK    3  A    between atoms: C_5  and  C_6
REMARK    4  A    between atoms: C_6  and  N_7
REMARK    5  A    between atoms: N_10  and  C_11
REMARK    6  A    between atoms: C_11  and  C_12
REMARK    7  A    between atoms: C_11  and  C_13
REMARK    8  A    between atoms: C_13  and  C_14
REMARK                            x       y       z     vdW  Elec       q    Type
REMARK                         _______ _______ _______ _____ _____    ______ ____
ROOT
ATOM      1  N   UNL     1       6.956   7.785  17.332  0.00  0.00    +0.000 N 
ATOM      2  C   UNL     1       6.596   6.471  17.428  0.00  0.00    +0.000 C 
ATOM      3  O   UNL     1       7.282   5.639  18.009  0.00  0.00    +0.000 OA
ATOM      4  N   UNL     1       5.406   6.198  16.817  0.00  0.00    +0.000 N 
ATOM      5  H   UNL     1       6.436   8.413  16.741  0.00  0.00    +0.000 HD
ATOM      6  H   UNL     1       4.837   6.972  16.510  0.00  0.00    +0.000 HD
ENDROOT
BRANCH   4   7
ATOM      7  C   UNL     1       4.781   4.883  16.885  0.00  0.00    +0.000 C 
ATOM      8  C   UNL     1       5.488   3.869  15.972  0.00  0.00    +0.000 C 
BRANCH   7   9
ATOM      9  C   UNL     1       4.691   4.332  18.329  0.00  0.00    +0.000 C 
BRANCH   9  10
ATOM     10  C   UNL     1       3.310   4.024  18.899  0.00  0.00    +0.000 A 
ATOM     11  C   UNL     1       2.814   2.705  18.958  0.00  0.00    +0.000 A 
ATOM     12 CL   UNL     1       3.629   1.365  18.228  0.00  0.00    +0.000 Cl
ATOM     13  C   UNL     1       1.635   2.396  19.655  0.00  0.00    +0.000 A 
ATOM     14  C   UNL     1       0.942   3.384  20.342  0.00  0.00    +0.000 A 
ATOM     15  C   UNL     1       1.385   4.698  20.267  0.00  0.00    +0.000 A 
ATOM     16  C   UNL     1       2.532   5.023  19.525  0.00  0.00    +0.000 A 
ATOM     17 CL   UNL     1       2.911   6.708  19.425  0.00  0.00    +0.000 Cl
ENDBRANCH   9  10
ENDBRANCH   7   9
ENDBRANCH   4   7
BRANCH   1  18
ATOM     18  C   UNL     1       8.173   8.249  17.973  0.00  0.00    +0.000 C 
BRANCH  18  19
ATOM     19  C   UNL     1       8.337   9.774  17.944  0.00  0.00    +0.000 C 
BRANCH  19  23
ATOM     20  C   UNL     1      10.869  11.657  20.040  0.00  0.00    +0.000 C 
ATOM     21  C   UNL     1      10.134  11.232  18.799  0.00  0.00    +0.000 C 
ATOM     22  O   UNL     1      10.353  11.730  17.697  0.00  0.00    +0.000 OA
ATOM     23  N   UNL     1       9.191  10.255  19.015  0.00  0.00    +0.000 N 
ATOM     24  H   UNL     1       8.983   9.963  19.965  0.00  0.00    +0.000 HD
ENDBRANCH  19  23
ENDBRANCH  18  19
ENDBRANCH   1  18
TORSDOF 6
ENDMDL
MODEL 8
REMARK VINA RESULT:      -6.9      1.520      1.749
REMARK  Name = 
REMARK  8 active torsions:
REMARK  status: ('A' for Active; 'I' for Inactive)
REMARK    1  A    between atoms: C_1  and  C_2
REMARK    2  A    between atoms: N_4  and  C_5
REMARK    3  A    between atoms: C_5  and  C_6
REMARK    4  A    between atoms: C_6  and  N_7
REMARK    5  A    between atoms: N_10  and  C_11
REMARK    6  A    between atoms: C_11  and  C_12
REMARK    7  A    between atoms: C_11  and  C_13
REMARK    8  A    between atoms: C_13  and  C_14
REMARK                            x       y       z     vdW  Elec       q    Type
REMARK                         _______ _______ _______ _____ _____    ______ ____
ROOT
ATOM      1  N   UNL     1       5.823   4.476  15.279  0.00  0.00    +0.000 N 
ATOM      2  C   UNL     1       5.770   5.422  16.261  0.00  0.00    +0.000 C 
ATOM      3  O   UNL     1       6.664   6.241  16.439  0.00  0.00    +0.000 OA
ATOM      4  N   UNL     1       4.628   5.355  17.007  0.00  0.00    +0.000 N 
ATOM      5  H   UNL     1       5.135   3.741  15.242  0.00  0.00    +0.000 HD
ATOM      6  H   UNL     1       3.881   4.759  16.684  0.00  0.00    +0.000 HD
ENDROOT
BRANCH   4   7
ATOM      7  C   UNL     1       4.315   6.334  18.041  0.00  0.00    +0.000 C 
ATOM      8  C   UNL     1       2.991   7.060  17.754  0.00  0.00    +0.000 C 
BRANCH   7   9
ATOM      9  C   UNL     1       4.294   5.723  19.462  0.00  0.00    +0.000 C 
BRANCH   9  10
ATOM     10  C   UNL     1       3.178   4.743  19.810  0.00  0.00    +0.000 A 
ATOM     11  C   UNL     1       1.937   5.186  20.313  0.00  0.00    +0.000 A 
ATOM     12 CL   UNL     1       1.640   6.832  20.755  0.00  0.00    +0.000 Cl
ATOM     13  C   UNL     1       0.847   4.311  20.449  0.00  0.00    +0.000 A 
ATOM     14  C   UNL     1       0.953   2.985  20.051  0.00  0.00    +0.000 A 
ATOM     15  C   UNL     1       2.175   2.512  19.590  0.00  0.00    +0.000 A 
ATOM     16  C   UNL     1       3.284   3.367  19.505  0.00  0.00    +0.000 A 
ATOM     17 CL   UNL     1       4.771   2.627  19.020  0.00  0.00    +0.000 Cl
ENDBRANCH   9  10
ENDBRANCH   7   9
ENDBRANCH   4   7
BRANCH   1  18
ATOM     18  C   UNL     1       6.951   4.445  14.366  0.00  0.00    +0.000 C 
BRANCH  18  19
ATOM     19  C   UNL     1       6.543   4.327  12.892  0.00  0.00    +0.000 C 
BRANCH  19  23
ATOM     20  C   UNL     1       6.081   0.995  11.150  0.00  0.00    +0.000 C 
ATOM     21  C   UNL     1       5.709   2.361  11.656  0.00  0.00    +0.000 C 
ATOM     22  O   UNL     1       4.620   2.880  11.423  0.00  0.00    +0.000 OA
ATOM     23  N   UNL     1       6.701   2.976  12.384  0.00  0.00    +0.000 N 
ATOM     24  H   UNL     1       7.616   2.540  12.450  0.00  0.00    +0.000 HD
ENDBRANCH  19  23
ENDBRANCH  18  19
ENDBRANCH   1  18
TORSDOF 6
ENDMDL
MODEL 9
REMARK VINA RESULT:      -6.9      1.517      1.665
REMARK  Name = 
REMARK  8 active torsions:
REMARK  status: ('A' for Active; 'I' for Inactive)
REMARK    1  A    between atoms: C_1  and  C_2
REMARK    2  A    between atoms: N_4  and  C_5
REMARK    3  A    between atoms: C_5  and  C_6
REMARK    4  A    between atoms: C_6  and  N_7
REMARK    5  A    between atoms: N_10  and  C_11
REMARK    6  A    between atoms: C_11  and  C_12
REMARK    7  A    between atoms: C_11  and  C_13
REMARK    8  A    between atoms: C_13  and  C_14
REMARK                            x       y       z     vdW  Elec       q    Type
REMARK                         _______ _______ _______ _____ _____    ______ ____
ROOT
ATOM      1  N   UNL     1       7.199   4.287  14.966  0.00  0.00    +0.000 N 
ATOM      2  C   UNL     1       6.420   4.816  15.954  0.00  0.00    +0.000 C 
ATOM      3  O   UNL     1       5.763   5.839  15.802  0.00  0.00    +0.000 OA
ATOM      4  N   UNL     1       6.454   4.087  17.108  0.00  0.00    +0.000 N 
ATOM      5  H   UNL     1       7.821   3.521  15.163  0.00  0.00    +0.000 HD
ATOM      6  H   UNL     1       6.888   3.177  17.087  0.00  0.00    +0.000 HD
ENDROOT
BRANCH   4   7
ATOM      7  C   UNL     1       5.617   4.411  18.258  0.00  0.00    +0.000 C 
ATOM      8  C   UNL     1       6.105   5.680  18.975  0.00  0.00    +0.000 C 
BRANCH   7   9
ATOM      9  C   UNL     1       4.119   4.543  17.895  0.00  0.00    +0.000 C 
BRANCH   9  10
ATOM     10  C   UNL     1       3.085   4.087  18.920  0.00  0.00    +0.000 A 
ATOM     11  C   UNL     1       2.345   5.013  19.683  0.00  0.00    +0.000 A 
ATOM     12 CL   UNL     1       2.670   6.712  19.668  0.00  0.00    +0.000 Cl
ATOM     13  C   UNL     1       1.263   4.607  20.481  0.00  0.00    +0.000 A 
ATOM     14  C   UNL     1       0.867   3.275  20.508  0.00  0.00    +0.000 A 
ATOM     15  C   UNL     1       1.603   2.336  19.797  0.00  0.00    +0.000 A 
ATOM     16  C   UNL     1       2.720   2.728  19.043  0.00  0.00    +0.000 A 
ATOM     17 CL   UNL     1       3.611   1.446  18.296  0.00  0.00    +0.000 Cl
ENDBRANCH   9  10
ENDBRANCH   7   9
ENDBRANCH   4   7
BRANCH   1  18
ATOM     18  C   UNL     1       7.233   4.917  13.658  0.00  0.00    +0.000 C 
BRANCH  18  19
ATOM     19  C   UNL     1       7.033   3.932  12.499  0.00  0.00    +0.000 C 
BRANCH  19  23
ATOM     20  C   UNL     1       3.639   3.065  11.058  0.00  0.00    +0.000 C 
ATOM     21  C   UNL     1       5.061   2.843  11.493  0.00  0.00    +0.000 C 
ATOM     22  O   UNL     1       5.607   1.744  11.437  0.00  0.00    +0.000 OA
ATOM     23  N   UNL     1       5.681   3.974  11.970  0.00  0.00    +0.000 N 
ATOM     24  H   UNL     1       5.143   4.826  12.091  0.00  0.00    +0.000 HD
ENDBRANCH  19  23
ENDBRANCH  18  19
ENDBRANCH   1  18
TORSDOF 6
ENDMDL
