MODEL 1
REMARK VINA RESULT:      -7.1      0.000      0.000
REMARK  Name = 
REMARK  1 active torsions:
REMARK  status: ('A' for Active; 'I' for Inactive)
REMARK    1  A    between atoms: C_11  and  C_12
REMARK                            x       y       z     vdW  Elec       q    Type
REMARK                         _______ _______ _______ _____ _____    ______ ____
ROOT
ATOM      1  O   UNL     1      -4.801  11.201  16.444  0.00  0.00    +0.000 OA
ATOM      2  C   UNL     1      -4.615  11.683  17.557  0.00  0.00    +0.000 C 
ATOM      3  C   UNL     1      -5.687  12.480  18.206  0.00  0.00    +0.000 A 
ATOM      4  C   UNL     1      -6.900  12.671  17.526  0.00  0.00    +0.000 A 
ATOM      5  C   UNL     1      -7.916  13.422  18.115  0.00  0.00    +0.000 A 
ATOM      6  C   UNL     1      -7.720  13.980  19.374  0.00  0.00    +0.000 A 
ATOM      7  C   UNL     1      -6.511  13.787  20.050  0.00  0.00    +0.000 A 
ATOM      8  C   UNL     1      -5.471  13.033  19.482  0.00  0.00    +0.000 A 
ATOM      9  C   UNL     1      -4.187  12.816  20.169  0.00  0.00    +0.000 A 
ATOM     10  N   UNL     1      -4.038  13.377  21.395  0.00  0.00    +0.000 NA
ATOM     11  C   UNL     1      -2.849  13.205  22.017  0.00  0.00    +0.000 A 
ATOM     12  C   UNL     1      -1.815  12.462  21.471  0.00  0.00    +0.000 A 
ATOM     13  C   UNL     1      -1.948  11.871  20.210  0.00  0.00    +0.000 A 
ATOM     14  C   UNL     1      -3.174  12.066  19.552  0.00  0.00    +0.000 A 
ATOM     15  C   UNL     1      -3.333  11.498  18.295  0.00  0.00    +0.000 A 
ATOM     16  N   UNL     1      -2.381  10.768  17.665  0.00  0.00    +0.000 NA
ATOM     17  C   UNL     1      -1.213  10.579  18.286  0.00  0.00    +0.000 A 
ATOM     18  C   UNL     1      -0.245   9.828  17.632  0.00  0.00    +0.000 A 
ATOM     19  C   UNL     1       1.005   9.577  18.199  0.00  0.00    +0.000 A 
ATOM     20  C   UNL     1       1.303  10.089  19.451  0.00  0.00    +0.000 A 
ATOM     21  C   UNL     1       0.349  10.846  20.128  0.00  0.00    +0.000 A 
ATOM     22  C   UNL     1      -0.925  11.105  19.565  0.00  0.00    +0.000 A 
ENDROOT
BRANCH  11  23
ATOM     23  C   UNL     1      -2.698  13.896  23.301  0.00  0.00    +0.000 A 
ATOM     24  C   UNL     1      -3.626  14.085  24.301  0.00  0.00    +0.000 A 
ATOM     25  C   UNL     1      -3.124  14.866  25.382  0.00  0.00    +0.000 A 
ATOM     26  C   UNL     1      -1.819  15.247  25.177  0.00  0.00    +0.000 A 
ATOM     27  S   UNL     1      -1.204  14.656  23.708  0.00  0.00    +0.000 S 
ENDBRANCH  11  23
TORSDOF 1
ENDMDL
MODEL 2
REMARK VINA RESULT:      -6.9      3.523      6.120
REMARK  Name = 
REMARK  1 active torsions:
REMARK  status: ('A' for Active; 'I' for Inactive)
REMARK    1  A    between atoms: C_11  and  C_12
REMARK                            x       y       z     vdW  Elec       q    Type
REMARK                         _______ _______ _______ _____ _____    ______ ____
ROOT
ATOM      1  O   UNL     1      -0.742  14.725  24.263  0.00  0.00    +0.000 OA
ATOM      2  C   UNL     1      -1.177  14.173  23.259  0.00  0.00    +0.000 C 
ATOM      3  C   UNL     1      -2.581  13.689  23.229  0.00  0.00    +0.000 A 
ATOM      4  C   UNL     1      -3.389  13.873  24.362  0.00  0.00    +0.000 A 
ATOM      5  C   UNL     1      -4.706  13.422  24.357  0.00  0.00    +0.000 A 
ATOM      6  C   UNL     1      -5.214  12.788  23.228  0.00  0.00    +0.000 A 
ATOM      7  C   UNL     1      -4.408  12.606  22.099  0.00  0.00    +0.000 A 
ATOM      8  C   UNL     1      -3.077  13.054  22.075  0.00  0.00    +0.000 A 
ATOM      9  C   UNL     1      -2.205  12.874  20.902  0.00  0.00    +0.000 A 
ATOM     10  N   UNL     1      -2.740  12.252  19.823  0.00  0.00    +0.000 NA
ATOM     11  C   UNL     1      -1.932  12.059  18.754  0.00  0.00    +0.000 A 
ATOM     12  C   UNL     1      -0.619  12.497  18.714  0.00  0.00    +0.000 A 
ATOM     13  C   UNL     1      -0.048  13.145  19.815  0.00  0.00    +0.000 A 
ATOM     14  C   UNL     1      -0.877  13.327  20.934  0.00  0.00    +0.000 A 
ATOM     15  C   UNL     1      -0.336  13.961  22.045  0.00  0.00    +0.000 A 
ATOM     16  N   UNL     1       0.939  14.413  22.117  0.00  0.00    +0.000 NA
ATOM     17  C   UNL     1       1.733  14.242  21.055  0.00  0.00    +0.000 A 
ATOM     18  C   UNL     1       3.037  14.710  21.138  0.00  0.00    +0.000 A 
ATOM     19  C   UNL     1       3.940  14.577  20.082  0.00  0.00    +0.000 A 
ATOM     20  C   UNL     1       3.536  13.958  18.910  0.00  0.00    +0.000 A 
ATOM     21  C   UNL     1       2.232  13.480  18.802  0.00  0.00    +0.000 A 
ATOM     22  C   UNL     1       1.304  13.611  19.865  0.00  0.00    +0.000 A 
ENDROOT
BRANCH  11  23
ATOM     23  C   UNL     1      -2.522  11.309  17.641  0.00  0.00    +0.000 A 
ATOM     24  C   UNL     1      -1.943  10.357  16.830  0.00  0.00    +0.000 A 
ATOM     25  C   UNL     1      -2.822   9.893  15.809  0.00  0.00    +0.000 A 
ATOM     26  C   UNL     1      -4.052  10.501  15.874  0.00  0.00    +0.000 A 
ATOM     27  S   UNL     1      -4.151  11.606  17.161  0.00  0.00    +0.000 S 
ENDBRANCH  11  23
TORSDOF 1
ENDMDL
MODEL 3
REMARK VINA RESULT:      -6.8      1.096      5.280
REMARK  Name = 
REMARK  1 active torsions:
REMARK  status: ('A' for Active; 'I' for Inactive)
REMARK    1  A    between atoms: C_11  and  C_12
REMARK                            x       y       z     vdW  Elec       q    Type
REMARK                         _______ _______ _______ _____ _____    ______ ____
ROOT
ATOM      1  O   UNL     1      -2.738  10.062  16.623  0.00  0.00    +0.000 OA
ATOM      2  C   UNL     1      -2.536  10.664  17.671  0.00  0.00    +0.000 C 
ATOM      3  C   UNL     1      -1.241  10.503  18.381  0.00  0.00    +0.000 A 
ATOM      4  C   UNL     1      -0.267   9.653  17.834  0.00  0.00    +0.000 A 
ATOM      5  C   UNL     1       0.952   9.483  18.488  0.00  0.00    +0.000 A 
ATOM      6  C   UNL     1       1.195  10.155  19.681  0.00  0.00    +0.000 A 
ATOM      7  C   UNL     1       0.223  11.002  20.224  0.00  0.00    +0.000 A 
ATOM      8  C   UNL     1      -1.013  11.195  19.585  0.00  0.00    +0.000 A 
ATOM      9  C   UNL     1      -2.055  12.078  20.134  0.00  0.00    +0.000 A 
ATOM     10  N   UNL     1      -1.777  12.715  21.298  0.00  0.00    +0.000 NA
ATOM     11  C   UNL     1      -2.744  13.504  21.822  0.00  0.00    +0.000 A 
ATOM     12  C   UNL     1      -3.967  13.707  21.202  0.00  0.00    +0.000 A 
ATOM     13  C   UNL     1      -4.274  13.063  19.998  0.00  0.00    +0.000 A 
ATOM     14  C   UNL     1      -3.280  12.226  19.465  0.00  0.00    +0.000 A 
ATOM     15  C   UNL     1      -3.558  11.568  18.273  0.00  0.00    +0.000 A 
ATOM     16  N   UNL     1      -4.726  11.683  17.597  0.00  0.00    +0.000 NA
ATOM     17  C   UNL     1      -5.675  12.478  18.100  0.00  0.00    +0.000 A 
ATOM     18  C   UNL     1      -6.868  12.590  17.397  0.00  0.00    +0.000 A 
ATOM     19  C   UNL     1      -7.917  13.395  17.844  0.00  0.00    +0.000 A 
ATOM     20  C   UNL     1      -7.778  14.107  19.024  0.00  0.00    +0.000 A 
ATOM     21  C   UNL     1      -6.592  14.012  19.747  0.00  0.00    +0.000 A 
ATOM     22  C   UNL     1      -5.517  13.201  19.304  0.00  0.00    +0.000 A 
ENDROOT
BRANCH  11  23
ATOM     23  C   UNL     1      -2.437  14.107  23.122  0.00  0.00    +0.000 A 
ATOM     24  C   UNL     1      -1.326  14.826  23.506  0.00  0.00    +0.000 A 
ATOM     25  C   UNL     1      -1.358  15.200  24.881  0.00  0.00    +0.000 A 
ATOM     26  C   UNL     1      -2.500  14.760  25.506  0.00  0.00    +0.000 A 
ATOM     27  S   UNL     1      -3.527  13.922  24.445  0.00  0.00    +0.000 S 
ENDBRANCH  11  23
TORSDOF 1
ENDMDL
MODEL 4
REMARK VINA RESULT:      -6.8      3.523      7.608
REMARK  Name = 
REMARK  1 active torsions:
REMARK  status: ('A' for Active; 'I' for Inactive)
REMARK    1  A    between atoms: C_11  and  C_12
REMARK                            x       y       z     vdW  Elec       q    Type
REMARK                         _______ _______ _______ _____ _____    ______ ____
ROOT
ATOM      1  O   UNL     1       1.666  15.235  22.576  0.00  0.00    +0.000 OA
ATOM      2  C   UNL     1       1.127  14.584  21.689  0.00  0.00    +0.000 C 
ATOM      3  C   UNL     1       1.862  14.297  20.430  0.00  0.00    +0.000 A 
ATOM      4  C   UNL     1       3.170  14.784  20.280  0.00  0.00    +0.000 A 
ATOM      5  C   UNL     1       3.874  14.532  19.105  0.00  0.00    +0.000 A 
ATOM      6  C   UNL     1       3.276  13.798  18.085  0.00  0.00    +0.000 A 
ATOM      7  C   UNL     1       1.973  13.312  18.238  0.00  0.00    +0.000 A 
ATOM      8  C   UNL     1       1.240  13.550  19.413  0.00  0.00    +0.000 A 
ATOM      9  C   UNL     1      -0.133  13.053  19.600  0.00  0.00    +0.000 A 
ATOM     10  N   UNL     1      -0.678  12.342  18.582  0.00  0.00    +0.000 NA
ATOM     11  C   UNL     1      -1.951  11.909  18.738  0.00  0.00    +0.000 A 
ATOM     12  C   UNL     1      -2.685  12.132  19.892  0.00  0.00    +0.000 A 
ATOM     13  C   UNL     1      -2.141  12.860  20.956  0.00  0.00    +0.000 A 
ATOM     14  C   UNL     1      -0.828  13.329  20.787  0.00  0.00    +0.000 A 
ATOM     15  C   UNL     1      -0.263  14.061  21.824  0.00  0.00    +0.000 A 
ATOM     16  N   UNL     1      -0.899  14.349  22.985  0.00  0.00    +0.000 NA
ATOM     17  C   UNL     1      -2.148  13.905  23.151  0.00  0.00    +0.000 A 
ATOM     18  C   UNL     1      -2.790  14.205  24.346  0.00  0.00    +0.000 A 
ATOM     19  C   UNL     1      -4.095  13.786  24.609  0.00  0.00    +0.000 A 
ATOM     20  C   UNL     1      -4.783  13.050  23.659  0.00  0.00    +0.000 A 
ATOM     21  C   UNL     1      -4.161  12.736  22.452  0.00  0.00    +0.000 A 
ATOM     22  C   UNL     1      -2.835  13.152  22.172  0.00  0.00    +0.000 A 
ENDROOT
BRANCH  11  23
ATOM     23  C   UNL     1      -2.533  11.219  17.583  0.00  0.00    +0.000 A 
ATOM     24  C   UNL     1      -1.954  10.295  16.740  0.00  0.00    +0.000 A 
ATOM     25  C   UNL     1      -2.822   9.890  15.685  0.00  0.00    +0.000 A 
ATOM     26  C   UNL     1      -4.045  10.513  15.758  0.00  0.00    +0.000 A 
ATOM     27  S   UNL     1      -4.150  11.560  17.091  0.00  0.00    +0.000 S 
ENDBRANCH  11  23
TORSDOF 1
ENDMDL
MODEL 5
REMARK VINA RESULT:      -6.7      3.328      7.566
REMARK  Name = 
REMARK  1 active torsions:
REMARK  status: ('A' for Active; 'I' for Inactive)
REMARK    1  A    between atoms: C_11  and  C_12
REMARK                            x       y       z     vdW  Elec       q    Type
REMARK                         _______ _______ _______ _____ _____    ______ ____
ROOT
ATOM      1  O   UNL     1      -0.089  15.204  23.420  0.00  0.00    +0.000 OA
ATOM      2  C   UNL     1      -0.381  14.540  22.431  0.00  0.00    +0.000 C 
ATOM      3  C   UNL     1       0.672  14.168  21.452  0.00  0.00    +0.000 A 
ATOM      4  C   UNL     1       1.991  14.591  21.677  0.00  0.00    +0.000 A 
ATOM      5  C   UNL     1       2.992  14.259  20.768  0.00  0.00    +0.000 A 
ATOM      6  C   UNL     1       2.678  13.511  19.638  0.00  0.00    +0.000 A 
ATOM      7  C   UNL     1       1.363  13.089  19.415  0.00  0.00    +0.000 A 
ATOM      8  C   UNL     1       0.334  13.408  20.318  0.00  0.00    +0.000 A 
ATOM      9  C   UNL     1      -1.059  12.980  20.107  0.00  0.00    +0.000 A 
ATOM     10  N   UNL     1      -1.323  12.252  18.995  0.00  0.00    +0.000 NA
ATOM     11  C   UNL     1      -2.607  11.882  18.782  0.00  0.00    +0.000 A 
ATOM     12  C   UNL     1      -3.632  12.185  19.664  0.00  0.00    +0.000 A 
ATOM     13  C   UNL     1      -3.383  12.932  20.821  0.00  0.00    +0.000 A 
ATOM     14  C   UNL     1      -2.054  13.336  21.031  0.00  0.00    +0.000 A 
ATOM     15  C   UNL     1      -1.777  14.084  22.168  0.00  0.00    +0.000 A 
ATOM     16  N   UNL     1      -2.706  14.449  23.083  0.00  0.00    +0.000 NA
ATOM     17  C   UNL     1      -3.972  14.067  22.888  0.00  0.00    +0.000 A 
ATOM     18  C   UNL     1      -4.917  14.445  23.834  0.00  0.00    +0.000 A 
ATOM     19  C   UNL     1      -6.263  14.095  23.715  0.00  0.00    +0.000 A 
ATOM     20  C   UNL     1      -6.683  13.350  22.625  0.00  0.00    +0.000 A 
ATOM     21  C   UNL     1      -5.755  12.959  21.663  0.00  0.00    +0.000 A 
ATOM     22  C   UNL     1      -4.384  13.305  21.772  0.00  0.00    +0.000 A 
ENDROOT
BRANCH  11  23
ATOM     23  C   UNL     1      -2.864  11.170  17.527  0.00  0.00    +0.000 A 
ATOM     24  C   UNL     1      -2.051  10.295  16.842  0.00  0.00    +0.000 A 
ATOM     25  C   UNL     1      -2.626   9.848  15.617  0.00  0.00    +0.000 A 
ATOM     26  C   UNL     1      -3.871  10.392  15.407  0.00  0.00    +0.000 A 
ATOM     27  S   UNL     1      -4.344  11.415  16.677  0.00  0.00    +0.000 S 
ENDBRANCH  11  23
TORSDOF 1
ENDMDL
MODEL 6
REMARK VINA RESULT:      -6.6      2.640      6.239
REMARK  Name = 
REMARK  1 active torsions:
REMARK  status: ('A' for Active; 'I' for Inactive)
REMARK    1  A    between atoms: C_11  and  C_12
REMARK                            x       y       z     vdW  Elec       q    Type
REMARK                         _______ _______ _______ _____ _____    ______ ____
ROOT
ATOM      1  O   UNL     1      -5.559  13.856  23.937  0.00  0.00    +0.000 OA
ATOM      2  C   UNL     1      -4.505  13.822  23.311  0.00  0.00    +0.000 C 
ATOM      3  C   UNL     1      -3.270  14.394  23.909  0.00  0.00    +0.000 A 
ATOM      4  C   UNL     1      -3.337  14.970  25.188  0.00  0.00    +0.000 A 
ATOM      5  C   UNL     1      -2.193  15.517  25.763  0.00  0.00    +0.000 A 
ATOM      6  C   UNL     1      -0.989  15.491  25.066  0.00  0.00    +0.000 A 
ATOM      7  C   UNL     1      -0.925  14.916  23.792  0.00  0.00    +0.000 A 
ATOM      8  C   UNL     1      -2.063  14.354  23.189  0.00  0.00    +0.000 A 
ATOM      9  C   UNL     1      -2.025  13.745  21.849  0.00  0.00    +0.000 A 
ATOM     10  N   UNL     1      -0.832  13.740  21.204  0.00  0.00    +0.000 NA
ATOM     11  C   UNL     1      -0.800  13.208  19.960  0.00  0.00    +0.000 A 
ATOM     12  C   UNL     1      -1.912  12.648  19.353  0.00  0.00    +0.000 A 
ATOM     13  C   UNL     1      -3.152  12.638  20.001  0.00  0.00    +0.000 A 
ATOM     14  C   UNL     1      -3.193  13.210  21.283  0.00  0.00    +0.000 A 
ATOM     15  C   UNL     1      -4.412  13.221  21.950  0.00  0.00    +0.000 A 
ATOM     16  N   UNL     1      -5.561  12.716  21.440  0.00  0.00    +0.000 NA
ATOM     17  C   UNL     1      -5.528  12.171  20.221  0.00  0.00    +0.000 A 
ATOM     18  C   UNL     1      -6.711  11.654  19.709  0.00  0.00    +0.000 A 
ATOM     19  C   UNL     1      -6.775  11.066  18.445  0.00  0.00    +0.000 A 
ATOM     20  C   UNL     1      -5.633  10.991  17.666  0.00  0.00    +0.000 A 
ATOM     21  C   UNL     1      -4.433  11.502  18.157  0.00  0.00    +0.000 A 
ATOM     22  C   UNL     1      -4.353  12.099  19.440  0.00  0.00    +0.000 A 
ENDROOT
BRANCH  11  23
ATOM     23  C   UNL     1       0.487  13.298  19.264  0.00  0.00    +0.000 A 
ATOM     24  C   UNL     1       1.277  12.287  18.762  0.00  0.00    +0.000 A 
ATOM     25  C   UNL     1       2.497  12.765  18.202  0.00  0.00    +0.000 A 
ATOM     26  C   UNL     1       2.600  14.133  18.286  0.00  0.00    +0.000 A 
ATOM     27  S   UNL     1       1.235  14.832  19.017  0.00  0.00    +0.000 S 
ENDBRANCH  11  23
TORSDOF 1
ENDMDL
MODEL 7
REMARK VINA RESULT:      -6.6      4.322      7.553
REMARK  Name = 
REMARK  1 active torsions:
REMARK  status: ('A' for Active; 'I' for Inactive)
REMARK    1  A    between atoms: C_11  and  C_12
REMARK                            x       y       z     vdW  Elec       q    Type
REMARK                         _______ _______ _______ _____ _____    ______ ____
ROOT
ATOM      1  O   UNL     1       0.092  17.246  20.460  0.00  0.00    +0.000 OA
ATOM      2  C   UNL     1       0.419  16.085  20.243  0.00  0.00    +0.000 C 
ATOM      3  C   UNL     1       1.517  15.791  19.287  0.00  0.00    +0.000 A 
ATOM      4  C   UNL     1       2.162  16.858  18.642  0.00  0.00    +0.000 A 
ATOM      5  C   UNL     1       3.189  16.604  17.737  0.00  0.00    +0.000 A 
ATOM      6  C   UNL     1       3.570  15.292  17.475  0.00  0.00    +0.000 A 
ATOM      7  C   UNL     1       2.927  14.230  18.119  0.00  0.00    +0.000 A 
ATOM      8  C   UNL     1       1.889  14.457  19.039  0.00  0.00    +0.000 A 
ATOM      9  C   UNL     1       1.194  13.359  19.729  0.00  0.00    +0.000 A 
ATOM     10  N   UNL     1       1.595  12.095  19.446  0.00  0.00    +0.000 NA
ATOM     11  C   UNL     1       0.938  11.082  20.056  0.00  0.00    +0.000 A 
ATOM     12  C   UNL     1      -0.084  11.290  20.968  0.00  0.00    +0.000 A 
ATOM     13  C   UNL     1      -0.513  12.585  21.278  0.00  0.00    +0.000 A 
ATOM     14  C   UNL     1       0.153  13.637  20.629  0.00  0.00    +0.000 A 
ATOM     15  C   UNL     1      -0.255  14.935  20.912  0.00  0.00    +0.000 A 
ATOM     16  N   UNL     1      -1.254  15.247  21.773  0.00  0.00    +0.000 NA
ATOM     17  C   UNL     1      -1.891  14.249  22.393  0.00  0.00    +0.000 A 
ATOM     18  C   UNL     1      -2.911  14.580  23.275  0.00  0.00    +0.000 A 
ATOM     19  C   UNL     1      -3.634  13.608  23.968  0.00  0.00    +0.000 A 
ATOM     20  C   UNL     1      -3.336  12.269  23.778  0.00  0.00    +0.000 A 
ATOM     21  C   UNL     1      -2.317  11.910  22.899  0.00  0.00    +0.000 A 
ATOM     22  C   UNL     1      -1.573  12.887  22.191  0.00  0.00    +0.000 A 
ENDROOT
BRANCH  11  23
ATOM     23  C   UNL     1       1.346   9.731  19.660  0.00  0.00    +0.000 A 
ATOM     24  C   UNL     1       1.467   8.597  20.433  0.00  0.00    +0.000 A 
ATOM     25  C   UNL     1       1.952   7.476  19.699  0.00  0.00    +0.000 A 
ATOM     26  C   UNL     1       2.182   7.787  18.380  0.00  0.00    +0.000 A 
ATOM     27  S   UNL     1       1.802   9.405  18.029  0.00  0.00    +0.000 S 
ENDBRANCH  11  23
TORSDOF 1
ENDMDL
MODEL 8
REMARK VINA RESULT:      -6.6      2.765      5.476
REMARK  Name = 
REMARK  1 active torsions:
REMARK  status: ('A' for Active; 'I' for Inactive)
REMARK    1  A    between atoms: C_11  and  C_12
REMARK                            x       y       z     vdW  Elec       q    Type
REMARK                         _______ _______ _______ _____ _____    ______ ____
ROOT
ATOM      1  O   UNL     1      -5.281  12.581  21.980  0.00  0.00    +0.000 OA
ATOM      2  C   UNL     1      -4.111  12.849  21.728  0.00  0.00    +0.000 C 
ATOM      3  C   UNL     1      -3.274  13.537  22.744  0.00  0.00    +0.000 A 
ATOM      4  C   UNL     1      -3.844  13.873  23.982  0.00  0.00    +0.000 A 
ATOM      5  C   UNL     1      -3.078  14.524  24.945  0.00  0.00    +0.000 A 
ATOM      6  C   UNL     1      -1.750  14.840  24.674  0.00  0.00    +0.000 A 
ATOM      7  C   UNL     1      -1.183  14.504  23.441  0.00  0.00    +0.000 A 
ATOM      8  C   UNL     1      -1.932  13.844  22.451  0.00  0.00    +0.000 A 
ATOM      9  C   UNL     1      -1.362  13.480  21.143  0.00  0.00    +0.000 A 
ATOM     10  N   UNL     1      -0.066  13.806  20.920  0.00  0.00    +0.000 NA
ATOM     11  C   UNL     1       0.453  13.500  19.708  0.00  0.00    +0.000 A 
ATOM     12  C   UNL     1      -0.271  12.847  18.723  0.00  0.00    +0.000 A 
ATOM     13  C   UNL     1      -1.609  12.498  18.933  0.00  0.00    +0.000 A 
ATOM     14  C   UNL     1      -2.156  12.835  20.182  0.00  0.00    +0.000 A 
ATOM     15  C   UNL     1      -3.486  12.507  20.418  0.00  0.00    +0.000 A 
ATOM     16  N   UNL     1      -4.285  11.885  19.519  0.00  0.00    +0.000 NA
ATOM     17  C   UNL     1      -3.771  11.562  18.329  0.00  0.00    +0.000 A 
ATOM     18  C   UNL     1      -4.599  10.923  17.415  0.00  0.00    +0.000 A 
ATOM     19  C   UNL     1      -4.151  10.548  16.147  0.00  0.00    +0.000 A 
ATOM     20  C   UNL     1      -2.845  10.818  15.775  0.00  0.00    +0.000 A 
ATOM     21  C   UNL     1      -1.994  11.458  16.674  0.00  0.00    +0.000 A 
ATOM     22  C   UNL     1      -2.434  11.842  17.965  0.00  0.00    +0.000 A 
ENDROOT
BRANCH  11  23
ATOM     23  C   UNL     1       1.831  13.943  19.476  0.00  0.00    +0.000 A 
ATOM     24  C   UNL     1       2.529  14.029  18.292  0.00  0.00    +0.000 A 
ATOM     25  C   UNL     1       3.878  14.449  18.475  0.00  0.00    +0.000 A 
ATOM     26  C   UNL     1       4.169  14.680  19.798  0.00  0.00    +0.000 A 
ATOM     27  S   UNL     1       2.828  14.409  20.804  0.00  0.00    +0.000 S 
ENDBRANCH  11  23
TORSDOF 1
ENDMDL
MODEL 9
REMARK VINA RESULT:      -6.6      8.272     11.042
REMARK  Name = 
REMARK  1 active torsions:
REMARK  status: ('A' for Active; 'I' for Inactive)
REMARK    1  A    between atoms: C_11  and  C_12
REMARK                            x       y       z     vdW  Elec       q    Type
REMARK                         _______ _______ _______ _____ _____    ______ ____
ROOT
ATOM      1  O   UNL     1       2.472  14.872  22.432  0.00  0.00    +0.000 OA
ATOM      2  C   UNL     1       3.484  14.879  21.741  0.00  0.00    +0.000 C 
ATOM      3  C   UNL     1       3.416  15.349  20.333  0.00  0.00    +0.000 A 
ATOM      4  C   UNL     1       2.183  15.776  19.817  0.00  0.00    +0.000 A 
ATOM      5  C   UNL     1       2.096  16.215  18.498  0.00  0.00    +0.000 A 
ATOM      6  C   UNL     1       3.234  16.225  17.698  0.00  0.00    +0.000 A 
ATOM      7  C   UNL     1       4.463  15.800  18.214  0.00  0.00    +0.000 A 
ATOM      8  C   UNL     1       4.580  15.355  19.542  0.00  0.00    +0.000 A 
ATOM      9  C   UNL     1       5.859  14.900  20.111  0.00  0.00    +0.000 A 
ATOM     10  N   UNL     1       6.943  14.927  19.298  0.00  0.00    +0.000 NA
ATOM     11  C   UNL     1       8.115  14.481  19.808  0.00  0.00    +0.000 A 
ATOM     12  C   UNL     1       8.247  14.043  21.116  0.00  0.00    +0.000 A 
ATOM     13  C   UNL     1       7.142  14.011  21.974  0.00  0.00    +0.000 A 
ATOM     14  C   UNL     1       5.921  14.451  21.440  0.00  0.00    +0.000 A 
ATOM     15  C   UNL     1       4.804  14.425  22.266  0.00  0.00    +0.000 A 
ATOM     16  N   UNL     1       4.821  14.000  23.552  0.00  0.00    +0.000 NA
ATOM     17  C   UNL     1       5.980  13.579  24.066  0.00  0.00    +0.000 A 
ATOM     18  C   UNL     1       5.986  13.147  25.386  0.00  0.00    +0.000 A 
ATOM     19  C   UNL     1       7.148  12.689  26.009  0.00  0.00    +0.000 A 
ATOM     20  C   UNL     1       8.338  12.656  25.300  0.00  0.00    +0.000 A 
ATOM     21  C   UNL     1       8.358  13.084  23.974  0.00  0.00    +0.000 A 
ATOM     22  C   UNL     1       7.186  13.555  23.330  0.00  0.00    +0.000 A 
ENDROOT
BRANCH  11  23
ATOM     23  C   UNL     1       9.243  14.447  18.873  0.00  0.00    +0.000 A 
ATOM     24  C   UNL     1       9.583  13.476  17.957  0.00  0.00    +0.000 A 
ATOM     25  C   UNL     1      10.793  13.770  17.263  0.00  0.00    +0.000 A 
ATOM     26  C   UNL     1      11.339  14.965  17.668  0.00  0.00    +0.000 A 
ATOM     27  S   UNL     1      10.396  15.729  18.856  0.00  0.00    +0.000 S 
ENDBRANCH  11  23
TORSDOF 1
ENDMDL
