MODEL 1
REMARK VINA RESULT:      -6.0      0.000      0.000
REMARK  Name = 
REMARK  6 active torsions:
REMARK  status: ('A' for Active; 'I' for Inactive)
REMARK    1  A    between atoms: C_1  and  N_2
REMARK    2  A    between atoms: N_2  and  CA_3
REMARK    3  A    between atoms: CA_3  and  CB_4
REMARK    4  A    between atoms: CA_3  and  C_11
REMARK    5  A    between atoms: CB_4  and  CG_5
REMARK    6  A    between atoms: C_11  and  OXT_13
REMARK                            x       y       z     vdW  Elec       q    Type
REMARK                         _______ _______ _______ _____ _____    ______ ____
ROOT
ATOM      1  CA  PHE A   1       6.358   5.136  16.736  0.00  0.00    +0.000 C 
ENDROOT
BRANCH   1   3
ATOM      2  C   ACE A   0       6.978   4.773  14.374  0.00  0.00    +0.000 C 
ATOM      3  N   PHE A   1       7.356   5.402  15.641  0.00  0.00    +0.000 NA
ATOM      4  H   PHE A   1       7.349   6.415  15.481  0.00  0.00    +0.000 HD
ENDBRANCH   1   3
BRANCH   1   5
ATOM      5  C   PHE A   1       7.174   4.721  17.974  0.00  0.00    +0.000 C 
ATOM      6  O   PHE A   1       6.871   4.965  19.135  0.00  0.00    +0.000 OA
BRANCH   5   7
ATOM      7  OXT PHE A   1       8.304   4.042  17.640  0.00  0.00    +0.000 OA
ATOM      8  HXT PHE A   1       9.070   4.640  17.810  0.00  0.00    +0.000 HD
ENDBRANCH   5   7
ENDBRANCH   1   5
BRANCH   1   9
ATOM      9  CB  PHE A   1       5.353   4.023  16.382  0.00  0.00    +0.000 C 
BRANCH   9  10
ATOM     10  CG  PHE A   1       4.038   4.060  17.127  0.00  0.00    +0.000 A 
ATOM     11  CD1 PHE A   1       3.467   5.272  17.540  0.00  0.00    +0.000 A 
ATOM     12  CE1 PHE A   1       2.206   5.290  18.142  0.00  0.00    +0.000 A 
ATOM     13  CZ  PHE A   1       1.508   4.102  18.346  0.00  0.00    +0.000 A 
ATOM     14  CE2 PHE A   1       2.083   2.889  17.976  0.00  0.00    +0.000 A 
ATOM     15  CD2 PHE A   1       3.343   2.867  17.377  0.00  0.00    +0.000 A 
ENDBRANCH   9  10
ENDBRANCH   1   9
TORSDOF 5
ENDMDL
MODEL 2
REMARK VINA RESULT:      -5.9      2.011      2.542
REMARK  Name = 
REMARK  6 active torsions:
REMARK  status: ('A' for Active; 'I' for Inactive)
REMARK    1  A    between atoms: C_1  and  N_2
REMARK    2  A    between atoms: N_2  and  CA_3
REMARK    3  A    between atoms: CA_3  and  CB_4
REMARK    4  A    between atoms: CA_3  and  C_11
REMARK    5  A    between atoms: CB_4  and  CG_5
REMARK    6  A    between atoms: C_11  and  OXT_13
REMARK                            x       y       z     vdW  Elec       q    Type
REMARK                         _______ _______ _______ _____ _____    ______ ____
ROOT
ATOM      1  CA  PHE A   1       6.524   4.428  15.953  0.00  0.00    +0.000 C 
ENDROOT
BRANCH   1   3
ATOM      2  C   ACE A   0       7.699   4.786  18.094  0.00  0.00    +0.000 C 
ATOM      3  N   PHE A   1       7.848   4.537  16.659  0.00  0.00    +0.000 NA
ATOM      4  H   PHE A   1       8.305   3.623  16.564  0.00  0.00    +0.000 HD
ENDBRANCH   1   3
BRANCH   1   5
ATOM      5  C   PHE A   1       6.829   4.496  14.446  0.00  0.00    +0.000 C 
ATOM      6  O   PHE A   1       7.437   5.400  13.888  0.00  0.00    +0.000 OA
BRANCH   5   7
ATOM      7  OXT PHE A   1       6.333   3.423  13.772  0.00  0.00    +0.000 OA
ATOM      8  HXT PHE A   1       7.088   2.815  13.588  0.00  0.00    +0.000 HD
ENDBRANCH   5   7
ENDBRANCH   1   5
BRANCH   1   9
ATOM      9  CB  PHE A   1       5.540   5.551  16.334  0.00  0.00    +0.000 C 
BRANCH   9  10
ATOM     10  CG  PHE A   1       4.260   5.108  17.005  0.00  0.00    +0.000 A 
ATOM     11  CD1 PHE A   1       3.468   6.008  17.731  0.00  0.00    +0.000 A 
ATOM     12  CE1 PHE A   1       2.241   5.601  18.262  0.00  0.00    +0.000 A 
ATOM     13  CZ  PHE A   1       1.798   4.292  18.082  0.00  0.00    +0.000 A 
ATOM     14  CE2 PHE A   1       2.594   3.379  17.397  0.00  0.00    +0.000 A 
ATOM     15  CD2 PHE A   1       3.821   3.782  16.867  0.00  0.00    +0.000 A 
ENDBRANCH   9  10
ENDBRANCH   1   9
TORSDOF 5
ENDMDL
MODEL 3
REMARK VINA RESULT:      -5.8      1.267      1.571
REMARK  Name = 
REMARK  6 active torsions:
REMARK  status: ('A' for Active; 'I' for Inactive)
REMARK    1  A    between atoms: C_1  and  N_2
REMARK    2  A    between atoms: N_2  and  CA_3
REMARK    3  A    between atoms: CA_3  and  CB_4
REMARK    4  A    between atoms: CA_3  and  C_11
REMARK    5  A    between atoms: CB_4  and  CG_5
REMARK    6  A    between atoms: C_11  and  OXT_13
REMARK                            x       y       z     vdW  Elec       q    Type
REMARK                         _______ _______ _______ _____ _____    ______ ____
ROOT
ATOM      1  CA  PHE A   1       6.107   6.064  17.543  0.00  0.00    +0.000 C 
ENDROOT
BRANCH   1   3
ATOM      2  C   ACE A   0       7.735   7.919  17.628  0.00  0.00    +0.000 C 
ATOM      3  N   PHE A   1       7.156   6.854  16.807  0.00  0.00    +0.000 NA
ATOM      4  H   PHE A   1       7.917   6.200  16.594  0.00  0.00    +0.000 HD
ENDBRANCH   1   3
BRANCH   1   5
ATOM      5  C   PHE A   1       6.858   5.195  18.568  0.00  0.00    +0.000 C 
ATOM      6  O   PHE A   1       6.761   5.292  19.784  0.00  0.00    +0.000 OA
BRANCH   5   7
ATOM      7  OXT PHE A   1       7.672   4.285  17.969  0.00  0.00    +0.000 OA
ATOM      8  HXT PHE A   1       7.314   4.117  17.065  0.00  0.00    +0.000 HD
ENDBRANCH   5   7
ENDBRANCH   1   5
BRANCH   1   9
ATOM      9  CB  PHE A   1       5.267   5.164  16.617  0.00  0.00    +0.000 C 
BRANCH   9  10
ATOM     10  CG  PHE A   1       4.048   4.527  17.244  0.00  0.00    +0.000 A 
ATOM     11  CD1 PHE A   1       2.994   5.305  17.744  0.00  0.00    +0.000 A 
ATOM     12  CE1 PHE A   1       1.835   4.695  18.231  0.00  0.00    +0.000 A 
ATOM     13  CZ  PHE A   1       1.720   3.306  18.234  0.00  0.00    +0.000 A 
ATOM     14  CE2 PHE A   1       2.776   2.523  17.776  0.00  0.00    +0.000 A 
ATOM     15  CD2 PHE A   1       3.936   3.129  17.291  0.00  0.00    +0.000 A 
ENDBRANCH   9  10
ENDBRANCH   1   9
TORSDOF 5
ENDMDL
MODEL 4
REMARK VINA RESULT:      -5.8      1.465      2.255
REMARK  Name = 
REMARK  6 active torsions:
REMARK  status: ('A' for Active; 'I' for Inactive)
REMARK    1  A    between atoms: C_1  and  N_2
REMARK    2  A    between atoms: N_2  and  CA_3
REMARK    3  A    between atoms: CA_3  and  CB_4
REMARK    4  A    between atoms: CA_3  and  C_11
REMARK    5  A    between atoms: CB_4  and  CG_5
REMARK    6  A    between atoms: C_11  and  OXT_13
REMARK                            x       y       z     vdW  Elec       q    Type
REMARK                         _______ _______ _______ _____ _____    ______ ____
ROOT
ATOM      1  CA  PHE A   1       6.721   6.335  17.422  0.00  0.00    +0.000 C 
ENDROOT
BRANCH   1   3
ATOM      2  C   ACE A   0       7.921   8.469  17.745  0.00  0.00    +0.000 C 
ATOM      3  N   PHE A   1       7.717   7.317  16.865  0.00  0.00    +0.000 NA
ATOM      4  H   PHE A   1       8.615   6.823  16.813  0.00  0.00    +0.000 HD
ENDBRANCH   1   3
BRANCH   1   5
ATOM      5  C   PHE A   1       7.535   5.131  17.928  0.00  0.00    +0.000 C 
ATOM      6  O   PHE A   1       7.781   4.887  19.101  0.00  0.00    +0.000 OA
BRANCH   5   7
ATOM      7  OXT PHE A   1       7.974   4.344  16.908  0.00  0.00    +0.000 OA
ATOM      8  HXT PHE A   1       7.253   4.302  16.235  0.00  0.00    +0.000 HD
ENDBRANCH   5   7
ENDBRANCH   1   5
BRANCH   1   9
ATOM      9  CB  PHE A   1       5.690   5.863  16.379  0.00  0.00    +0.000 C 
BRANCH   9  10
ATOM     10  CG  PHE A   1       4.412   5.275  16.933  0.00  0.00    +0.000 A 
ATOM     11  CD1 PHE A   1       4.111   3.913  16.786  0.00  0.00    +0.000 A 
ATOM     12  CE1 PHE A   1       2.972   3.373  17.389  0.00  0.00    +0.000 A 
ATOM     13  CZ  PHE A   1       2.118   4.185  18.132  0.00  0.00    +0.000 A 
ATOM     14  CE2 PHE A   1       2.386   5.546  18.251  0.00  0.00    +0.000 A 
ATOM     15  CD2 PHE A   1       3.522   6.089  17.649  0.00  0.00    +0.000 A 
ENDBRANCH   9  10
ENDBRANCH   1   9
TORSDOF 5
ENDMDL
MODEL 5
REMARK VINA RESULT:      -5.8      1.692      2.649
REMARK  Name = 
REMARK  6 active torsions:
REMARK  status: ('A' for Active; 'I' for Inactive)
REMARK    1  A    between atoms: C_1  and  N_2
REMARK    2  A    between atoms: N_2  and  CA_3
REMARK    3  A    between atoms: CA_3  and  CB_4
REMARK    4  A    between atoms: CA_3  and  C_11
REMARK    5  A    between atoms: CB_4  and  CG_5
REMARK    6  A    between atoms: C_11  and  OXT_13
REMARK                            x       y       z     vdW  Elec       q    Type
REMARK                         _______ _______ _______ _____ _____    ______ ____
ROOT
ATOM      1  CA  PHE A   1       5.542   4.256  17.149  0.00  0.00    +0.000 C 
ENDROOT
BRANCH   1   3
ATOM      2  C   ACE A   0       6.229   5.325  19.267  0.00  0.00    +0.000 C 
ATOM      3  N   PHE A   1       6.139   4.070  18.519  0.00  0.00    +0.000 NA
ATOM      4  H   PHE A   1       5.494   3.463  19.037  0.00  0.00    +0.000 HD
ENDBRANCH   1   3
BRANCH   1   5
ATOM      5  C   PHE A   1       6.572   5.056  16.332  0.00  0.00    +0.000 C 
ATOM      6  O   PHE A   1       6.337   6.082  15.708  0.00  0.00    +0.000 OA
BRANCH   5   7
ATOM      7  OXT PHE A   1       7.807   4.487  16.366  0.00  0.00    +0.000 OA
ATOM      8  HXT PHE A   1       8.249   4.688  15.507  0.00  0.00    +0.000 HD
ENDBRANCH   5   7
ENDBRANCH   1   5
BRANCH   1   9
ATOM      9  CB  PHE A   1       4.199   5.012  17.173  0.00  0.00    +0.000 C 
BRANCH   9  10
ATOM     10  CG  PHE A   1       3.063   4.318  17.890  0.00  0.00    +0.000 A 
ATOM     11  CD1 PHE A   1       2.681   3.010  17.558  0.00  0.00    +0.000 A 
ATOM     12  CE1 PHE A   1       1.694   2.354  18.297  0.00  0.00    +0.000 A 
ATOM     13  CZ  PHE A   1       1.073   2.997  19.366  0.00  0.00    +0.000 A 
ATOM     14  CE2 PHE A   1       1.416   4.309  19.679  0.00  0.00    +0.000 A 
ATOM     15  CD2 PHE A   1       2.401   4.968  18.942  0.00  0.00    +0.000 A 
ENDBRANCH   9  10
ENDBRANCH   1   9
TORSDOF 5
ENDMDL
MODEL 6
REMARK VINA RESULT:      -5.7      1.860      2.603
REMARK  Name = 
REMARK  6 active torsions:
REMARK  status: ('A' for Active; 'I' for Inactive)
REMARK    1  A    between atoms: C_1  and  N_2
REMARK    2  A    between atoms: N_2  and  CA_3
REMARK    3  A    between atoms: CA_3  and  CB_4
REMARK    4  A    between atoms: CA_3  and  C_11
REMARK    5  A    between atoms: CB_4  and  CG_5
REMARK    6  A    between atoms: C_11  and  OXT_13
REMARK                            x       y       z     vdW  Elec       q    Type
REMARK                         _______ _______ _______ _____ _____    ______ ____
ROOT
ATOM      1  CA  PHE A   1       5.389   4.446  17.212  0.00  0.00    +0.000 C 
ENDROOT
BRANCH   1   3
ATOM      2  C   ACE A   0       6.525   5.384  19.193  0.00  0.00    +0.000 C 
ATOM      3  N   PHE A   1       6.167   4.163  18.469  0.00  0.00    +0.000 NA
ATOM      4  H   PHE A   1       5.543   3.628  19.083  0.00  0.00    +0.000 HD
ENDBRANCH   1   3
BRANCH   1   5
ATOM      5  C   PHE A   1       6.355   5.169  16.256  0.00  0.00    +0.000 C 
ATOM      6  O   PHE A   1       7.460   4.761  15.926  0.00  0.00    +0.000 OA
BRANCH   5   7
ATOM      7  OXT PHE A   1       5.846   6.348  15.807  0.00  0.00    +0.000 OA
ATOM      8  HXT PHE A   1       5.422   6.174  14.934  0.00  0.00    +0.000 HD
ENDBRANCH   5   7
ENDBRANCH   1   5
BRANCH   1   9
ATOM      9  CB  PHE A   1       4.146   5.325  17.454  0.00  0.00    +0.000 C 
BRANCH   9  10
ATOM     10  CG  PHE A   1       3.061   4.712  18.310  0.00  0.00    +0.000 A 
ATOM     11  CD1 PHE A   1       2.733   5.245  19.565  0.00  0.00    +0.000 A 
ATOM     12  CE1 PHE A   1       1.663   4.723  20.296  0.00  0.00    +0.000 A 
ATOM     13  CZ  PHE A   1       0.918   3.661  19.789  0.00  0.00    +0.000 A 
ATOM     14  CE2 PHE A   1       1.259   3.099  18.562  0.00  0.00    +0.000 A 
ATOM     15  CD2 PHE A   1       2.328   3.616  17.830  0.00  0.00    +0.000 A 
ENDBRANCH   9  10
ENDBRANCH   1   9
TORSDOF 5
ENDMDL
MODEL 7
REMARK VINA RESULT:      -5.6      1.989      2.935
REMARK  Name = 
REMARK  6 active torsions:
REMARK  status: ('A' for Active; 'I' for Inactive)
REMARK    1  A    between atoms: C_1  and  N_2
REMARK    2  A    between atoms: N_2  and  CA_3
REMARK    3  A    between atoms: CA_3  and  CB_4
REMARK    4  A    between atoms: CA_3  and  C_11
REMARK    5  A    between atoms: CB_4  and  CG_5
REMARK    6  A    between atoms: C_11  and  OXT_13
REMARK                            x       y       z     vdW  Elec       q    Type
REMARK                         _______ _______ _______ _____ _____    ______ ____
ROOT
ATOM      1  CA  PHE A   1       4.643   5.705  18.032  0.00  0.00    +0.000 C 
ENDROOT
BRANCH   1   3
ATOM      2  C   ACE A   0       6.748   6.824  17.389  0.00  0.00    +0.000 C 
ATOM      3  N   PHE A   1       5.328   6.648  17.079  0.00  0.00    +0.000 NA
ATOM      4  H   PHE A   1       5.281   6.211  16.152  0.00  0.00    +0.000 HD
ENDBRANCH   1   3
BRANCH   1   5
ATOM      5  C   PHE A   1       5.169   4.297  17.702  0.00  0.00    +0.000 C 
ATOM      6  O   PHE A   1       5.070   3.742  16.616  0.00  0.00    +0.000 OA
BRANCH   5   7
ATOM      7  OXT PHE A   1       5.766   3.708  18.773  0.00  0.00    +0.000 OA
ATOM      8  HXT PHE A   1       6.057   2.808  18.491  0.00  0.00    +0.000 HD
ENDBRANCH   5   7
ENDBRANCH   1   5
BRANCH   1   9
ATOM      9  CB  PHE A   1       3.108   5.728  17.905  0.00  0.00    +0.000 C 
BRANCH   9  10
ATOM     10  CG  PHE A   1       2.354   4.813  18.845  0.00  0.00    +0.000 A 
ATOM     11  CD1 PHE A   1       1.530   3.788  18.359  0.00  0.00    +0.000 A 
ATOM     12  CE1 PHE A   1       0.919   2.895  19.243  0.00  0.00    +0.000 A 
ATOM     13  CZ  PHE A   1       1.116   3.021  20.617  0.00  0.00    +0.000 A 
ATOM     14  CE2 PHE A   1       1.901   4.059  21.112  0.00  0.00    +0.000 A 
ATOM     15  CD2 PHE A   1       2.511   4.954  20.232  0.00  0.00    +0.000 A 
ENDBRANCH   9  10
ENDBRANCH   1   9
TORSDOF 5
ENDMDL
MODEL 8
REMARK VINA RESULT:      -5.6      1.886      2.272
REMARK  Name = 
REMARK  6 active torsions:
REMARK  status: ('A' for Active; 'I' for Inactive)
REMARK    1  A    between atoms: C_1  and  N_2
REMARK    2  A    between atoms: N_2  and  CA_3
REMARK    3  A    between atoms: CA_3  and  CB_4
REMARK    4  A    between atoms: CA_3  and  C_11
REMARK    5  A    between atoms: CB_4  and  CG_5
REMARK    6  A    between atoms: C_11  and  OXT_13
REMARK                            x       y       z     vdW  Elec       q    Type
REMARK                         _______ _______ _______ _____ _____    ______ ____
ROOT
ATOM      1  CA  PHE A   1       5.147   5.952  17.977  0.00  0.00    +0.000 C 
ENDROOT
BRANCH   1   3
ATOM      2  C   ACE A   0       7.303   7.062  17.508  0.00  0.00    +0.000 C 
ATOM      3  N   PHE A   1       6.034   6.598  16.945  0.00  0.00    +0.000 NA
ATOM      4  H   PHE A   1       6.264   5.868  16.261  0.00  0.00    +0.000 HD
ENDBRANCH   1   3
BRANCH   1   5
ATOM      5  C   PHE A   1       5.708   4.537  18.206  0.00  0.00    +0.000 C 
ATOM      6  O   PHE A   1       6.019   4.067  19.292  0.00  0.00    +0.000 OA
BRANCH   5   7
ATOM      7  OXT PHE A   1       5.834   3.841  17.044  0.00  0.00    +0.000 OA
ATOM      8  HXT PHE A   1       5.187   3.097  17.074  0.00  0.00    +0.000 HD
ENDBRANCH   5   7
ENDBRANCH   1   5
BRANCH   1   9
ATOM      9  CB  PHE A   1       3.674   5.861  17.537  0.00  0.00    +0.000 C 
BRANCH   9  10
ATOM     10  CG  PHE A   1       2.754   5.099  18.463  0.00  0.00    +0.000 A 
ATOM     11  CD1 PHE A   1       2.533   5.522  19.782  0.00  0.00    +0.000 A 
ATOM     12  CE1 PHE A   1       1.606   4.860  20.591  0.00  0.00    +0.000 A 
ATOM     13  CZ  PHE A   1       0.899   3.765  20.096  0.00  0.00    +0.000 A 
ATOM     14  CE2 PHE A   1       1.139   3.313  18.802  0.00  0.00    +0.000 A 
ATOM     15  CD2 PHE A   1       2.066   3.971  17.993  0.00  0.00    +0.000 A 
ENDBRANCH   9  10
ENDBRANCH   1   9
TORSDOF 5
ENDMDL
MODEL 9
REMARK VINA RESULT:      -5.6      1.782      2.457
REMARK  Name = 
REMARK  6 active torsions:
REMARK  status: ('A' for Active; 'I' for Inactive)
REMARK    1  A    between atoms: C_1  and  N_2
REMARK    2  A    between atoms: N_2  and  CA_3
REMARK    3  A    between atoms: CA_3  and  CB_4
REMARK    4  A    between atoms: CA_3  and  C_11
REMARK    5  A    between atoms: CB_4  and  CG_5
REMARK    6  A    between atoms: C_11  and  OXT_13
REMARK                            x       y       z     vdW  Elec       q    Type
REMARK                         _______ _______ _______ _____ _____    ______ ____
ROOT
ATOM      1  CA  PHE A   1       5.471   4.387  15.573  0.00  0.00    +0.000 C 
ENDROOT
BRANCH   1   3
ATOM      2  C   ACE A   0       6.136   3.765  13.277  0.00  0.00    +0.000 C 
ATOM      3  N   PHE A   1       6.342   3.518  14.706  0.00  0.00    +0.000 NA
ATOM      4  H   PHE A   1       7.313   3.779  14.913  0.00  0.00    +0.000 HD
ENDBRANCH   1   3
BRANCH   1   5
ATOM      5  C   PHE A   1       6.162   5.761  15.643  0.00  0.00    +0.000 C 
ATOM      6  O   PHE A   1       7.359   5.942  15.825  0.00  0.00    +0.000 OA
BRANCH   5   7
ATOM      7  OXT PHE A   1       5.283   6.786  15.487  0.00  0.00    +0.000 OA
ATOM      8  HXT PHE A   1       5.805   7.591  15.257  0.00  0.00    +0.000 HD
ENDBRANCH   5   7
ENDBRANCH   1   5
BRANCH   1   9
ATOM      9  CB  PHE A   1       5.285   3.827  16.996  0.00  0.00    +0.000 C 
BRANCH   9  10
ATOM     10  CG  PHE A   1       3.856   3.604  17.436  0.00  0.00    +0.000 A 
ATOM     11  CD1 PHE A   1       3.396   2.331  17.801  0.00  0.00    +0.000 A 
ATOM     12  CE1 PHE A   1       2.099   2.164  18.296  0.00  0.00    +0.000 A 
ATOM     13  CZ  PHE A   1       1.249   3.260  18.422  0.00  0.00    +0.000 A 
ATOM     14  CE2 PHE A   1       1.682   4.522  18.025  0.00  0.00    +0.000 A 
ATOM     15  CD2 PHE A   1       2.975   4.692  17.529  0.00  0.00    +0.000 A 
ENDBRANCH   9  10
ENDBRANCH   1   9
TORSDOF 5
ENDMDL
