MODEL 1
REMARK VINA RESULT:      -8.8      0.000      0.000
REMARK  Name = 
REMARK  8 active torsions:
REMARK  status: ('A' for Active; 'I' for Inactive)
REMARK    1  A    between atoms: C_1  and  C_2
REMARK    2  A    between atoms: C_2  and  C_3
REMARK    3  A    between atoms: C_6  and  C_7
REMARK    4  A    between atoms: C_6  and  C_8
REMARK    5  A    between atoms: C_11  and  C_12
REMARK    6  A    between atoms: C_12  and  C_13
REMARK    7  A    between atoms: C_16  and  C_17
REMARK    8  A    between atoms: C_17  and  O_19
REMARK                            x       y       z     vdW  Elec       q    Type
REMARK                         _______ _______ _______ _____ _____    ______ ____
ROOT
ATOM      1  C   UNL     1       2.396   4.995  19.403  0.00  0.00    +0.000 C 
ATOM      2  S   UNL     1       2.292   4.410  21.200  0.00  0.00    +0.000 S 
ATOM      3  C   UNL     1       1.094   3.065  20.995  0.00  0.00    +0.000 C 
ATOM      4  C   UNL     1       1.235   2.513  19.599  0.00  0.00    +0.000 C 
ATOM      5  S   UNL     1       1.093   3.944  18.523  0.00  0.00    +0.000 S 
ENDROOT
BRANCH   1  16
ATOM      6  C   UNL     1      -0.235  10.944  18.159  0.00  0.00    +0.000 C 
ATOM      7  C   UNL     1       1.056  10.773  18.986  0.00  0.00    +0.000 C 
ATOM      8  C   UNL     1       2.204  11.521  18.266  0.00  0.00    +0.000 C 
ATOM      9  C   UNL     1       0.909  11.453  20.369  0.00  0.00    +0.000 C 
ATOM     10  C   UNL     1       0.061  10.651  21.340  0.00  0.00    +0.000 C 
ATOM     11  C   UNL     1       0.610   9.230  21.594  0.00  0.00    +0.000 C 
ATOM     12  C   UNL     1       1.744   9.278  22.644  0.00  0.00    +0.000 C 
ATOM     13  C   UNL     1      -0.568   8.412  22.179  0.00  0.00    +0.000 C 
ATOM     14  C   UNL     1       1.167   8.580  20.324  0.00  0.00    +0.000 A 
ATOM     15  C   UNL     1       1.548   7.219  20.382  0.00  0.00    +0.000 A 
ATOM     16  C   UNL     1       2.089   6.510  19.295  0.00  0.00    +0.000 A 
ATOM     17  C   UNL     1       2.169   7.204  18.083  0.00  0.00    +0.000 A 
ATOM     18  C   UNL     1       1.822   8.557  18.003  0.00  0.00    +0.000 A 
ATOM     19  C   UNL     1       1.361   9.280  19.121  0.00  0.00    +0.000 A 
ENDBRANCH   1  16
BRANCH   1  20
ATOM     20  C   UNL     1       3.790   4.749  18.765  0.00  0.00    +0.000 A 
ATOM     21  C   UNL     1       4.984   5.228  19.331  0.00  0.00    +0.000 A 
ATOM     22  C   UNL     1       6.191   5.183  18.620  0.00  0.00    +0.000 A 
ATOM     23  C   UNL     1       6.227   4.667  17.322  0.00  0.00    +0.000 A 
ATOM     24  C   UNL     1       5.075   4.119  16.762  0.00  0.00    +0.000 A 
ATOM     25  C   UNL     1       3.876   4.174  17.469  0.00  0.00    +0.000 A 
BRANCH  23  26
ATOM     26  C   UNL     1       7.504   4.722  16.571  0.00  0.00    +0.000 C 
ATOM     27  O   UNL     1       7.610   5.276  15.489  0.00  0.00    +0.000 OA
BRANCH  26  28
ATOM     28  O   UNL     1       8.521   4.063  17.166  0.00  0.00    +0.000 OA
ATOM     29  H   UNL     1       8.563   3.108  16.977  0.00  0.00    +0.000 HD
ENDBRANCH  26  28
ENDBRANCH  23  26
ENDBRANCH   1  20
TORSDOF 4
ENDMDL
MODEL 2
REMARK VINA RESULT:      -8.6      0.638      1.239
REMARK  Name = 
REMARK  8 active torsions:
REMARK  status: ('A' for Active; 'I' for Inactive)
REMARK    1  A    between atoms: C_1  and  C_2
REMARK    2  A    between atoms: C_2  and  C_3
REMARK    3  A    between atoms: C_6  and  C_7
REMARK    4  A    between atoms: C_6  and  C_8
REMARK    5  A    between atoms: C_11  and  C_12
REMARK    6  A    between atoms: C_12  and  C_13
REMARK    7  A    between atoms: C_16  and  C_17
REMARK    8  A    between atoms: C_17  and  O_19
REMARK                            x       y       z     vdW  Elec       q    Type
REMARK                         _______ _______ _______ _____ _____    ______ ____
ROOT
ATOM      1  C   UNL     1       2.381   5.578  19.088  0.00  0.00    +0.000 C 
ATOM      2  S   UNL     1       2.223   4.782  20.797  0.00  0.00    +0.000 S 
ATOM      3  C   UNL     1       1.100   3.421  20.377  0.00  0.00    +0.000 C 
ATOM      4  C   UNL     1       1.331   3.045  18.935  0.00  0.00    +0.000 C 
ATOM      5  S   UNL     1       1.171   4.585  18.026  0.00  0.00    +0.000 S 
ENDROOT
BRANCH   1  16
ATOM      6  C   UNL     1      -0.538  11.497  18.525  0.00  0.00    +0.000 C 
ATOM      7  C   UNL     1       0.789  11.304  19.289  0.00  0.00    +0.000 C 
ATOM      8  C   UNL     1       1.878  12.169  18.610  0.00  0.00    +0.000 C 
ATOM      9  C   UNL     1       0.665  11.839  20.736  0.00  0.00    +0.000 C 
ATOM     10  C   UNL     1      -0.114  10.908  21.650  0.00  0.00    +0.000 C 
ATOM     11  C   UNL     1       0.503   9.495  21.744  0.00  0.00    +0.000 C 
ATOM     12  C   UNL     1       1.672   9.491  22.756  0.00  0.00    +0.000 C 
ATOM     13  C   UNL     1      -0.618   8.571  22.283  0.00  0.00    +0.000 C 
ATOM     14  C   UNL     1       1.039   8.997  20.399  0.00  0.00    +0.000 A 
ATOM     15  C   UNL     1       1.479   7.656  20.309  0.00  0.00    +0.000 A 
ATOM     16  C   UNL     1       2.009   7.081  19.140  0.00  0.00    +0.000 A 
ATOM     17  C   UNL     1       2.014   7.893  18.001  0.00  0.00    +0.000 A 
ATOM     18  C   UNL     1       1.609   9.231  18.066  0.00  0.00    +0.000 A 
ATOM     19  C   UNL     1       1.160   9.820  19.266  0.00  0.00    +0.000 A 
ENDBRANCH   1  16
BRANCH   1  20
ATOM     20  C   UNL     1       3.814   5.468  18.497  0.00  0.00    +0.000 A 
ATOM     21  C   UNL     1       4.062   5.137  17.155  0.00  0.00    +0.000 A 
ATOM     22  C   UNL     1       5.356   4.828  16.713  0.00  0.00    +0.000 A 
ATOM     23  C   UNL     1       6.428   4.834  17.610  0.00  0.00    +0.000 A 
ATOM     24  C   UNL     1       6.225   5.229  18.930  0.00  0.00    +0.000 A 
ATOM     25  C   UNL     1       4.935   5.527  19.366  0.00  0.00    +0.000 A 
BRANCH  23  26
ATOM     26  C   UNL     1       7.764   4.413  17.123  0.00  0.00    +0.000 C 
ATOM     27  O   UNL     1       8.649   4.031  17.873  0.00  0.00    +0.000 OA
BRANCH  26  28
ATOM     28  O   UNL     1       7.928   4.537  15.790  0.00  0.00    +0.000 OA
ATOM     29  H   UNL     1       7.296   5.133  15.348  0.00  0.00    +0.000 HD
ENDBRANCH  26  28
ENDBRANCH  23  26
ENDBRANCH   1  20
TORSDOF 4
ENDMDL
MODEL 3
REMARK VINA RESULT:      -7.9      1.203      1.527
REMARK  Name = 
REMARK  8 active torsions:
REMARK  status: ('A' for Active; 'I' for Inactive)
REMARK    1  A    between atoms: C_1  and  C_2
REMARK    2  A    between atoms: C_2  and  C_3
REMARK    3  A    between atoms: C_6  and  C_7
REMARK    4  A    between atoms: C_6  and  C_8
REMARK    5  A    between atoms: C_11  and  C_12
REMARK    6  A    between atoms: C_12  and  C_13
REMARK    7  A    between atoms: C_16  and  C_17
REMARK    8  A    between atoms: C_17  and  O_19
REMARK                            x       y       z     vdW  Elec       q    Type
REMARK                         _______ _______ _______ _____ _____    ______ ____
ROOT
ATOM      1  C   UNL     1       2.780   5.452  18.707  0.00  0.00    +0.000 C 
ATOM      2  S   UNL     1       3.572   4.877  20.327  0.00  0.00    +0.000 S 
ATOM      3  C   UNL     1       2.532   3.428  20.656  0.00  0.00    +0.000 C 
ATOM      4  C   UNL     1       2.053   2.879  19.337  0.00  0.00    +0.000 C 
ATOM      5  S   UNL     1       1.309   4.281  18.497  0.00  0.00    +0.000 S 
ENDROOT
BRANCH   1  16
ATOM      6  C   UNL     1      -0.407  11.242  18.281  0.00  0.00    +0.000 C 
ATOM      7  C   UNL     1       0.908  11.084  19.072  0.00  0.00    +0.000 C 
ATOM      8  C   UNL     1       1.970  12.025  18.454  0.00  0.00    +0.000 C 
ATOM      9  C   UNL     1       0.722  11.558  20.534  0.00  0.00    +0.000 C 
ATOM     10  C   UNL     1      -0.032  10.558  21.393  0.00  0.00    +0.000 C 
ATOM     11  C   UNL     1       0.649   9.174  21.453  0.00  0.00    +0.000 C 
ATOM     12  C   UNL     1       1.792   9.187  22.494  0.00  0.00    +0.000 C 
ATOM     13  C   UNL     1      -0.438   8.178  21.928  0.00  0.00    +0.000 C 
ATOM     14  C   UNL     1       1.242   8.752  20.104  0.00  0.00    +0.000 A 
ATOM     15  C   UNL     1       1.748   7.438  19.978  0.00  0.00    +0.000 A 
ATOM     16  C   UNL     1       2.334   6.932  18.803  0.00  0.00    +0.000 A 
ATOM     17  C   UNL     1       2.328   7.786  17.695  0.00  0.00    +0.000 A 
ATOM     18  C   UNL     1       1.857   9.099  17.798  0.00  0.00    +0.000 A 
ATOM     19  C   UNL     1       1.351   9.621  19.005  0.00  0.00    +0.000 A 
ENDBRANCH   1  16
BRANCH   1  20
ATOM     20  C   UNL     1       3.732   5.325  17.487  0.00  0.00    +0.000 A 
ATOM     21  C   UNL     1       3.852   4.146  16.732  0.00  0.00    +0.000 A 
ATOM     22  C   UNL     1       4.875   3.994  15.786  0.00  0.00    +0.000 A 
ATOM     23  C   UNL     1       5.807   5.015  15.583  0.00  0.00    +0.000 A 
ATOM     24  C   UNL     1       5.670   6.223  16.264  0.00  0.00    +0.000 A 
ATOM     25  C   UNL     1       4.657   6.366  17.209  0.00  0.00    +0.000 A 
BRANCH  23  26
ATOM     26  C   UNL     1       6.926   4.779  14.640  0.00  0.00    +0.000 C 
ATOM     27  O   UNL     1       7.912   5.497  14.593  0.00  0.00    +0.000 OA
BRANCH  26  28
ATOM     28  O   UNL     1       6.735   3.733  13.809  0.00  0.00    +0.000 OA
ATOM     29  H   UNL     1       7.504   3.145  13.700  0.00  0.00    +0.000 HD
ENDBRANCH  26  28
ENDBRANCH  23  26
ENDBRANCH   1  20
TORSDOF 4
ENDMDL
MODEL 4
REMARK VINA RESULT:      -7.3      4.652      7.226
REMARK  Name = 
REMARK  8 active torsions:
REMARK  status: ('A' for Active; 'I' for Inactive)
REMARK    1  A    between atoms: C_1  and  C_2
REMARK    2  A    between atoms: C_2  and  C_3
REMARK    3  A    between atoms: C_6  and  C_7
REMARK    4  A    between atoms: C_6  and  C_8
REMARK    5  A    between atoms: C_11  and  C_12
REMARK    6  A    between atoms: C_12  and  C_13
REMARK    7  A    between atoms: C_16  and  C_17
REMARK    8  A    between atoms: C_17  and  O_19
REMARK                            x       y       z     vdW  Elec       q    Type
REMARK                         _______ _______ _______ _____ _____    ______ ____
ROOT
ATOM      1  C   UNL     1       0.130  11.986  19.535  0.00  0.00    +0.000 C 
ATOM      2  S   UNL     1       1.058  13.037  18.264  0.00  0.00    +0.000 S 
ATOM      3  C   UNL     1       1.963  14.125  19.398  0.00  0.00    +0.000 C 
ATOM      4  C   UNL     1       2.201  13.376  20.684  0.00  0.00    +0.000 C 
ATOM      5  S   UNL     1       0.578  12.794  21.185  0.00  0.00    +0.000 S 
ENDROOT
BRANCH   1  16
ATOM      6  C   UNL     1      -6.301  10.557  18.849  0.00  0.00    +0.000 C 
ATOM      7  C   UNL     1      -5.748  11.981  18.634  0.00  0.00    +0.000 C 
ATOM      8  C   UNL     1      -6.050  12.411  17.178  0.00  0.00    +0.000 C 
ATOM      9  C   UNL     1      -6.491  12.994  19.538  0.00  0.00    +0.000 C 
ATOM     10  C   UNL     1      -6.050  12.934  20.990  0.00  0.00    +0.000 C 
ATOM     11  C   UNL     1      -4.538  13.191  21.175  0.00  0.00    +0.000 C 
ATOM     12  C   UNL     1      -4.252  14.710  21.164  0.00  0.00    +0.000 C 
ATOM     13  C   UNL     1      -4.174  12.631  22.573  0.00  0.00    +0.000 C 
ATOM     14  C   UNL     1      -3.693  12.541  20.075  0.00  0.00    +0.000 A 
ATOM     15  C   UNL     1      -2.286  12.559  20.215  0.00  0.00    +0.000 A 
ATOM     16  C   UNL     1      -1.396  12.016  19.270  0.00  0.00    +0.000 A 
ATOM     17  C   UNL     1      -1.980  11.362  18.180  0.00  0.00    +0.000 A 
ATOM     18  C   UNL     1      -3.367  11.350  18.003  0.00  0.00    +0.000 A 
ATOM     19  C   UNL     1      -4.244  11.974  18.914  0.00  0.00    +0.000 A 
ENDBRANCH   1  16
BRANCH   1  20
ATOM     20  C   UNL     1       0.579  10.499  19.537  0.00  0.00    +0.000 A 
ATOM     21  C   UNL     1       0.506   9.682  20.678  0.00  0.00    +0.000 A 
ATOM     22  C   UNL     1       1.122   8.423  20.706  0.00  0.00    +0.000 A 
ATOM     23  C   UNL     1       1.833   7.960  19.597  0.00  0.00    +0.000 A 
ATOM     24  C   UNL     1       1.862   8.716  18.427  0.00  0.00    +0.000 A 
ATOM     25  C   UNL     1       1.255   9.970  18.406  0.00  0.00    +0.000 A 
BRANCH  23  26
ATOM     26  C   UNL     1       2.547   6.665  19.700  0.00  0.00    +0.000 C 
ATOM     27  O   UNL     1       3.315   6.264  18.840  0.00  0.00    +0.000 OA
BRANCH  26  28
ATOM     28  O   UNL     1       2.233   5.950  20.801  0.00  0.00    +0.000 OA
ATOM     29  H   UNL     1       1.994   6.479  21.584  0.00  0.00    +0.000 HD
ENDBRANCH  26  28
ENDBRANCH  23  26
ENDBRANCH   1  20
TORSDOF 4
ENDMDL
MODEL 5
REMARK VINA RESULT:      -7.2      6.199      8.161
REMARK  Name = 
REMARK  8 active torsions:
REMARK  status: ('A' for Active; 'I' for Inactive)
REMARK    1  A    between atoms: C_1  and  C_2
REMARK    2  A    between atoms: C_2  and  C_3
REMARK    3  A    between atoms: C_6  and  C_7
REMARK    4  A    between atoms: C_6  and  C_8
REMARK    5  A    between atoms: C_11  and  C_12
REMARK    6  A    between atoms: C_12  and  C_13
REMARK    7  A    between atoms: C_16  and  C_17
REMARK    8  A    between atoms: C_17  and  O_19
REMARK                            x       y       z     vdW  Elec       q    Type
REMARK                         _______ _______ _______ _____ _____    ______ ____
ROOT
ATOM      1  C   UNL     1       0.215  11.152  20.479  0.00  0.00    +0.000 C 
ATOM      2  S   UNL     1       1.108   9.537  20.902  0.00  0.00    +0.000 S 
ATOM      3  C   UNL     1       0.583   9.363  22.628  0.00  0.00    +0.000 C 
ATOM      4  C   UNL     1      -0.764  10.021  22.783  0.00  0.00    +0.000 C 
ATOM      5  S   UNL     1      -0.543  11.679  22.129  0.00  0.00    +0.000 S 
ENDROOT
BRANCH   1  16
ATOM      6  C   UNL     1       3.240  16.000  17.131  0.00  0.00    +0.000 C 
ATOM      7  C   UNL     1       3.898  15.301  18.339  0.00  0.00    +0.000 C 
ATOM      8  C   UNL     1       5.212  14.634  17.865  0.00  0.00    +0.000 C 
ATOM      9  C   UNL     1       4.313  16.340  19.409  0.00  0.00    +0.000 C 
ATOM     10  C   UNL     1       3.139  16.860  20.221  0.00  0.00    +0.000 C 
ATOM     11  C   UNL     1       2.368  15.742  20.956  0.00  0.00    +0.000 C 
ATOM     12  C   UNL     1       3.095  15.368  22.268  0.00  0.00    +0.000 C 
ATOM     13  C   UNL     1       0.983  16.336  21.312  0.00  0.00    +0.000 C 
ATOM     14  C   UNL     1       2.230  14.470  20.112  0.00  0.00    +0.000 A 
ATOM     15  C   UNL     1       1.406  13.431  20.600  0.00  0.00    +0.000 A 
ATOM     16  C   UNL     1       1.209  12.208  19.933  0.00  0.00    +0.000 A 
ATOM     17  C   UNL     1       1.822  12.082  18.682  0.00  0.00    +0.000 A 
ATOM     18  C   UNL     1       2.663  13.083  18.187  0.00  0.00    +0.000 A 
ATOM     19  C   UNL     1       2.920  14.269  18.905  0.00  0.00    +0.000 A 
ENDBRANCH   1  16
BRANCH   1  20
ATOM     20  C   UNL     1      -0.905  10.966  19.419  0.00  0.00    +0.000 A 
ATOM     21  C   UNL     1      -0.812  10.043  18.364  0.00  0.00    +0.000 A 
ATOM     22  C   UNL     1      -1.731  10.058  17.306  0.00  0.00    +0.000 A 
ATOM     23  C   UNL     1      -2.758  11.005  17.277  0.00  0.00    +0.000 A 
ATOM     24  C   UNL     1      -2.919  11.885  18.345  0.00  0.00    +0.000 A 
ATOM     25  C   UNL     1      -1.998  11.872  19.390  0.00  0.00    +0.000 A 
BRANCH  23  26
ATOM     26  C   UNL     1      -3.653  11.047  16.096  0.00  0.00    +0.000 C 
ATOM     27  O   UNL     1      -3.235  11.035  14.950  0.00  0.00    +0.000 OA
BRANCH  26  28
ATOM     28  O   UNL     1      -4.964  11.148  16.403  0.00  0.00    +0.000 OA
ATOM     29  H   UNL     1      -5.485  11.719  15.810  0.00  0.00    +0.000 HD
ENDBRANCH  26  28
ENDBRANCH  23  26
ENDBRANCH   1  20
TORSDOF 4
ENDMDL
MODEL 6
REMARK VINA RESULT:      -7.1      5.674      8.520
REMARK  Name = 
REMARK  8 active torsions:
REMARK  status: ('A' for Active; 'I' for Inactive)
REMARK    1  A    between atoms: C_1  and  C_2
REMARK    2  A    between atoms: C_2  and  C_3
REMARK    3  A    between atoms: C_6  and  C_7
REMARK    4  A    between atoms: C_6  and  C_8
REMARK    5  A    between atoms: C_11  and  C_12
REMARK    6  A    between atoms: C_12  and  C_13
REMARK    7  A    between atoms: C_16  and  C_17
REMARK    8  A    between atoms: C_17  and  O_19
REMARK                            x       y       z     vdW  Elec       q    Type
REMARK                         _______ _______ _______ _____ _____    ______ ____
ROOT
ATOM      1  C   UNL     1      -1.066  12.968  20.704  0.00  0.00    +0.000 C 
ATOM      2  S   UNL     1      -0.489  14.182  19.371  0.00  0.00    +0.000 S 
ATOM      3  C   UNL     1       0.513  15.286  20.404  0.00  0.00    +0.000 C 
ATOM      4  C   UNL     1       1.054  14.489  21.563  0.00  0.00    +0.000 C 
ATOM      5  S   UNL     1      -0.389  13.717  22.303  0.00  0.00    +0.000 S 
ENDROOT
BRANCH   1  16
ATOM      6  C   UNL     1      -7.361  10.913  20.809  0.00  0.00    +0.000 C 
ATOM      7  C   UNL     1      -6.984  12.409  20.859  0.00  0.00    +0.000 C 
ATOM      8  C   UNL     1      -7.605  13.113  19.629  0.00  0.00    +0.000 C 
ATOM      9  C   UNL     1      -7.615  13.087  22.099  0.00  0.00    +0.000 C 
ATOM     10  C   UNL     1      -6.891  12.757  23.392  0.00  0.00    +0.000 C 
ATOM     11  C   UNL     1      -5.399  13.159  23.371  0.00  0.00    +0.000 C 
ATOM     12  C   UNL     1      -5.250  14.665  23.685  0.00  0.00    +0.000 C 
ATOM     13  C   UNL     1      -4.719  12.350  24.503  0.00  0.00    +0.000 C 
ATOM     14  C   UNL     1      -4.738  12.889  22.016  0.00  0.00    +0.000 A 
ATOM     15  C   UNL     1      -3.338  13.057  21.911  0.00  0.00    +0.000 A 
ATOM     16  C   UNL     1      -2.611  12.860  20.722  0.00  0.00    +0.000 A 
ATOM     17  C   UNL     1      -3.343  12.400  19.622  0.00  0.00    +0.000 A 
ATOM     18  C   UNL     1      -4.732  12.249  19.690  0.00  0.00    +0.000 A 
ATOM     19  C   UNL     1      -5.459  12.532  20.864  0.00  0.00    +0.000 A 
ENDBRANCH   1  16
BRANCH   1  20
ATOM     20  C   UNL     1      -0.496  11.537  20.509  0.00  0.00    +0.000 A 
ATOM     21  C   UNL     1      -0.389  10.609  21.558  0.00  0.00    +0.000 A 
ATOM     22  C   UNL     1       0.331   9.416  21.399  0.00  0.00    +0.000 A 
ATOM     23  C   UNL     1       0.968   9.133  20.188  0.00  0.00    +0.000 A 
ATOM     24  C   UNL     1       0.819   9.999  19.108  0.00  0.00    +0.000 A 
ATOM     25  C   UNL     1       0.110  11.187  19.273  0.00  0.00    +0.000 A 
BRANCH  23  26
ATOM     26  C   UNL     1       1.795   7.906  20.090  0.00  0.00    +0.000 C 
ATOM     27  O   UNL     1       2.378   7.583  19.068  0.00  0.00    +0.000 OA
BRANCH  26  28
ATOM     28  O   UNL     1       1.803   7.157  21.213  0.00  0.00    +0.000 OA
ATOM     29  H   UNL     1       1.056   7.313  21.820  0.00  0.00    +0.000 HD
ENDBRANCH  26  28
ENDBRANCH  23  26
ENDBRANCH   1  20
TORSDOF 4
ENDMDL
MODEL 7
REMARK VINA RESULT:      -7.1      8.561     10.303
REMARK  Name = 
REMARK  8 active torsions:
REMARK  status: ('A' for Active; 'I' for Inactive)
REMARK    1  A    between atoms: C_1  and  C_2
REMARK    2  A    between atoms: C_2  and  C_3
REMARK    3  A    between atoms: C_6  and  C_7
REMARK    4  A    between atoms: C_6  and  C_8
REMARK    5  A    between atoms: C_11  and  C_12
REMARK    6  A    between atoms: C_12  and  C_13
REMARK    7  A    between atoms: C_16  and  C_17
REMARK    8  A    between atoms: C_17  and  O_19
REMARK                            x       y       z     vdW  Elec       q    Type
REMARK                         _______ _______ _______ _____ _____    ______ ____
ROOT
ATOM      1  C   UNL     1      10.456  13.672  19.237  0.00  0.00    +0.000 C 
ATOM      2  S   UNL     1      10.011  14.941  17.905  0.00  0.00    +0.000 S 
ATOM      3  C   UNL     1      11.613  15.046  17.062  0.00  0.00    +0.000 C 
ATOM      4  C   UNL     1      12.318  13.723  17.218  0.00  0.00    +0.000 C 
ATOM      5  S   UNL     1      12.311  13.403  18.985  0.00  0.00    +0.000 S 
ENDROOT
BRANCH   1  16
ATOM      6  C   UNL     1       8.157  17.042  24.454  0.00  0.00    +0.000 C 
ATOM      7  C   UNL     1       9.075  15.811  24.610  0.00  0.00    +0.000 C 
ATOM      8  C   UNL     1      10.366  16.250  25.341  0.00  0.00    +0.000 C 
ATOM      9  C   UNL     1       8.411  14.751  25.522  0.00  0.00    +0.000 C 
ATOM     10  C   UNL     1       7.311  13.969  24.824  0.00  0.00    +0.000 C 
ATOM     11  C   UNL     1       7.802  13.230  23.560  0.00  0.00    +0.000 C 
ATOM     12  C   UNL     1       8.483  11.899  23.952  0.00  0.00    +0.000 C 
ATOM     13  C   UNL     1       6.534  12.909  22.730  0.00  0.00    +0.000 C 
ATOM     14  C   UNL     1       8.807  14.056  22.750  0.00  0.00    +0.000 A 
ATOM     15  C   UNL     1       9.208  13.567  21.485  0.00  0.00    +0.000 A 
ATOM     16  C   UNL     1      10.135  14.217  20.651  0.00  0.00    +0.000 A 
ATOM     17  C   UNL     1      10.608  15.454  21.101  0.00  0.00    +0.000 A 
ATOM     18  C   UNL     1      10.247  15.950  22.358  0.00  0.00    +0.000 A 
ATOM     19  C   UNL     1       9.383  15.247  23.221  0.00  0.00    +0.000 A 
ENDBRANCH   1  16
BRANCH   1  20
ATOM     20  C   UNL     1       9.700  12.325  19.068  0.00  0.00    +0.000 A 
ATOM     21  C   UNL     1       9.903  11.225  19.918  0.00  0.00    +0.000 A 
ATOM     22  C   UNL     1       9.378   9.963  19.606  0.00  0.00    +0.000 A 
ATOM     23  C   UNL     1       8.647   9.774  18.430  0.00  0.00    +0.000 A 
ATOM     24  C   UNL     1       8.368  10.861  17.605  0.00  0.00    +0.000 A 
ATOM     25  C   UNL     1       8.900  12.111  17.915  0.00  0.00    +0.000 A 
BRANCH  23  26
ATOM     26  C   UNL     1       8.188   8.406  18.092  0.00  0.00    +0.000 C 
ATOM     27  O   UNL     1       7.474   8.168  17.130  0.00  0.00    +0.000 OA
BRANCH  26  28
ATOM     28  O   UNL     1       8.587   7.459  18.967  0.00  0.00    +0.000 OA
ATOM     29  H   UNL     1       9.540   7.459  19.170  0.00  0.00    +0.000 HD
ENDBRANCH  26  28
ENDBRANCH  23  26
ENDBRANCH   1  20
TORSDOF 4
ENDMDL
MODEL 8
REMARK VINA RESULT:      -7.0      4.469      7.372
REMARK  Name = 
REMARK  8 active torsions:
REMARK  status: ('A' for Active; 'I' for Inactive)
REMARK    1  A    between atoms: C_1  and  C_2
REMARK    2  A    between atoms: C_2  and  C_3
REMARK    3  A    between atoms: C_6  and  C_7
REMARK    4  A    between atoms: C_6  and  C_8
REMARK    5  A    between atoms: C_11  and  C_12
REMARK    6  A    between atoms: C_12  and  C_13
REMARK    7  A    between atoms: C_16  and  C_17
REMARK    8  A    between atoms: C_17  and  O_19
REMARK                            x       y       z     vdW  Elec       q    Type
REMARK                         _______ _______ _______ _____ _____    ______ ____
ROOT
ATOM      1  C   UNL     1       0.317  12.129  19.687  0.00  0.00    +0.000 C 
ATOM      2  S   UNL     1       1.013  13.190  18.283  0.00  0.00    +0.000 S 
ATOM      3  C   UNL     1       2.133  14.241  19.247  0.00  0.00    +0.000 C 
ATOM      4  C   UNL     1       2.592  13.463  20.453  0.00  0.00    +0.000 C 
ATOM      5  S   UNL     1       1.079  12.897  21.238  0.00  0.00    +0.000 S 
ENDROOT
BRANCH   1  16
ATOM      6  C   UNL     1      -6.054  13.874  19.205  0.00  0.00    +0.000 C 
ATOM      7  C   UNL     1      -5.620  12.461  19.650  0.00  0.00    +0.000 C 
ATOM      8  C   UNL     1      -6.163  12.207  21.076  0.00  0.00    +0.000 C 
ATOM      9  C   UNL     1      -6.273  11.384  18.750  0.00  0.00    +0.000 C 
ATOM     10  C   UNL     1      -5.613  11.267  17.387  0.00  0.00    +0.000 C 
ATOM     11  C   UNL     1      -4.107  10.933  17.468  0.00  0.00    +0.000 C 
ATOM     12  C   UNL     1      -3.911   9.414  17.680  0.00  0.00    +0.000 C 
ATOM     13  C   UNL     1      -3.505  11.320  16.095  0.00  0.00    +0.000 C 
ATOM     14  C   UNL     1      -3.404  11.666  18.614  0.00  0.00    +0.000 A 
ATOM     15  C   UNL     1      -1.995  11.578  18.699  0.00  0.00    +0.000 A 
ATOM     16  C   UNL     1      -1.231  12.188  19.711  0.00  0.00    +0.000 A 
ATOM     17  C   UNL     1      -1.935  12.980  20.623  0.00  0.00    +0.000 A 
ATOM     18  C   UNL     1      -3.331  13.065  20.578  0.00  0.00    +0.000 A 
ATOM     19  C   UNL     1      -4.092  12.380  19.610  0.00  0.00    +0.000 A 
ENDBRANCH   1  16
BRANCH   1  20
ATOM     20  C   UNL     1       0.730  10.635  19.580  0.00  0.00    +0.000 A 
ATOM     21  C   UNL     1       0.718   9.760  20.679  0.00  0.00    +0.000 A 
ATOM     22  C   UNL     1       1.305   8.490  20.600  0.00  0.00    +0.000 A 
ATOM     23  C   UNL     1       1.927   8.072  19.420  0.00  0.00    +0.000 A 
ATOM     24  C   UNL     1       1.891   8.889  18.292  0.00  0.00    +0.000 A 
ATOM     25  C   UNL     1       1.314  10.154  18.379  0.00  0.00    +0.000 A 
BRANCH  23  26
ATOM     26  C   UNL     1       2.615   6.760  19.406  0.00  0.00    +0.000 C 
ATOM     27  O   UNL     1       3.226   6.346  18.433  0.00  0.00    +0.000 OA
BRANCH  26  28
ATOM     28  O   UNL     1       2.464   6.047  20.541  0.00  0.00    +0.000 OA
ATOM     29  H   UNL     1       3.090   6.266  21.255  0.00  0.00    +0.000 HD
ENDBRANCH  26  28
ENDBRANCH  23  26
ENDBRANCH   1  20
TORSDOF 4
ENDMDL
MODEL 9
REMARK VINA RESULT:      -6.8      6.015      8.379
REMARK  Name = 
REMARK  8 active torsions:
REMARK  status: ('A' for Active; 'I' for Inactive)
REMARK    1  A    between atoms: C_1  and  C_2
REMARK    2  A    between atoms: C_2  and  C_3
REMARK    3  A    between atoms: C_6  and  C_7
REMARK    4  A    between atoms: C_6  and  C_8
REMARK    5  A    between atoms: C_11  and  C_12
REMARK    6  A    between atoms: C_12  and  C_13
REMARK    7  A    between atoms: C_16  and  C_17
REMARK    8  A    between atoms: C_17  and  O_19
REMARK                            x       y       z     vdW  Elec       q    Type
REMARK                         _______ _______ _______ _____ _____    ______ ____
ROOT
ATOM      1  C   UNL     1       0.298  10.976  20.134  0.00  0.00    +0.000 C 
ATOM      2  S   UNL     1       1.074   9.265  19.907  0.00  0.00    +0.000 S 
ATOM      3  C   UNL     1       0.893   8.641  21.599  0.00  0.00    +0.000 C 
ATOM      4  C   UNL     1      -0.314   9.297  22.220  0.00  0.00    +0.000 C 
ATOM      5  S   UNL     1      -0.048  11.058  21.992  0.00  0.00    +0.000 S 
ENDROOT
BRANCH   1  16
ATOM      6  C   UNL     1       3.291  16.037  17.085  0.00  0.00    +0.000 C 
ATOM      7  C   UNL     1       3.902  15.345  18.322  0.00  0.00    +0.000 C 
ATOM      8  C   UNL     1       5.276  14.754  17.926  0.00  0.00    +0.000 C 
ATOM      9  C   UNL     1       4.191  16.381  19.435  0.00  0.00    +0.000 C 
ATOM     10  C   UNL     1       2.941  16.825  20.175  0.00  0.00    +0.000 C 
ATOM     11  C   UNL     1       2.180  15.655  20.836  0.00  0.00    +0.000 C 
ATOM     12  C   UNL     1       2.836  15.291  22.188  0.00  0.00    +0.000 C 
ATOM     13  C   UNL     1       0.746  16.174  21.109  0.00  0.00    +0.000 C 
ATOM     14  C   UNL     1       2.163  14.397  19.963  0.00  0.00    +0.000 A 
ATOM     15  C   UNL     1       1.361  13.308  20.375  0.00  0.00    +0.000 A 
ATOM     16  C   UNL     1       1.271  12.091  19.676  0.00  0.00    +0.000 A 
ATOM     17  C   UNL     1       1.972  12.022  18.467  0.00  0.00    +0.000 A 
ATOM     18  C   UNL     1       2.793  13.074  18.047  0.00  0.00    +0.000 A 
ATOM     19  C   UNL     1       2.941  14.255  18.802  0.00  0.00    +0.000 A 
ENDBRANCH   1  16
BRANCH   1  20
ATOM     20  C   UNL     1      -1.027  11.152  19.343  0.00  0.00    +0.000 A 
ATOM     21  C   UNL     1      -2.020  12.075  19.713  0.00  0.00    +0.000 A 
ATOM     22  C   UNL     1      -3.288  12.051  19.117  0.00  0.00    +0.000 A 
ATOM     23  C   UNL     1      -3.592  11.097  18.143  0.00  0.00    +0.000 A 
ATOM     24  C   UNL     1      -2.606  10.216  17.704  0.00  0.00    +0.000 A 
ATOM     25  C   UNL     1      -1.350  10.238  18.306  0.00  0.00    +0.000 A 
BRANCH  23  26
ATOM     26  C   UNL     1      -4.972  11.047  17.603  0.00  0.00    +0.000 C 
ATOM     27  O   UNL     1      -5.941  10.769  18.292  0.00  0.00    +0.000 OA
BRANCH  26  28
ATOM     28  O   UNL     1      -5.053  11.287  16.277  0.00  0.00    +0.000 OA
ATOM     29  H   UNL     1      -4.197  11.371  15.819  0.00  0.00    +0.000 HD
ENDBRANCH  26  28
ENDBRANCH  23  26
ENDBRANCH   1  20
TORSDOF 4
ENDMDL
