MODEL 1
REMARK VINA RESULT:      -8.7      0.000      0.000
REMARK  Name = 
REMARK  5 active torsions:
REMARK  status: ('A' for Active; 'I' for Inactive)
REMARK    1  A    between atoms: C_2  and  C_3
REMARK    2  A    between atoms: C_7  and  N_8
REMARK    3  A    between atoms: C_12  and  C_14
REMARK    4  A    between atoms: C_16  and  C_17
REMARK    5  A    between atoms: C_17  and  C_18
REMARK                            x       y       z     vdW  Elec       q    Type
REMARK                         _______ _______ _______ _____ _____    ______ ____
ROOT
ATOM      1  C   UNL     1      -0.255  10.671  20.150  0.00  0.00    +0.000 A 
ATOM      2  C   UNL     1       0.213  11.925  20.577  0.00  0.00    +0.000 A 
ATOM      3  C   UNL     1      -0.249  13.111  19.972  0.00  0.00    +0.000 A 
ATOM      4  C   UNL     1      -1.139  13.008  18.889  0.00  0.00    +0.000 A 
ATOM      5  C   UNL     1      -1.585  11.775  18.464  0.00  0.00    +0.000 A 
ATOM      6  F   UNL     1      -2.439  11.666  17.439  0.00  0.00    +0.000 F 
ATOM      7  C   UNL     1      -1.203  10.633  19.130  0.00  0.00    +0.000 A 
ATOM      8  F   UNL     1      -1.822   9.506  18.757  0.00  0.00    +0.000 F 
ENDROOT
BRANCH   1  13
ATOM      9  N   UNL     1       2.439   6.648  18.694  0.00  0.00    +0.000 N 
ATOM     10  C   UNL     1       1.664   6.233  19.882  0.00  0.00    +0.000 C 
ATOM     11  C   UNL     1       1.614   7.397  20.898  0.00  0.00    +0.000 C 
ATOM     12  N   UNL     1       1.199   8.656  20.269  0.00  0.00    +0.000 N 
ATOM     13  C   UNL     1       0.197   9.431  20.832  0.00  0.00    +0.000 C 
ATOM     14  O   UNL     1      -0.352   9.143  21.903  0.00  0.00    +0.000 OA
ATOM     15  C   UNL     1       2.009   8.981  19.073  0.00  0.00    +0.000 C 
ATOM     16  C   UNL     1       1.913   7.842  18.041  0.00  0.00    +0.000 C 
BRANCH   9  21
ATOM     17  C   UNL     1       5.172   5.289  16.801  0.00  0.00    +0.000 A 
ATOM     18  C   UNL     1       4.798   3.964  16.598  0.00  0.00    +0.000 A 
ATOM     19  C   UNL     1       3.586   3.551  17.106  0.00  0.00    +0.000 A 
ATOM     20  C   UNL     1       2.806   4.467  17.794  0.00  0.00    +0.000 A 
ATOM     21  C   UNL     1       3.221   5.785  17.960  0.00  0.00    +0.000 A 
ATOM     22  N   UNL     1       4.409   6.187  17.465  0.00  0.00    +0.000 NA
BRANCH  17  24
ATOM     23  N   UNL     1       7.483   6.060  15.871  0.00  0.00    +0.000 NA
ATOM     24  C   UNL     1       6.435   5.756  16.328  0.00  0.00    +0.000 C 
ENDBRANCH  17  24
ENDBRANCH   9  21
ENDBRANCH   1  13
BRANCH   3  25
ATOM     25  C   UNL     1       0.186  14.458  20.515  0.00  0.00    +0.000 C 
BRANCH  25  26
ATOM     26  C   UNL     1       1.254  15.148  19.674  0.00  0.00    +0.000 A 
ATOM     27  N   UNL     1       2.482  14.746  19.844  0.00  0.00    +0.000 NA
ATOM     28  N   UNL     1       3.479  15.419  19.207  0.00  0.00    +0.000 N 
ATOM     29  C   UNL     1       3.331  16.566  18.467  0.00  0.00    +0.000 A 
ATOM     30  O   UNL     1       4.288  17.209  18.047  0.00  0.00    +0.000 OA
ATOM     31  C   UNL     1       1.946  16.974  18.183  0.00  0.00    +0.000 A 
ATOM     32  C   UNL     1       1.697  18.051  17.323  0.00  0.00    +0.000 A 
ATOM     33  C   UNL     1       0.383  18.386  16.997  0.00  0.00    +0.000 A 
ATOM     34  C   UNL     1      -0.673  17.651  17.530  0.00  0.00    +0.000 A 
ATOM     35  C   UNL     1      -0.422  16.588  18.404  0.00  0.00    +0.000 A 
ATOM     36  C   UNL     1       0.894  16.253  18.746  0.00  0.00    +0.000 A 
ATOM     37  H   UNL     1       4.429  15.129  19.422  0.00  0.00    +0.000 HD
ENDBRANCH  25  26
ENDBRANCH   3  25
TORSDOF 5
ENDMDL
MODEL 2
REMARK VINA RESULT:      -8.6      2.816     10.026
REMARK  Name = 
REMARK  5 active torsions:
REMARK  status: ('A' for Active; 'I' for Inactive)
REMARK    1  A    between atoms: C_2  and  C_3
REMARK    2  A    between atoms: C_7  and  N_8
REMARK    3  A    between atoms: C_12  and  C_14
REMARK    4  A    between atoms: C_16  and  C_17
REMARK    5  A    between atoms: C_17  and  C_18
REMARK                            x       y       z     vdW  Elec       q    Type
REMARK                         _______ _______ _______ _____ _____    ______ ____
ROOT
ATOM      1  C   UNL     1       0.678   9.995  19.000  0.00  0.00    +0.000 A 
ATOM      2  C   UNL     1       1.418   9.304  18.027  0.00  0.00    +0.000 A 
ATOM      3  C   UNL     1       2.108   8.119  18.353  0.00  0.00    +0.000 A 
ATOM      4  C   UNL     1       2.092   7.679  19.688  0.00  0.00    +0.000 A 
ATOM      5  C   UNL     1       1.375   8.368  20.643  0.00  0.00    +0.000 A 
ATOM      6  F   UNL     1       1.346   7.954  21.916  0.00  0.00    +0.000 F 
ATOM      7  C   UNL     1       0.625   9.467  20.287  0.00  0.00    +0.000 A 
ATOM      8  F   UNL     1      -0.172   9.962  21.243  0.00  0.00    +0.000 F 
ENDROOT
BRANCH   1  13
ATOM      9  N   UNL     1       1.177  14.913  20.059  0.00  0.00    +0.000 N 
ATOM     10  C   UNL     1      -0.231  14.705  19.661  0.00  0.00    +0.000 C 
ATOM     11  C   UNL     1      -0.296  13.680  18.506  0.00  0.00    +0.000 C 
ATOM     12  N   UNL     1       0.473  12.467  18.807  0.00  0.00    +0.000 N 
ATOM     13  C   UNL     1      -0.091  11.212  18.632  0.00  0.00    +0.000 C 
ATOM     14  O   UNL     1      -1.225  11.045  18.167  0.00  0.00    +0.000 OA
ATOM     15  C   UNL     1       1.861  12.768  19.222  0.00  0.00    +0.000 C 
ATOM     16  C   UNL     1       1.859  13.687  20.458  0.00  0.00    +0.000 C 
BRANCH   9  21
ATOM     17  C   UNL     1       3.369  17.686  20.694  0.00  0.00    +0.000 A 
ATOM     18  C   UNL     1       2.550  18.604  21.345  0.00  0.00    +0.000 A 
ATOM     19  C   UNL     1       1.240  18.248  21.577  0.00  0.00    +0.000 A 
ATOM     20  C   UNL     1       0.803  17.004  21.150  0.00  0.00    +0.000 A 
ATOM     21  C   UNL     1       1.666  16.117  20.513  0.00  0.00    +0.000 A 
ATOM     22  N   UNL     1       2.947  16.468  20.283  0.00  0.00    +0.000 NA
BRANCH  17  24
ATOM     23  N   UNL     1       5.834  18.250  20.058  0.00  0.00    +0.000 NA
ATOM     24  C   UNL     1       4.724  18.022  20.396  0.00  0.00    +0.000 C 
ENDBRANCH  17  24
ENDBRANCH   9  21
ENDBRANCH   1  13
BRANCH   3  25
ATOM     25  C   UNL     1       2.815   7.330  17.268  0.00  0.00    +0.000 C 
BRANCH  25  26
ATOM     26  C   UNL     1       3.552   6.098  17.781  0.00  0.00    +0.000 A 
ATOM     27  N   UNL     1       2.820   5.072  18.110  0.00  0.00    +0.000 NA
ATOM     28  N   UNL     1       3.427   4.000  18.688  0.00  0.00    +0.000 N 
ATOM     29  C   UNL     1       4.746   3.927  19.062  0.00  0.00    +0.000 A 
ATOM     30  O   UNL     1       5.195   2.992  19.717  0.00  0.00    +0.000 OA
ATOM     31  C   UNL     1       5.606   5.032  18.608  0.00  0.00    +0.000 A 
ATOM     32  C   UNL     1       6.988   4.976  18.824  0.00  0.00    +0.000 A 
ATOM     33  C   UNL     1       7.807   5.988  18.326  0.00  0.00    +0.000 A 
ATOM     34  C   UNL     1       7.246   7.050  17.622  0.00  0.00    +0.000 A 
ATOM     35  C   UNL     1       5.863   7.114  17.425  0.00  0.00    +0.000 A 
ATOM     36  C   UNL     1       5.032   6.107  17.931  0.00  0.00    +0.000 A 
ATOM     37  H   UNL     1       2.817   3.250  19.002  0.00  0.00    +0.000 HD
ENDBRANCH  25  26
ENDBRANCH   3  25
TORSDOF 5
ENDMDL
MODEL 3
REMARK VINA RESULT:      -8.5      1.221      1.889
REMARK  Name = 
REMARK  5 active torsions:
REMARK  status: ('A' for Active; 'I' for Inactive)
REMARK    1  A    between atoms: C_2  and  C_3
REMARK    2  A    between atoms: C_7  and  N_8
REMARK    3  A    between atoms: C_12  and  C_14
REMARK    4  A    between atoms: C_16  and  C_17
REMARK    5  A    between atoms: C_17  and  C_18
REMARK                            x       y       z     vdW  Elec       q    Type
REMARK                         _______ _______ _______ _____ _____    ______ ____
ROOT
ATOM      1  C   UNL     1      -0.163  10.899  20.110  0.00  0.00    +0.000 A 
ATOM      2  C   UNL     1       0.159  12.145  20.671  0.00  0.00    +0.000 A 
ATOM      3  C   UNL     1      -0.263  13.342  20.058  0.00  0.00    +0.000 A 
ATOM      4  C   UNL     1      -0.957  13.262  18.839  0.00  0.00    +0.000 A 
ATOM      5  C   UNL     1      -1.260  12.037  18.285  0.00  0.00    +0.000 A 
ATOM      6  F   UNL     1      -1.927  11.949  17.127  0.00  0.00    +0.000 F 
ATOM      7  C   UNL     1      -0.928  10.876  18.947  0.00  0.00    +0.000 A 
ATOM      8  F   UNL     1      -1.416   9.746  18.420  0.00  0.00    +0.000 F 
ENDROOT
BRANCH   1  13
ATOM      9  N   UNL     1       2.424   6.796  18.682  0.00  0.00    +0.000 N 
ATOM     10  C   UNL     1       1.618   6.403  19.857  0.00  0.00    +0.000 C 
ATOM     11  C   UNL     1       1.589   7.565  20.876  0.00  0.00    +0.000 C 
ATOM     12  N   UNL     1       1.224   8.838  20.244  0.00  0.00    +0.000 N 
ATOM     13  C   UNL     1       0.239   9.643  20.795  0.00  0.00    +0.000 C 
ATOM     14  O   UNL     1      -0.336   9.370  21.857  0.00  0.00    +0.000 OA
ATOM     15  C   UNL     1       2.062   9.141  19.062  0.00  0.00    +0.000 C 
ATOM     16  C   UNL     1       1.946   8.008  18.025  0.00  0.00    +0.000 C 
BRANCH   9  21
ATOM     17  C   UNL     1       5.133   5.364  16.809  0.00  0.00    +0.000 A 
ATOM     18  C   UNL     1       4.730   4.046  16.613  0.00  0.00    +0.000 A 
ATOM     19  C   UNL     1       3.507   3.664  17.119  0.00  0.00    +0.000 A 
ATOM     20  C   UNL     1       2.745   4.602  17.797  0.00  0.00    +0.000 A 
ATOM     21  C   UNL     1       3.189   5.911  17.957  0.00  0.00    +0.000 A 
ATOM     22  N   UNL     1       4.388   6.283  17.464  0.00  0.00    +0.000 NA
BRANCH  17  24
ATOM     23  N   UNL     1       7.505   6.129  16.041  0.00  0.00    +0.000 NA
ATOM     24  C   UNL     1       6.408   5.799  16.339  0.00  0.00    +0.000 C 
ENDBRANCH  17  24
ENDBRANCH   9  21
ENDBRANCH   1  13
BRANCH   3  25
ATOM     25  C   UNL     1       0.003  14.674  20.732  0.00  0.00    +0.000 C 
BRANCH  25  26
ATOM     26  C   UNL     1       0.554  15.742  19.795  0.00  0.00    +0.000 A 
ATOM     27  N   UNL     1      -0.197  16.787  19.592  0.00  0.00    +0.000 NA
ATOM     28  N   UNL     1       0.201  17.703  18.667  0.00  0.00    +0.000 N 
ATOM     29  C   UNL     1       1.287  17.587  17.834  0.00  0.00    +0.000 A 
ATOM     30  O   UNL     1       1.504  18.374  16.919  0.00  0.00    +0.000 OA
ATOM     31  C   UNL     1       2.199  16.467  18.119  0.00  0.00    +0.000 A 
ATOM     32  C   UNL     1       3.401  16.348  17.412  0.00  0.00    +0.000 A 
ATOM     33  C   UNL     1       4.297  15.330  17.737  0.00  0.00    +0.000 A 
ATOM     34  C   UNL     1       3.989  14.436  18.759  0.00  0.00    +0.000 A 
ATOM     35  C   UNL     1       2.777  14.545  19.450  0.00  0.00    +0.000 A 
ATOM     36  C   UNL     1       1.868  15.557  19.123  0.00  0.00    +0.000 A 
ATOM     37  H   UNL     1      -0.445  18.465  18.478  0.00  0.00    +0.000 HD
ENDBRANCH  25  26
ENDBRANCH   3  25
TORSDOF 5
ENDMDL
MODEL 4
REMARK VINA RESULT:      -8.4      4.253     10.563
REMARK  Name = 
REMARK  5 active torsions:
REMARK  status: ('A' for Active; 'I' for Inactive)
REMARK    1  A    between atoms: C_2  and  C_3
REMARK    2  A    between atoms: C_7  and  N_8
REMARK    3  A    between atoms: C_12  and  C_14
REMARK    4  A    between atoms: C_16  and  C_17
REMARK    5  A    between atoms: C_17  and  C_18
REMARK                            x       y       z     vdW  Elec       q    Type
REMARK                         _______ _______ _______ _____ _____    ______ ____
ROOT
ATOM      1  C   UNL     1       1.042  10.117  20.233  0.00  0.00    +0.000 A 
ATOM      2  C   UNL     1       1.081   8.856  19.617  0.00  0.00    +0.000 A 
ATOM      3  C   UNL     1       1.670   8.692  18.347  0.00  0.00    +0.000 A 
ATOM      4  C   UNL     1       2.160   9.829  17.684  0.00  0.00    +0.000 A 
ATOM      5  C   UNL     1       2.108  11.068  18.287  0.00  0.00    +0.000 A 
ATOM      6  F   UNL     1       2.579  12.158  17.667  0.00  0.00    +0.000 F 
ATOM      7  C   UNL     1       1.621  11.195  19.568  0.00  0.00    +0.000 A 
ATOM      8  F   UNL     1       1.772  12.400  20.132  0.00  0.00    +0.000 F 
ENDROOT
BRANCH   1  13
ATOM      9  N   UNL     1      -2.667  12.945  22.186  0.00  0.00    +0.000 N 
ATOM     10  C   UNL     1      -1.795  12.551  23.312  0.00  0.00    +0.000 C 
ATOM     11  C   UNL     1      -1.313  11.096  23.109  0.00  0.00    +0.000 C 
ATOM     12  N   UNL     1      -0.762  10.885  21.765  0.00  0.00    +0.000 N 
ATOM     13  C   UNL     1       0.468  10.268  21.596  0.00  0.00    +0.000 C 
ATOM     14  O   UNL     1       1.130   9.817  22.540  0.00  0.00    +0.000 OA
ATOM     15  C   UNL     1      -1.687  11.331  20.700  0.00  0.00    +0.000 C 
ATOM     16  C   UNL     1      -2.026  12.822  20.880  0.00  0.00    +0.000 C 
BRANCH   9  21
ATOM     17  C   UNL     1      -5.858  14.304  23.116  0.00  0.00    +0.000 A 
ATOM     18  C   UNL     1      -5.798  15.616  22.657  0.00  0.00    +0.000 A 
ATOM     19  C   UNL     1      -4.651  16.019  22.008  0.00  0.00    +0.000 A 
ATOM     20  C   UNL     1      -3.620  15.108  21.850  0.00  0.00    +0.000 A 
ATOM     21  C   UNL     1      -3.735  13.802  22.318  0.00  0.00    +0.000 A 
ATOM     22  N   UNL     1      -4.856  13.409  22.956  0.00  0.00    +0.000 NA
BRANCH  17  24
ATOM     23  N   UNL     1      -7.897  13.405  24.471  0.00  0.00    +0.000 NA
ATOM     24  C   UNL     1      -7.008  13.848  23.828  0.00  0.00    +0.000 C 
ENDBRANCH  17  24
ENDBRANCH   9  21
ENDBRANCH   1  13
BRANCH   3  25
ATOM     25  C   UNL     1       1.798   7.307  17.744  0.00  0.00    +0.000 C 
BRANCH  25  26
ATOM     26  C   UNL     1       2.951   6.488  18.313  0.00  0.00    +0.000 A 
ATOM     27  N   UNL     1       4.147   6.800  17.904  0.00  0.00    +0.000 NA
ATOM     28  N   UNL     1       5.191   6.015  18.290  0.00  0.00    +0.000 N 
ATOM     29  C   UNL     1       5.097   4.843  18.999  0.00  0.00    +0.000 A 
ATOM     30  O   UNL     1       6.058   4.104  19.183  0.00  0.00    +0.000 OA
ATOM     31  C   UNL     1       3.769   4.531  19.553  0.00  0.00    +0.000 A 
ATOM     32  C   UNL     1       3.608   3.430  20.403  0.00  0.00    +0.000 A 
ATOM     33  C   UNL     1       2.366   3.182  20.985  0.00  0.00    +0.000 A 
ATOM     34  C   UNL     1       1.292   4.027  20.716  0.00  0.00    +0.000 A 
ATOM     35  C   UNL     1       1.451   5.115  19.850  0.00  0.00    +0.000 A 
ATOM     36  C   UNL     1       2.692   5.364  19.253  0.00  0.00    +0.000 A 
ATOM     37  H   UNL     1       6.098   6.241  17.891  0.00  0.00    +0.000 HD
ENDBRANCH  25  26
ENDBRANCH   3  25
TORSDOF 5
ENDMDL
MODEL 5
REMARK VINA RESULT:      -8.4      1.610      2.523
REMARK  Name = 
REMARK  5 active torsions:
REMARK  status: ('A' for Active; 'I' for Inactive)
REMARK    1  A    between atoms: C_2  and  C_3
REMARK    2  A    between atoms: C_7  and  N_8
REMARK    3  A    between atoms: C_12  and  C_14
REMARK    4  A    between atoms: C_16  and  C_17
REMARK    5  A    between atoms: C_17  and  C_18
REMARK                            x       y       z     vdW  Elec       q    Type
REMARK                         _______ _______ _______ _____ _____    ______ ____
ROOT
ATOM      1  C   UNL     1       0.025  10.908  19.689  0.00  0.00    +0.000 A 
ATOM      2  C   UNL     1       0.625  12.153  19.935  0.00  0.00    +0.000 A 
ATOM      3  C   UNL     1       0.206  13.306  19.242  0.00  0.00    +0.000 A 
ATOM      4  C   UNL     1      -0.783  13.170  18.252  0.00  0.00    +0.000 A 
ATOM      5  C   UNL     1      -1.360  11.943  18.004  0.00  0.00    +0.000 A 
ATOM      6  F   UNL     1      -2.308  11.803  17.069  0.00  0.00    +0.000 F 
ATOM      7  C   UNL     1      -1.010  10.847  18.759  0.00  0.00    +0.000 A 
ATOM      8  F   UNL     1      -1.746   9.746  18.564  0.00  0.00    +0.000 F 
ENDROOT
BRANCH   1  13
ATOM      9  N   UNL     1       2.555   6.682  18.543  0.00  0.00    +0.000 N 
ATOM     10  C   UNL     1       1.777   6.394  19.766  0.00  0.00    +0.000 C 
ATOM     11  C   UNL     1       1.780   7.637  20.686  0.00  0.00    +0.000 C 
ATOM     12  N   UNL     1       1.405   8.855  19.959  0.00  0.00    +0.000 N 
ATOM     13  C   UNL     1       0.438   9.710  20.466  0.00  0.00    +0.000 C 
ATOM     14  O   UNL     1      -0.111   9.530  21.561  0.00  0.00    +0.000 OA
ATOM     15  C   UNL     1       2.214   9.053  18.736  0.00  0.00    +0.000 C 
ATOM     16  C   UNL     1       2.066   7.839  17.799  0.00  0.00    +0.000 C 
BRANCH   9  21
ATOM     17  C   UNL     1       5.185   5.093  16.686  0.00  0.00    +0.000 A 
ATOM     18  C   UNL     1       4.799   3.756  16.656  0.00  0.00    +0.000 A 
ATOM     19  C   UNL     1       3.613   3.415  17.268  0.00  0.00    +0.000 A 
ATOM     20  C   UNL     1       2.871   4.410  17.883  0.00  0.00    +0.000 A 
ATOM     21  C   UNL     1       3.296   5.735  17.876  0.00  0.00    +0.000 A 
ATOM     22  N   UNL     1       4.459   6.067  17.279  0.00  0.00    +0.000 NA
BRANCH  17  24
ATOM     23  N   UNL     1       7.490   5.828  15.712  0.00  0.00    +0.000 NA
ATOM     24  C   UNL     1       6.424   5.492  16.100  0.00  0.00    +0.000 C 
ENDBRANCH  17  24
ENDBRANCH   9  21
ENDBRANCH   1  13
BRANCH   3  25
ATOM     25  C   UNL     1       0.791  14.659  19.596  0.00  0.00    +0.000 C 
BRANCH  25  26
ATOM     26  C   UNL     1       2.238  14.842  19.152  0.00  0.00    +0.000 A 
ATOM     27  N   UNL     1       2.457  14.867  17.868  0.00  0.00    +0.000 NA
ATOM     28  N   UNL     1       3.745  14.902  17.430  0.00  0.00    +0.000 N 
ATOM     29  C   UNL     1       4.866  14.811  18.218  0.00  0.00    +0.000 A 
ATOM     30  O   UNL     1       5.994  14.695  17.750  0.00  0.00    +0.000 OA
ATOM     31  C   UNL     1       4.639  14.885  19.670  0.00  0.00    +0.000 A 
ATOM     32  C   UNL     1       5.730  14.937  20.546  0.00  0.00    +0.000 A 
ATOM     33  C   UNL     1       5.512  15.083  21.915  0.00  0.00    +0.000 A 
ATOM     34  C   UNL     1       4.210  15.172  22.404  0.00  0.00    +0.000 A 
ATOM     35  C   UNL     1       3.122  15.098  21.528  0.00  0.00    +0.000 A 
ATOM     36  C   UNL     1       3.333  14.941  20.154  0.00  0.00    +0.000 A 
ATOM     37  H   UNL     1       3.883  14.843  16.425  0.00  0.00    +0.000 HD
ENDBRANCH  25  26
ENDBRANCH   3  25
TORSDOF 5
ENDMDL
MODEL 6
REMARK VINA RESULT:      -8.2      4.113     10.340
REMARK  Name = 
REMARK  5 active torsions:
REMARK  status: ('A' for Active; 'I' for Inactive)
REMARK    1  A    between atoms: C_2  and  C_3
REMARK    2  A    between atoms: C_7  and  N_8
REMARK    3  A    between atoms: C_12  and  C_14
REMARK    4  A    between atoms: C_16  and  C_17
REMARK    5  A    between atoms: C_17  and  C_18
REMARK                            x       y       z     vdW  Elec       q    Type
REMARK                         _______ _______ _______ _____ _____    ______ ____
ROOT
ATOM      1  C   UNL     1       1.533   8.590  20.197  0.00  0.00    +0.000 A 
ATOM      2  C   UNL     1       1.834   7.249  19.910  0.00  0.00    +0.000 A 
ATOM      3  C   UNL     1       2.346   6.878  18.651  0.00  0.00    +0.000 A 
ATOM      4  C   UNL     1       2.487   7.871  17.666  0.00  0.00    +0.000 A 
ATOM      5  C   UNL     1       2.177   9.185  17.947  0.00  0.00    +0.000 A 
ATOM      6  F   UNL     1       2.315  10.140  17.019  0.00  0.00    +0.000 F 
ATOM      7  C   UNL     1       1.774   9.546  19.213  0.00  0.00    +0.000 A 
ATOM      8  F   UNL     1       1.666  10.861  19.437  0.00  0.00    +0.000 F 
ENDROOT
BRANCH   1  13
ATOM      9  N   UNL     1      -2.020  11.776  21.868  0.00  0.00    +0.000 N 
ATOM     10  C   UNL     1      -1.083  11.558  22.990  0.00  0.00    +0.000 C 
ATOM     11  C   UNL     1      -0.629  10.080  23.004  0.00  0.00    +0.000 C 
ATOM     12  N   UNL     1      -0.165   9.638  21.684  0.00  0.00    +0.000 N 
ATOM     13  C   UNL     1       1.047   8.977  21.547  0.00  0.00    +0.000 C 
ATOM     14  O   UNL     1       1.761   8.677  22.512  0.00  0.00    +0.000 OA
ATOM     15  C   UNL     1      -1.151   9.919  20.617  0.00  0.00    +0.000 C 
ATOM     16  C   UNL     1      -1.463  11.426  20.565  0.00  0.00    +0.000 C 
BRANCH   9  21
ATOM     17  C   UNL     1      -5.156  13.311  22.712  0.00  0.00    +0.000 A 
ATOM     18  C   UNL     1      -5.091  14.548  22.078  0.00  0.00    +0.000 A 
ATOM     19  C   UNL     1      -3.963  14.838  21.344  0.00  0.00    +0.000 A 
ATOM     20  C   UNL     1      -2.952  13.893  21.276  0.00  0.00    +0.000 A 
ATOM     21  C   UNL     1      -3.070  12.665  21.919  0.00  0.00    +0.000 A 
ATOM     22  N   UNL     1      -4.173  12.383  22.640  0.00  0.00    +0.000 NA
BRANCH  17  24
ATOM     23  N   UNL     1      -7.276  12.683  24.093  0.00  0.00    +0.000 NA
ATOM     24  C   UNL     1      -6.287  12.977  23.516  0.00  0.00    +0.000 C 
ENDBRANCH  17  24
ENDBRANCH   9  21
ENDBRANCH   1  13
BRANCH   3  25
ATOM     25  C   UNL     1       2.764   5.444  18.394  0.00  0.00    +0.000 C 
BRANCH  25  26
ATOM     26  C   UNL     1       4.269   5.213  18.487  0.00  0.00    +0.000 A 
ATOM     27  N   UNL     1       4.806   5.323  19.668  0.00  0.00    +0.000 NA
ATOM     28  N   UNL     1       6.161   5.248  19.775  0.00  0.00    +0.000 N 
ATOM     29  C   UNL     1       7.047   5.168  18.730  0.00  0.00    +0.000 A 
ATOM     30  O   UNL     1       8.260   5.258  18.885  0.00  0.00    +0.000 OA
ATOM     31  C   UNL     1       6.456   4.942  17.401  0.00  0.00    +0.000 A 
ATOM     32  C   UNL     1       7.286   4.711  16.297  0.00  0.00    +0.000 A 
ATOM     33  C   UNL     1       6.721   4.422  15.055  0.00  0.00    +0.000 A 
ATOM     34  C   UNL     1       5.336   4.369  14.919  0.00  0.00    +0.000 A 
ATOM     35  C   UNL     1       4.509   4.620  16.020  0.00  0.00    +0.000 A 
ATOM     36  C   UNL     1       5.068   4.921  17.267  0.00  0.00    +0.000 A 
ATOM     37  H   UNL     1       6.551   5.414  20.699  0.00  0.00    +0.000 HD
ENDBRANCH  25  26
ENDBRANCH   3  25
TORSDOF 5
ENDMDL
MODEL 7
REMARK VINA RESULT:      -8.2      2.989     10.632
REMARK  Name = 
REMARK  5 active torsions:
REMARK  status: ('A' for Active; 'I' for Inactive)
REMARK    1  A    between atoms: C_2  and  C_3
REMARK    2  A    between atoms: C_7  and  N_8
REMARK    3  A    between atoms: C_12  and  C_14
REMARK    4  A    between atoms: C_16  and  C_17
REMARK    5  A    between atoms: C_17  and  C_18
REMARK                            x       y       z     vdW  Elec       q    Type
REMARK                         _______ _______ _______ _____ _____    ______ ____
ROOT
ATOM      1  C   UNL     1       0.756   9.698  19.093  0.00  0.00    +0.000 A 
ATOM      2  C   UNL     1       1.590   8.909  18.284  0.00  0.00    +0.000 A 
ATOM      3  C   UNL     1       2.259   7.788  18.814  0.00  0.00    +0.000 A 
ATOM      4  C   UNL     1       2.123   7.513  20.186  0.00  0.00    +0.000 A 
ATOM      5  C   UNL     1       1.314   8.298  20.980  0.00  0.00    +0.000 A 
ATOM      6  F   UNL     1       1.171   8.041  22.286  0.00  0.00    +0.000 F 
ATOM      7  C   UNL     1       0.590   9.329  20.426  0.00  0.00    +0.000 A 
ATOM      8  F   UNL     1      -0.297   9.919  21.237  0.00  0.00    +0.000 F 
ENDROOT
BRANCH   1  13
ATOM      9  N   UNL     1       0.775  14.683  19.935  0.00  0.00    +0.000 N 
ATOM     10  C   UNL     1      -0.513  14.367  19.283  0.00  0.00    +0.000 C 
ATOM     11  C   UNL     1      -0.292  13.286  18.200  0.00  0.00    +0.000 C 
ATOM     12  N   UNL     1       0.464  12.140  18.717  0.00  0.00    +0.000 N 
ATOM     13  C   UNL     1       0.014  10.845  18.510  0.00  0.00    +0.000 C 
ATOM     14  O   UNL     1      -0.996  10.584  17.843  0.00  0.00    +0.000 OA
ATOM     15  C   UNL     1       1.724  12.548  19.377  0.00  0.00    +0.000 C 
ATOM     16  C   UNL     1       1.428  13.523  20.532  0.00  0.00    +0.000 C 
BRANCH   9  21
ATOM     17  C   UNL     1       0.849  17.669  21.929  0.00  0.00    +0.000 A 
ATOM     18  C   UNL     1       1.886  18.408  21.367  0.00  0.00    +0.000 A 
ATOM     19  C   UNL     1       2.546  17.872  20.283  0.00  0.00    +0.000 A 
ATOM     20  C   UNL     1       2.151  16.631  19.812  0.00  0.00    +0.000 A 
ATOM     21  C   UNL     1       1.100  15.936  20.403  0.00  0.00    +0.000 A 
ATOM     22  N   UNL     1       0.457  16.460  21.465  0.00  0.00    +0.000 NA
BRANCH  17  24
ATOM     23  N   UNL     1      -0.447  18.474  24.044  0.00  0.00    +0.000 NA
ATOM     24  C   UNL     1       0.159  18.163  23.077  0.00  0.00    +0.000 C 
ENDBRANCH  17  24
ENDBRANCH   9  21
ENDBRANCH   1  13
BRANCH   3  25
ATOM     25  C   UNL     1       3.070   6.888  17.903  0.00  0.00    +0.000 C 
BRANCH  25  26
ATOM     26  C   UNL     1       3.559   5.608  18.573  0.00  0.00    +0.000 A 
ATOM     27  N   UNL     1       4.777   5.618  19.034  0.00  0.00    +0.000 NA
ATOM     28  N   UNL     1       5.294   4.459  19.527  0.00  0.00    +0.000 N 
ATOM     29  C   UNL     1       4.685   3.229  19.495  0.00  0.00    +0.000 A 
ATOM     30  O   UNL     1       5.265   2.197  19.816  0.00  0.00    +0.000 OA
ATOM     31  C   UNL     1       3.275   3.219  19.072  0.00  0.00    +0.000 A 
ATOM     32  C   UNL     1       2.534   2.033  19.139  0.00  0.00    +0.000 A 
ATOM     33  C   UNL     1       1.179   2.045  18.809  0.00  0.00    +0.000 A 
ATOM     34  C   UNL     1       0.573   3.235  18.412  0.00  0.00    +0.000 A 
ATOM     35  C   UNL     1       1.321   4.414  18.327  0.00  0.00    +0.000 A 
ATOM     36  C   UNL     1       2.684   4.407  18.646  0.00  0.00    +0.000 A 
ATOM     37  H   UNL     1       6.271   4.482  19.806  0.00  0.00    +0.000 HD
ENDBRANCH  25  26
ENDBRANCH   3  25
TORSDOF 5
ENDMDL
MODEL 8
REMARK VINA RESULT:      -8.1      1.600      2.437
REMARK  Name = 
REMARK  5 active torsions:
REMARK  status: ('A' for Active; 'I' for Inactive)
REMARK    1  A    between atoms: C_2  and  C_3
REMARK    2  A    between atoms: C_7  and  N_8
REMARK    3  A    between atoms: C_12  and  C_14
REMARK    4  A    between atoms: C_16  and  C_17
REMARK    5  A    between atoms: C_17  and  C_18
REMARK                            x       y       z     vdW  Elec       q    Type
REMARK                         _______ _______ _______ _____ _____    ______ ____
ROOT
ATOM      1  C   UNL     1      -0.302  11.039  20.111  0.00  0.00    +0.000 A 
ATOM      2  C   UNL     1      -0.030  12.311  20.640  0.00  0.00    +0.000 A 
ATOM      3  C   UNL     1      -0.472  13.475  19.982  0.00  0.00    +0.000 A 
ATOM      4  C   UNL     1      -1.136  13.338  18.751  0.00  0.00    +0.000 A 
ATOM      5  C   UNL     1      -1.390  12.088  18.228  0.00  0.00    +0.000 A 
ATOM      6  F   UNL     1      -2.028  11.945  17.060  0.00  0.00    +0.000 F 
ATOM      7  C   UNL     1      -1.040  10.959  18.932  0.00  0.00    +0.000 A 
ATOM      8  F   UNL     1      -1.481   9.799  18.430  0.00  0.00    +0.000 F 
ENDROOT
BRANCH   1  13
ATOM      9  N   UNL     1       2.470   6.994  18.878  0.00  0.00    +0.000 N 
ATOM     10  C   UNL     1       1.641   6.604  20.038  0.00  0.00    +0.000 C 
ATOM     11  C   UNL     1       1.539   7.791  21.023  0.00  0.00    +0.000 C 
ATOM     12  N   UNL     1       1.151   9.033  20.345  0.00  0.00    +0.000 N 
ATOM     13  C   UNL     1       0.121   9.817  20.843  0.00  0.00    +0.000 C 
ATOM     14  O   UNL     1      -0.477   9.552  21.893  0.00  0.00    +0.000 OA
ATOM     15  C   UNL     1       2.015   9.333  19.182  0.00  0.00    +0.000 C 
ATOM     16  C   UNL     1       1.971   8.171  18.173  0.00  0.00    +0.000 C 
BRANCH   9  21
ATOM     17  C   UNL     1       3.973   3.960  17.680  0.00  0.00    +0.000 A 
ATOM     18  C   UNL     1       4.879   4.404  16.721  0.00  0.00    +0.000 A 
ATOM     19  C   UNL     1       4.977   5.761  16.508  0.00  0.00    +0.000 A 
ATOM     20  C   UNL     1       4.172   6.612  17.247  0.00  0.00    +0.000 A 
ATOM     21  C   UNL     1       3.288   6.118  18.202  0.00  0.00    +0.000 A 
ATOM     22  N   UNL     1       3.191   4.789  18.409  0.00  0.00    +0.000 NA
BRANCH  17  24
ATOM     23  N   UNL     1       3.644   1.393  18.002  0.00  0.00    +0.000 NA
ATOM     24  C   UNL     1       3.805   2.562  17.912  0.00  0.00    +0.000 C 
ENDBRANCH  17  24
ENDBRANCH   9  21
ENDBRANCH   1  13
BRANCH   3  25
ATOM     25  C   UNL     1      -0.261  14.834  20.621  0.00  0.00    +0.000 C 
BRANCH  25  26
ATOM     26  C   UNL     1       0.349  15.870  19.683  0.00  0.00    +0.000 A 
ATOM     27  N   UNL     1      -0.399  16.891  19.373  0.00  0.00    +0.000 NA
ATOM     28  N   UNL     1       0.059  17.773  18.443  0.00  0.00    +0.000 N 
ATOM     29  C   UNL     1       1.210  17.639  17.706  0.00  0.00    +0.000 A 
ATOM     30  O   UNL     1       1.488  18.390  16.776  0.00  0.00    +0.000 OA
ATOM     31  C   UNL     1       2.112  16.550  18.112  0.00  0.00    +0.000 A 
ATOM     32  C   UNL     1       3.369  16.422  17.509  0.00  0.00    +0.000 A 
ATOM     33  C   UNL     1       4.250  15.435  17.950  0.00  0.00    +0.000 A 
ATOM     34  C   UNL     1       3.874  14.581  18.984  0.00  0.00    +0.000 A 
ATOM     35  C   UNL     1       2.610  14.699  19.571  0.00  0.00    +0.000 A 
ATOM     36  C   UNL     1       1.715  15.679  19.127  0.00  0.00    +0.000 A 
ATOM     37  H   UNL     1      -0.580  18.514  18.169  0.00  0.00    +0.000 HD
ENDBRANCH  25  26
ENDBRANCH   3  25
TORSDOF 5
ENDMDL
MODEL 9
REMARK VINA RESULT:      -8.1      1.787      2.147
REMARK  Name = 
REMARK  5 active torsions:
REMARK  status: ('A' for Active; 'I' for Inactive)
REMARK    1  A    between atoms: C_2  and  C_3
REMARK    2  A    between atoms: C_7  and  N_8
REMARK    3  A    between atoms: C_12  and  C_14
REMARK    4  A    between atoms: C_16  and  C_17
REMARK    5  A    between atoms: C_17  and  C_18
REMARK                            x       y       z     vdW  Elec       q    Type
REMARK                         _______ _______ _______ _____ _____    ______ ____
ROOT
ATOM      1  C   UNL     1      -0.039  10.893  20.151  0.00  0.00    +0.000 A 
ATOM      2  C   UNL     1       0.461  12.117  20.622  0.00  0.00    +0.000 A 
ATOM      3  C   UNL     1       0.075  13.333  20.023  0.00  0.00    +0.000 A 
ATOM      4  C   UNL     1      -0.772  13.288  18.902  0.00  0.00    +0.000 A 
ATOM      5  C   UNL     1      -1.250  12.083  18.433  0.00  0.00    +0.000 A 
ATOM      6  F   UNL     1      -2.062  12.028  17.371  0.00  0.00    +0.000 F 
ATOM      7  C   UNL     1      -0.943  10.913  19.092  0.00  0.00    +0.000 A 
ATOM      8  F   UNL     1      -1.592   9.820  18.670  0.00  0.00    +0.000 F 
ENDROOT
BRANCH   1  13
ATOM      9  N   UNL     1       2.446   6.738  18.692  0.00  0.00    +0.000 N 
ATOM     10  C   UNL     1       1.631   6.356  19.864  0.00  0.00    +0.000 C 
ATOM     11  C   UNL     1       1.630   7.511  20.892  0.00  0.00    +0.000 C 
ATOM     12  N   UNL     1       1.297   8.797  20.270  0.00  0.00    +0.000 N 
ATOM     13  C   UNL     1       0.331   9.622  20.827  0.00  0.00    +0.000 C 
ATOM     14  O   UNL     1      -0.250   9.355  21.886  0.00  0.00    +0.000 OA
ATOM     15  C   UNL     1       2.142   9.088  19.090  0.00  0.00    +0.000 C 
ATOM     16  C   UNL     1       1.998   7.967  18.044  0.00  0.00    +0.000 C 
BRANCH   9  21
ATOM     17  C   UNL     1       5.112   5.259  16.794  0.00  0.00    +0.000 A 
ATOM     18  C   UNL     1       4.686   3.948  16.604  0.00  0.00    +0.000 A 
ATOM     19  C   UNL     1       3.461   3.587  17.122  0.00  0.00    +0.000 A 
ATOM     20  C   UNL     1       2.722   4.538  17.807  0.00  0.00    +0.000 A 
ATOM     21  C   UNL     1       3.189   5.840  17.961  0.00  0.00    +0.000 A 
ATOM     22  N   UNL     1       4.388   6.192  17.456  0.00  0.00    +0.000 NA
BRANCH  17  24
ATOM     23  N   UNL     1       7.471   6.045  16.007  0.00  0.00    +0.000 NA
ATOM     24  C   UNL     1       6.389   5.673  16.310  0.00  0.00    +0.000 C 
ENDBRANCH  17  24
ENDBRANCH   9  21
ENDBRANCH   1  13
BRANCH   3  25
ATOM     25  C   UNL     1       0.541  14.650  20.611  0.00  0.00    +0.000 C 
BRANCH  25  26
ATOM     26  C   UNL     1       2.039  14.710  20.885  0.00  0.00    +0.000 A 
ATOM     27  N   UNL     1       2.410  14.613  22.130  0.00  0.00    +0.000 NA
ATOM     28  N   UNL     1       3.727  14.787  22.431  0.00  0.00    +0.000 N 
ATOM     29  C   UNL     1       4.711  15.161  21.549  0.00  0.00    +0.000 A 
ATOM     30  O   UNL     1       5.847  15.449  21.912  0.00  0.00    +0.000 OA
ATOM     31  C   UNL     1       4.330  15.175  20.128  0.00  0.00    +0.000 A 
ATOM     32  C   UNL     1       5.301  15.411  19.147  0.00  0.00    +0.000 A 
ATOM     33  C   UNL     1       4.951  15.348  17.798  0.00  0.00    +0.000 A 
ATOM     34  C   UNL     1       3.638  15.056  17.436  0.00  0.00    +0.000 A 
ATOM     35  C   UNL     1       2.666  14.841  18.418  0.00  0.00    +0.000 A 
ATOM     36  C   UNL     1       3.007  14.912  19.774  0.00  0.00    +0.000 A 
ATOM     37  H   UNL     1       3.970  14.782  23.417  0.00  0.00    +0.000 HD
ENDBRANCH  25  26
ENDBRANCH   3  25
TORSDOF 5
ENDMDL
