MODEL 1
REMARK VINA RESULT:      -7.9      0.000      0.000
REMARK  Name = 
REMARK  9 active torsions:
REMARK  status: ('A' for Active; 'I' for Inactive)
REMARK    1  A    between atoms: C_1  and  C_2
REMARK    2  A    between atoms: C_5  and  S_6
REMARK    3  A    between atoms: S_6  and  N_9
REMARK    4  A    between atoms: C_10  and  O_11
REMARK    5  A    between atoms: C_10  and  C_18
REMARK    6  A    between atoms: O_11  and  C_12
REMARK    7  A    between atoms: C_12  and  C_13
REMARK    8  A    between atoms: N_15  and  C_16
REMARK    9  A    between atoms: N_15  and  C_17
REMARK                            x       y       z     vdW  Elec       q    Type
REMARK                         _______ _______ _______ _____ _____    ______ ____
ROOT
ATOM      1  N   UNL     1       4.160   6.167  18.413  0.00  0.00    +0.000 NA
ATOM      2  C   UNL     1       3.219   6.337  19.284  0.00  0.00    +0.000 C 
ENDROOT
BRANCH   2   3
ATOM      3  C   UNL     1       2.323   7.531  19.205  0.00  0.00    +0.000 A 
ATOM      4  C   UNL     1       2.071   8.203  18.002  0.00  0.00    +0.000 A 
ATOM      5  C   UNL     1       1.241   9.329  17.983  0.00  0.00    +0.000 A 
ATOM      6  C   UNL     1       0.690   9.814  19.167  0.00  0.00    +0.000 A 
ATOM      7  C   UNL     1       0.962   9.173  20.373  0.00  0.00    +0.000 A 
ATOM      8  C   UNL     1       1.772   8.033  20.393  0.00  0.00    +0.000 A 
ENDBRANCH   2   3
BRANCH   1   9
ATOM      9  S   UNL     1       5.113   4.862  18.533  0.00  0.00    +0.000 S 
ATOM     10  O   UNL     1       4.313   3.686  18.818  0.00  0.00    +0.000 OA
ATOM     11  O   UNL     1       6.254   5.187  19.371  0.00  0.00    +0.000 OA
BRANCH   9  16
ATOM     12  C   UNL     1       7.206   4.393  12.822  0.00  0.00    +0.000 C 
ATOM     13  C   UNL     1       6.697   4.467  14.230  0.00  0.00    +0.000 A 
ATOM     14  C   UNL     1       5.400   4.042  14.554  0.00  0.00    +0.000 A 
ATOM     15  C   UNL     1       4.925   4.129  15.869  0.00  0.00    +0.000 A 
ATOM     16  C   UNL     1       5.756   4.638  16.872  0.00  0.00    +0.000 A 
ATOM     17  C   UNL     1       7.050   5.073  16.563  0.00  0.00    +0.000 A 
ATOM     18  C   UNL     1       7.516   4.983  15.246  0.00  0.00    +0.000 A 
ENDBRANCH   9  16
ENDBRANCH   1   9
BRANCH   2  19
ATOM     19  O   UNL     1       2.963   5.423  20.245  0.00  0.00    +0.000 OA
BRANCH  19  20
ATOM     20  C   UNL     1       1.628   5.105  20.680  0.00  0.00    +0.000 C 
BRANCH  20  21
ATOM     21  C   UNL     1       1.316   3.634  20.376  0.00  0.00    +0.000 C 
ATOM     22  O   UNL     1       1.253   2.827  21.308  0.00  0.00    +0.000 OA
ATOM     23  N   UNL     1       1.121   3.255  19.052  0.00  0.00    +0.000 N 
ATOM     24  C   UNL     1       1.144   4.158  17.909  0.00  0.00    +0.000 C 
ATOM     25  C   UNL     1       0.795   1.869  18.749  0.00  0.00    +0.000 C 
ENDBRANCH  20  21
ENDBRANCH  19  20
ENDBRANCH   2  19
TORSDOF 6
ENDMDL
MODEL 2
REMARK VINA RESULT:      -7.8      1.612      6.175
REMARK  Name = 
REMARK  9 active torsions:
REMARK  status: ('A' for Active; 'I' for Inactive)
REMARK    1  A    between atoms: C_1  and  C_2
REMARK    2  A    between atoms: C_5  and  S_6
REMARK    3  A    between atoms: S_6  and  N_9
REMARK    4  A    between atoms: C_10  and  O_11
REMARK    5  A    between atoms: C_10  and  C_18
REMARK    6  A    between atoms: O_11  and  C_12
REMARK    7  A    between atoms: C_12  and  C_13
REMARK    8  A    between atoms: N_15  and  C_16
REMARK    9  A    between atoms: N_15  and  C_17
REMARK                            x       y       z     vdW  Elec       q    Type
REMARK                         _______ _______ _______ _____ _____    ______ ____
ROOT
ATOM      1  N   UNL     1       3.861   5.937  17.829  0.00  0.00    +0.000 NA
ATOM      2  C   UNL     1       4.070   4.858  17.146  0.00  0.00    +0.000 C 
ENDROOT
BRANCH   2   3
ATOM      3  C   UNL     1       5.208   4.784  16.181  0.00  0.00    +0.000 A 
ATOM      4  C   UNL     1       6.495   5.237  16.500  0.00  0.00    +0.000 A 
ATOM      5  C   UNL     1       7.523   5.165  15.555  0.00  0.00    +0.000 A 
ATOM      6  C   UNL     1       7.267   4.678  14.275  0.00  0.00    +0.000 A 
ATOM      7  C   UNL     1       5.983   4.257  13.937  0.00  0.00    +0.000 A 
ATOM      8  C   UNL     1       4.957   4.305  14.887  0.00  0.00    +0.000 A 
ENDBRANCH   2   3
BRANCH   1   9
ATOM      9  S   UNL     1       2.614   5.981  18.863  0.00  0.00    +0.000 S 
ATOM     10  O   UNL     1       3.064   5.639  20.200  0.00  0.00    +0.000 OA
ATOM     11  O   UNL     1       1.487   5.280  18.274  0.00  0.00    +0.000 OA
BRANCH   9  16
ATOM     12  C   UNL     1       0.768  11.795  18.950  0.00  0.00    +0.000 C 
ATOM     13  C   UNL     1       1.261  10.379  18.935  0.00  0.00    +0.000 A 
ATOM     14  C   UNL     1       1.907   9.850  17.807  0.00  0.00    +0.000 A 
ATOM     15  C   UNL     1       2.351   8.522  17.793  0.00  0.00    +0.000 A 
ATOM     16  C   UNL     1       2.156   7.715  18.919  0.00  0.00    +0.000 A 
ATOM     17  C   UNL     1       1.506   8.227  20.048  0.00  0.00    +0.000 A 
ATOM     18  C   UNL     1       1.066   9.555  20.053  0.00  0.00    +0.000 A 
ENDBRANCH   9  16
ENDBRANCH   1   9
BRANCH   2  19
ATOM     19  O   UNL     1       3.323   3.746  17.324  0.00  0.00    +0.000 OA
BRANCH  19  20
ATOM     20  C   UNL     1       3.870   2.517  17.837  0.00  0.00    +0.000 C 
BRANCH  20  21
ATOM     21  C   UNL     1       3.891   2.556  19.370  0.00  0.00    +0.000 C 
ATOM     22  O   UNL     1       4.963   2.748  19.953  0.00  0.00    +0.000 OA
ATOM     23  N   UNL     1       2.698   2.365  20.059  0.00  0.00    +0.000 N 
ATOM     24  C   UNL     1       1.394   2.170  19.437  0.00  0.00    +0.000 C 
ATOM     25  C   UNL     1       2.695   2.429  21.512  0.00  0.00    +0.000 C 
ENDBRANCH  20  21
ENDBRANCH  19  20
ENDBRANCH   2  19
TORSDOF 6
ENDMDL
MODEL 3
REMARK VINA RESULT:      -7.8      1.728      4.194
REMARK  Name = 
REMARK  9 active torsions:
REMARK  status: ('A' for Active; 'I' for Inactive)
REMARK    1  A    between atoms: C_1  and  C_2
REMARK    2  A    between atoms: C_5  and  S_6
REMARK    3  A    between atoms: S_6  and  N_9
REMARK    4  A    between atoms: C_10  and  O_11
REMARK    5  A    between atoms: C_10  and  C_18
REMARK    6  A    between atoms: O_11  and  C_12
REMARK    7  A    between atoms: C_12  and  C_13
REMARK    8  A    between atoms: N_15  and  C_16
REMARK    9  A    between atoms: N_15  and  C_17
REMARK                            x       y       z     vdW  Elec       q    Type
REMARK                         _______ _______ _______ _____ _____    ______ ____
ROOT
ATOM      1  N   UNL     1       5.181   4.229  18.634  0.00  0.00    +0.000 NA
ATOM      2  C   UNL     1       4.096   4.852  18.964  0.00  0.00    +0.000 C 
ENDROOT
BRANCH   2   3
ATOM      3  C   UNL     1       2.938   4.100  19.535  0.00  0.00    +0.000 A 
ATOM      4  C   UNL     1       2.734   3.965  20.914  0.00  0.00    +0.000 A 
ATOM      5  C   UNL     1       1.646   3.233  21.399  0.00  0.00    +0.000 A 
ATOM      6  C   UNL     1       0.777   2.598  20.514  0.00  0.00    +0.000 A 
ATOM      7  C   UNL     1       0.990   2.699  19.141  0.00  0.00    +0.000 A 
ATOM      8  C   UNL     1       2.064   3.449  18.651  0.00  0.00    +0.000 A 
ENDBRANCH   2   3
BRANCH   1   9
ATOM      9  S   UNL     1       6.415   5.078  18.016  0.00  0.00    +0.000 S 
ATOM     10  O   UNL     1       7.677   4.536  18.485  0.00  0.00    +0.000 OA
ATOM     11  O   UNL     1       6.133   6.495  18.163  0.00  0.00    +0.000 OA
BRANCH   9  16
ATOM     12  C   UNL     1       6.324   3.622  12.093  0.00  0.00    +0.000 C 
ATOM     13  C   UNL     1       6.335   4.019  13.538  0.00  0.00    +0.000 A 
ATOM     14  C   UNL     1       7.384   4.784  14.071  0.00  0.00    +0.000 A 
ATOM     15  C   UNL     1       7.395   5.137  15.427  0.00  0.00    +0.000 A 
ATOM     16  C   UNL     1       6.346   4.730  16.257  0.00  0.00    +0.000 A 
ATOM     17  C   UNL     1       5.297   3.961  15.741  0.00  0.00    +0.000 A 
ATOM     18  C   UNL     1       5.293   3.611  14.386  0.00  0.00    +0.000 A 
ENDBRANCH   9  16
ENDBRANCH   1   9
BRANCH   2  19
ATOM     19  O   UNL     1       3.991   6.196  18.877  0.00  0.00    +0.000 OA
BRANCH  19  20
ATOM     20  C   UNL     1       2.854   6.849  18.282  0.00  0.00    +0.000 C 
BRANCH  20  21
ATOM     21  C   UNL     1       2.097   7.651  19.348  0.00  0.00    +0.000 C 
ATOM     22  O   UNL     1       1.914   7.150  20.462  0.00  0.00    +0.000 OA
ATOM     23  N   UNL     1       1.631   8.920  19.021  0.00  0.00    +0.000 N 
ATOM     24  C   UNL     1       1.841   9.587  17.742  0.00  0.00    +0.000 C 
ATOM     25  C   UNL     1       0.937   9.706  20.030  0.00  0.00    +0.000 C 
ENDBRANCH  20  21
ENDBRANCH  19  20
ENDBRANCH   2  19
TORSDOF 6
ENDMDL
MODEL 4
REMARK VINA RESULT:      -7.8      1.000      1.382
REMARK  Name = 
REMARK  9 active torsions:
REMARK  status: ('A' for Active; 'I' for Inactive)
REMARK    1  A    between atoms: C_1  and  C_2
REMARK    2  A    between atoms: C_5  and  S_6
REMARK    3  A    between atoms: S_6  and  N_9
REMARK    4  A    between atoms: C_10  and  O_11
REMARK    5  A    between atoms: C_10  and  C_18
REMARK    6  A    between atoms: O_11  and  C_12
REMARK    7  A    between atoms: C_12  and  C_13
REMARK    8  A    between atoms: N_15  and  C_16
REMARK    9  A    between atoms: N_15  and  C_17
REMARK                            x       y       z     vdW  Elec       q    Type
REMARK                         _______ _______ _______ _____ _____    ______ ____
ROOT
ATOM      1  N   UNL     1       4.702   5.979  18.789  0.00  0.00    +0.000 NA
ATOM      2  C   UNL     1       3.432   5.967  18.539  0.00  0.00    +0.000 C 
ENDROOT
BRANCH   2   3
ATOM      3  C   UNL     1       2.633   7.226  18.632  0.00  0.00    +0.000 A 
ATOM      4  C   UNL     1       2.473   8.097  17.548  0.00  0.00    +0.000 A 
ATOM      5  C   UNL     1       1.732   9.275  17.691  0.00  0.00    +0.000 A 
ATOM      6  C   UNL     1       1.181   9.611  18.926  0.00  0.00    +0.000 A 
ATOM      7  C   UNL     1       1.363   8.768  20.019  0.00  0.00    +0.000 A 
ATOM      8  C   UNL     1       2.083   7.578  19.874  0.00  0.00    +0.000 A 
ENDBRANCH   2   3
BRANCH   1   9
ATOM      9  S   UNL     1       5.534   4.593  18.680  0.00  0.00    +0.000 S 
ATOM     10  O   UNL     1       4.662   3.465  18.948  0.00  0.00    +0.000 OA
ATOM     11  O   UNL     1       6.784   4.734  19.408  0.00  0.00    +0.000 OA
BRANCH   9  16
ATOM     12  C   UNL     1       6.900   4.509  12.735  0.00  0.00    +0.000 C 
ATOM     13  C   UNL     1       6.574   4.489  14.198  0.00  0.00    +0.000 A 
ATOM     14  C   UNL     1       5.371   3.936  14.664  0.00  0.00    +0.000 A 
ATOM     15  C   UNL     1       5.066   3.935  16.031  0.00  0.00    +0.000 A 
ATOM     16  C   UNL     1       5.973   4.484  16.943  0.00  0.00    +0.000 A 
ATOM     17  C   UNL     1       7.174   5.045  16.492  0.00  0.00    +0.000 A 
ATOM     18  C   UNL     1       7.471   5.042  15.125  0.00  0.00    +0.000 A 
ENDBRANCH   9  16
ENDBRANCH   1   9
BRANCH   2  19
ATOM     19  O   UNL     1       2.798   4.850  18.120  0.00  0.00    +0.000 OA
BRANCH  19  20
ATOM     20  C   UNL     1       1.435   4.551  18.474  0.00  0.00    +0.000 C 
BRANCH  20  21
ATOM     21  C   UNL     1       1.388   3.289  19.344  0.00  0.00    +0.000 C 
ATOM     22  O   UNL     1       1.067   2.213  18.829  0.00  0.00    +0.000 OA
ATOM     23  N   UNL     1       1.701   3.399  20.695  0.00  0.00    +0.000 N 
ATOM     24  C   UNL     1       2.121   4.625  21.361  0.00  0.00    +0.000 C 
ATOM     25  C   UNL     1       1.690   2.206  21.528  0.00  0.00    +0.000 C 
ENDBRANCH  20  21
ENDBRANCH  19  20
ENDBRANCH   2  19
TORSDOF 6
ENDMDL
MODEL 5
REMARK VINA RESULT:      -7.7      1.735      4.409
REMARK  Name = 
REMARK  9 active torsions:
REMARK  status: ('A' for Active; 'I' for Inactive)
REMARK    1  A    between atoms: C_1  and  C_2
REMARK    2  A    between atoms: C_5  and  S_6
REMARK    3  A    between atoms: S_6  and  N_9
REMARK    4  A    between atoms: C_10  and  O_11
REMARK    5  A    between atoms: C_10  and  C_18
REMARK    6  A    between atoms: O_11  and  C_12
REMARK    7  A    between atoms: C_12  and  C_13
REMARK    8  A    between atoms: N_15  and  C_16
REMARK    9  A    between atoms: N_15  and  C_17
REMARK                            x       y       z     vdW  Elec       q    Type
REMARK                         _______ _______ _______ _____ _____    ______ ____
ROOT
ATOM      1  N   UNL     1       4.989   4.358  18.521  0.00  0.00    +0.000 NA
ATOM      2  C   UNL     1       3.862   4.931  18.794  0.00  0.00    +0.000 C 
ENDROOT
BRANCH   2   3
ATOM      3  C   UNL     1       2.722   4.134  19.339  0.00  0.00    +0.000 A 
ATOM      4  C   UNL     1       2.509   3.969  20.714  0.00  0.00    +0.000 A 
ATOM      5  C   UNL     1       1.439   3.195  21.175  0.00  0.00    +0.000 A 
ATOM      6  C   UNL     1       0.599   2.549  20.270  0.00  0.00    +0.000 A 
ATOM      7  C   UNL     1       0.823   2.680  18.902  0.00  0.00    +0.000 A 
ATOM      8  C   UNL     1       1.877   3.471  18.436  0.00  0.00    +0.000 A 
ENDBRANCH   2   3
BRANCH   1   9
ATOM      9  S   UNL     1       6.201   5.255  17.928  0.00  0.00    +0.000 S 
ATOM     10  O   UNL     1       7.468   4.804  18.473  0.00  0.00    +0.000 OA
ATOM     11  O   UNL     1       5.833   6.658  18.009  0.00  0.00    +0.000 OA
BRANCH   9  16
ATOM     12  C   UNL     1       6.449   3.582  12.066  0.00  0.00    +0.000 C 
ATOM     13  C   UNL     1       6.378   4.032  13.494  0.00  0.00    +0.000 A 
ATOM     14  C   UNL     1       7.408   4.796  14.065  0.00  0.00    +0.000 A 
ATOM     15  C   UNL     1       7.342   5.199  15.405  0.00  0.00    +0.000 A 
ATOM     16  C   UNL     1       6.234   4.843  16.181  0.00  0.00    +0.000 A 
ATOM     17  C   UNL     1       5.203   4.076  15.628  0.00  0.00    +0.000 A 
ATOM     18  C   UNL     1       5.277   3.676  14.288  0.00  0.00    +0.000 A 
ENDBRANCH   9  16
ENDBRANCH   1   9
BRANCH   2  19
ATOM     19  O   UNL     1       3.691   6.266  18.669  0.00  0.00    +0.000 OA
BRANCH  19  20
ATOM     20  C   UNL     1       2.564   6.962  19.230  0.00  0.00    +0.000 C 
BRANCH  20  21
ATOM     21  C   UNL     1       2.279   8.233  18.421  0.00  0.00    +0.000 C 
ATOM     22  O   UNL     1       2.733   8.333  17.277  0.00  0.00    +0.000 OA
ATOM     23  N   UNL     1       1.522   9.242  19.008  0.00  0.00    +0.000 N 
ATOM     24  C   UNL     1       0.926   9.177  20.337  0.00  0.00    +0.000 C 
ATOM     25  C   UNL     1       1.218  10.441  18.243  0.00  0.00    +0.000 C 
ENDBRANCH  20  21
ENDBRANCH  19  20
ENDBRANCH   2  19
TORSDOF 6
ENDMDL
MODEL 6
REMARK VINA RESULT:      -7.7      2.154      4.569
REMARK  Name = 
REMARK  9 active torsions:
REMARK  status: ('A' for Active; 'I' for Inactive)
REMARK    1  A    between atoms: C_1  and  C_2
REMARK    2  A    between atoms: C_5  and  S_6
REMARK    3  A    between atoms: S_6  and  N_9
REMARK    4  A    between atoms: C_10  and  O_11
REMARK    5  A    between atoms: C_10  and  C_18
REMARK    6  A    between atoms: O_11  and  C_12
REMARK    7  A    between atoms: C_12  and  C_13
REMARK    8  A    between atoms: N_15  and  C_16
REMARK    9  A    between atoms: N_15  and  C_17
REMARK                            x       y       z     vdW  Elec       q    Type
REMARK                         _______ _______ _______ _____ _____    ______ ____
ROOT
ATOM      1  N   UNL     1       4.636   4.771  16.776  0.00  0.00    +0.000 NA
ATOM      2  C   UNL     1       3.850   5.210  17.706  0.00  0.00    +0.000 C 
ENDROOT
BRANCH   2   3
ATOM      3  C   UNL     1       2.942   4.271  18.432  0.00  0.00    +0.000 A 
ATOM      4  C   UNL     1       1.694   3.889  17.924  0.00  0.00    +0.000 A 
ATOM      5  C   UNL     1       0.871   3.023  18.652  0.00  0.00    +0.000 A 
ATOM      6  C   UNL     1       1.268   2.566  19.907  0.00  0.00    +0.000 A 
ATOM      7  C   UNL     1       2.493   2.968  20.435  0.00  0.00    +0.000 A 
ATOM      8  C   UNL     1       3.329   3.814  19.701  0.00  0.00    +0.000 A 
ENDBRANCH   2   3
BRANCH   1   9
ATOM      9  S   UNL     1       5.605   5.819  16.009  0.00  0.00    +0.000 S 
ATOM     10  O   UNL     1       6.840   5.991  16.752  0.00  0.00    +0.000 OA
ATOM     11  O   UNL     1       4.825   6.979  15.614  0.00  0.00    +0.000 OA
BRANCH   9  16
ATOM     12  C   UNL     1       7.238   2.705  11.024  0.00  0.00    +0.000 C 
ATOM     13  C   UNL     1       6.828   3.503  12.225  0.00  0.00    +0.000 A 
ATOM     14  C   UNL     1       7.677   4.478  12.769  0.00  0.00    +0.000 A 
ATOM     15  C   UNL     1       7.295   5.209  13.902  0.00  0.00    +0.000 A 
ATOM     16  C   UNL     1       6.049   4.971  14.491  0.00  0.00    +0.000 A 
ATOM     17  C   UNL     1       5.195   3.996  13.963  0.00  0.00    +0.000 A 
ATOM     18  C   UNL     1       5.585   3.270  12.832  0.00  0.00    +0.000 A 
ENDBRANCH   9  16
ENDBRANCH   1   9
BRANCH   2  19
ATOM     19  O   UNL     1       3.868   6.501  18.104  0.00  0.00    +0.000 OA
BRANCH  19  20
ATOM     20  C   UNL     1       2.899   7.045  19.019  0.00  0.00    +0.000 C 
BRANCH  20  21
ATOM     21  C   UNL     1       2.232   8.279  18.399  0.00  0.00    +0.000 C 
ATOM     22  O   UNL     1       2.439   8.543  17.210  0.00  0.00    +0.000 OA
ATOM     23  N   UNL     1       1.416   9.070  19.202  0.00  0.00    +0.000 N 
ATOM     24  C   UNL     1       1.099   8.799  20.599  0.00  0.00    +0.000 C 
ATOM     25  C   UNL     1       0.751  10.226  18.622  0.00  0.00    +0.000 C 
ENDBRANCH  20  21
ENDBRANCH  19  20
ENDBRANCH   2  19
TORSDOF 6
ENDMDL
MODEL 7
REMARK VINA RESULT:      -7.7      1.039      1.852
REMARK  Name = 
REMARK  9 active torsions:
REMARK  status: ('A' for Active; 'I' for Inactive)
REMARK    1  A    between atoms: C_1  and  C_2
REMARK    2  A    between atoms: C_5  and  S_6
REMARK    3  A    between atoms: S_6  and  N_9
REMARK    4  A    between atoms: C_10  and  O_11
REMARK    5  A    between atoms: C_10  and  C_18
REMARK    6  A    between atoms: O_11  and  C_12
REMARK    7  A    between atoms: C_12  and  C_13
REMARK    8  A    between atoms: N_15  and  C_16
REMARK    9  A    between atoms: N_15  and  C_17
REMARK                            x       y       z     vdW  Elec       q    Type
REMARK                         _______ _______ _______ _____ _____    ______ ____
ROOT
ATOM      1  N   UNL     1       4.890   6.245  19.021  0.00  0.00    +0.000 NA
ATOM      2  C   UNL     1       3.659   6.173  18.628  0.00  0.00    +0.000 C 
ENDROOT
BRANCH   2   3
ATOM      3  C   UNL     1       2.756   7.357  18.755  0.00  0.00    +0.000 A 
ATOM      4  C   UNL     1       2.169   7.727  19.972  0.00  0.00    +0.000 A 
ATOM      5  C   UNL     1       1.313   8.831  20.036  0.00  0.00    +0.000 A 
ATOM      6  C   UNL     1       1.006   9.549  18.882  0.00  0.00    +0.000 A 
ATOM      7  C   UNL     1       1.558   9.168  17.661  0.00  0.00    +0.000 A 
ATOM      8  C   UNL     1       2.433   8.078  17.597  0.00  0.00    +0.000 A 
ENDBRANCH   2   3
BRANCH   1   9
ATOM      9  S   UNL     1       5.839   4.940  18.869  0.00  0.00    +0.000 S 
ATOM     10  O   UNL     1       5.163   3.769  19.396  0.00  0.00    +0.000 OA
ATOM     11  O   UNL     1       7.177   5.274  19.324  0.00  0.00    +0.000 OA
BRANCH   9  16
ATOM     12  C   UNL     1       6.493   3.915  12.891  0.00  0.00    +0.000 C 
ATOM     13  C   UNL     1       6.304   4.197  14.351  0.00  0.00    +0.000 A 
ATOM     14  C   UNL     1       6.892   5.320  14.953  0.00  0.00    +0.000 A 
ATOM     15  C   UNL     1       6.725   5.569  16.321  0.00  0.00    +0.000 A 
ATOM     16  C   UNL     1       5.957   4.692  17.095  0.00  0.00    +0.000 A 
ATOM     17  C   UNL     1       5.371   3.564  16.510  0.00  0.00    +0.000 A 
ATOM     18  C   UNL     1       5.544   3.323  15.142  0.00  0.00    +0.000 A 
ENDBRANCH   9  16
ENDBRANCH   1   9
BRANCH   2  19
ATOM     19  O   UNL     1       3.165   5.068  18.029  0.00  0.00    +0.000 OA
BRANCH  19  20
ATOM     20  C   UNL     1       1.817   4.608  18.236  0.00  0.00    +0.000 C 
BRANCH  20  21
ATOM     21  C   UNL     1       1.671   4.039  19.652  0.00  0.00    +0.000 C 
ATOM     22  O   UNL     1       1.236   4.765  20.551  0.00  0.00    +0.000 OA
ATOM     23  N   UNL     1       2.043   2.718  19.881  0.00  0.00    +0.000 N 
ATOM     24  C   UNL     1       2.528   1.795  18.863  0.00  0.00    +0.000 C 
ATOM     25  C   UNL     1       1.883   2.154  21.213  0.00  0.00    +0.000 C 
ENDBRANCH  20  21
ENDBRANCH  19  20
ENDBRANCH   2  19
TORSDOF 6
ENDMDL
MODEL 8
REMARK VINA RESULT:      -7.7      1.736      3.970
REMARK  Name = 
REMARK  9 active torsions:
REMARK  status: ('A' for Active; 'I' for Inactive)
REMARK    1  A    between atoms: C_1  and  C_2
REMARK    2  A    between atoms: C_5  and  S_6
REMARK    3  A    between atoms: S_6  and  N_9
REMARK    4  A    between atoms: C_10  and  O_11
REMARK    5  A    between atoms: C_10  and  C_18
REMARK    6  A    between atoms: O_11  and  C_12
REMARK    7  A    between atoms: C_12  and  C_13
REMARK    8  A    between atoms: N_15  and  C_16
REMARK    9  A    between atoms: N_15  and  C_17
REMARK                            x       y       z     vdW  Elec       q    Type
REMARK                         _______ _______ _______ _____ _____    ______ ____
ROOT
ATOM      1  N   UNL     1       5.231   4.268  18.677  0.00  0.00    +0.000 NA
ATOM      2  C   UNL     1       4.121   4.864  18.971  0.00  0.00    +0.000 C 
ENDROOT
BRANCH   2   3
ATOM      3  C   UNL     1       2.986   4.094  19.565  0.00  0.00    +0.000 A 
ATOM      4  C   UNL     1       1.994   3.492  18.781  0.00  0.00    +0.000 A 
ATOM      5  C   UNL     1       0.940   2.799  19.385  0.00  0.00    +0.000 A 
ATOM      6  C   UNL     1       0.847   2.736  20.775  0.00  0.00    +0.000 A 
ATOM      7  C   UNL     1       1.810   3.361  21.563  0.00  0.00    +0.000 A 
ATOM      8  C   UNL     1       2.878   4.035  20.962  0.00  0.00    +0.000 A 
ENDBRANCH   2   3
BRANCH   1   9
ATOM      9  S   UNL     1       6.438   5.136  18.032  0.00  0.00    +0.000 S 
ATOM     10  O   UNL     1       7.709   4.714  18.590  0.00  0.00    +0.000 OA
ATOM     11  O   UNL     1       6.069   6.541  18.044  0.00  0.00    +0.000 OA
BRANCH   9  16
ATOM     12  C   UNL     1       6.336   3.691  12.105  0.00  0.00    +0.000 C 
ATOM     13  C   UNL     1       6.377   4.008  13.570  0.00  0.00    +0.000 A 
ATOM     14  C   UNL     1       5.428   3.473  14.453  0.00  0.00    +0.000 A 
ATOM     15  C   UNL     1       5.462   3.786  15.818  0.00  0.00    +0.000 A 
ATOM     16  C   UNL     1       6.460   4.636  16.307  0.00  0.00    +0.000 A 
ATOM     17  C   UNL     1       7.409   5.184  15.437  0.00  0.00    +0.000 A 
ATOM     18  C   UNL     1       7.366   4.866  14.075  0.00  0.00    +0.000 A 
ENDBRANCH   9  16
ENDBRANCH   1   9
BRANCH   2  19
ATOM     19  O   UNL     1       3.966   6.198  18.824  0.00  0.00    +0.000 OA
BRANCH  19  20
ATOM     20  C   UNL     1       2.770   6.786  18.279  0.00  0.00    +0.000 C 
BRANCH  20  21
ATOM     21  C   UNL     1       2.054   7.606  19.360  0.00  0.00    +0.000 C 
ATOM     22  O   UNL     1       1.871   7.105  20.473  0.00  0.00    +0.000 OA
ATOM     23  N   UNL     1       1.624   8.891  19.045  0.00  0.00    +0.000 N 
ATOM     24  C   UNL     1       1.838   9.557  17.767  0.00  0.00    +0.000 C 
ATOM     25  C   UNL     1       0.969   9.693  20.068  0.00  0.00    +0.000 C 
ENDBRANCH  20  21
ENDBRANCH  19  20
ENDBRANCH   2  19
TORSDOF 6
ENDMDL
MODEL 9
REMARK VINA RESULT:      -7.7      1.962      4.453
REMARK  Name = 
REMARK  9 active torsions:
REMARK  status: ('A' for Active; 'I' for Inactive)
REMARK    1  A    between atoms: C_1  and  C_2
REMARK    2  A    between atoms: C_5  and  S_6
REMARK    3  A    between atoms: S_6  and  N_9
REMARK    4  A    between atoms: C_10  and  O_11
REMARK    5  A    between atoms: C_10  and  C_18
REMARK    6  A    between atoms: O_11  and  C_12
REMARK    7  A    between atoms: C_12  and  C_13
REMARK    8  A    between atoms: N_15  and  C_16
REMARK    9  A    between atoms: N_15  and  C_17
REMARK                            x       y       z     vdW  Elec       q    Type
REMARK                         _______ _______ _______ _____ _____    ______ ____
ROOT
ATOM      1  N   UNL     1       4.479   5.089  17.742  0.00  0.00    +0.000 NA
ATOM      2  C   UNL     1       3.528   5.564  18.479  0.00  0.00    +0.000 C 
ENDROOT
BRANCH   2   3
ATOM      3  C   UNL     1       2.637   4.644  19.248  0.00  0.00    +0.000 A 
ATOM      4  C   UNL     1       2.740   4.484  20.636  0.00  0.00    +0.000 A 
ATOM      5  C   UNL     1       1.896   3.594  21.308  0.00  0.00    +0.000 A 
ATOM      6  C   UNL     1       0.973   2.829  20.597  0.00  0.00    +0.000 A 
ATOM      7  C   UNL     1       0.887   2.956  19.213  0.00  0.00    +0.000 A 
ATOM      8  C   UNL     1       1.712   3.863  18.540  0.00  0.00    +0.000 A 
ENDBRANCH   2   3
BRANCH   1   9
ATOM      9  S   UNL     1       5.423   6.118  16.920  0.00  0.00    +0.000 S 
ATOM     10  O   UNL     1       6.650   6.364  17.654  0.00  0.00    +0.000 OA
ATOM     11  O   UNL     1       4.615   7.234  16.459  0.00  0.00    +0.000 OA
BRANCH   9  16
ATOM     12  C   UNL     1       6.931   3.239  11.757  0.00  0.00    +0.000 C 
ATOM     13  C   UNL     1       6.566   3.911  13.046  0.00  0.00    +0.000 A 
ATOM     14  C   UNL     1       5.304   3.719  13.631  0.00  0.00    +0.000 A 
ATOM     15  C   UNL     1       4.964   4.363  14.827  0.00  0.00    +0.000 A 
ATOM     16  C   UNL     1       5.895   5.199  15.452  0.00  0.00    +0.000 A 
ATOM     17  C   UNL     1       7.154   5.406  14.877  0.00  0.00    +0.000 A 
ATOM     18  C   UNL     1       7.486   4.759  13.681  0.00  0.00    +0.000 A 
ENDBRANCH   9  16
ENDBRANCH   1   9
BRANCH   2  19
ATOM     19  O   UNL     1       3.346   6.894  18.639  0.00  0.00    +0.000 OA
BRANCH  19  20
ATOM     20  C   UNL     1       2.175   7.448  19.265  0.00  0.00    +0.000 C 
BRANCH  20  21
ATOM     21  C   UNL     1       1.814   8.785  18.606  0.00  0.00    +0.000 C 
ATOM     22  O   UNL     1       2.141   8.986  17.432  0.00  0.00    +0.000 OA
ATOM     23  N   UNL     1       1.133   9.737  19.358  0.00  0.00    +0.000 N 
ATOM     24  C   UNL     1       0.684   9.554  20.733  0.00  0.00    +0.000 C 
ATOM     25  C   UNL     1       0.756  10.998  18.739  0.00  0.00    +0.000 C 
ENDBRANCH  20  21
ENDBRANCH  19  20
ENDBRANCH   2  19
TORSDOF 6
ENDMDL
