MODEL 1
REMARK VINA RESULT:      -9.0      0.000      0.000
REMARK  Name = 
REMARK  8 active torsions:
REMARK  status: ('A' for Active; 'I' for Inactive)
REMARK    1  A    between atoms: C_1  and  C_2
REMARK    2  A    between atoms: C_5  and  C_6
REMARK    3  A    between atoms: C_6  and  C_8
REMARK    4  A    between atoms: C_8  and  O_9
REMARK    5  A    between atoms: C_8  and  C_24
REMARK    6  A    between atoms: O_9  and  C_10
REMARK    7  A    between atoms: C_10  and  C_12
REMARK    8  A    between atoms: C_12  and  N_13
REMARK                            x       y       z     vdW  Elec       q    Type
REMARK                         _______ _______ _______ _____ _____    ______ ____
ROOT
ATOM      1  C   UNL     1       6.031   5.116  15.771  0.00  0.00    +0.000 C 
ENDROOT
BRANCH   1   2
ATOM      2  C   UNL     1       6.211   4.750  14.300  0.00  0.00    +0.000 A 
ATOM      3  C   UNL     1       7.346   5.089  13.556  0.00  0.00    +0.000 A 
ATOM      4  C   UNL     1       7.591   4.486  12.319  0.00  0.00    +0.000 A 
ATOM      5  C   UNL     1       6.705   3.538  11.807  0.00  0.00    +0.000 A 
ATOM      6  C   UNL     1       5.545   3.227  12.507  0.00  0.00    +0.000 A 
ATOM      7  C   UNL     1       5.286   3.844  13.732  0.00  0.00    +0.000 A 
ENDBRANCH   1   2
BRANCH   1   8
ATOM      8  C   UNL     1       7.243   5.215  16.712  0.00  0.00    +0.000 C 
ATOM      9  O   UNL     1       7.890   4.206  17.028  0.00  0.00    +0.000 OA
BRANCH   8  14
ATOM     10  C   UNL     1       9.118  10.037  19.351  0.00  0.00    +0.000 C 
ATOM     11  C   UNL     1       8.493   8.823  18.727  0.00  0.00    +0.000 A 
ATOM     12  C   UNL     1       8.624   7.571  19.330  0.00  0.00    +0.000 A 
ATOM     13  C   UNL     1       8.182   6.423  18.665  0.00  0.00    +0.000 A 
ATOM     14  C   UNL     1       7.613   6.500  17.383  0.00  0.00    +0.000 A 
ATOM     15  C   UNL     1       7.416   7.759  16.810  0.00  0.00    +0.000 A 
ATOM     16  C   UNL     1       7.859   8.911  17.479  0.00  0.00    +0.000 A 
ENDBRANCH   8  14
ENDBRANCH   1   8
BRANCH   1  17
ATOM     17  O   UNL     1       5.071   4.188  16.348  0.00  0.00    +0.000 OA
BRANCH  17  18
ATOM     18  C   UNL     1       4.569   4.484  17.594  0.00  0.00    +0.000 C 
ATOM     19  O   UNL     1       4.766   3.866  18.626  0.00  0.00    +0.000 OA
BRANCH  18  20
ATOM     20  C   UNL     1       3.731   5.735  17.498  0.00  0.00    +0.000 C 
BRANCH  20  21
ATOM     21  N   UNL     1       2.391   5.620  18.048  0.00  0.00    +0.000 N 
ATOM     22  C   UNL     1       1.745   4.415  17.871  0.00  0.00    +0.000 C 
ATOM     23  O   UNL     1       1.622   3.753  16.858  0.00  0.00    +0.000 OA
ATOM     24  C   UNL     1       1.425   3.912  19.210  0.00  0.00    +0.000 A 
ATOM     25  C   UNL     1       1.141   2.619  19.602  0.00  0.00    +0.000 A 
ATOM     26  C   UNL     1       1.408   2.289  20.935  0.00  0.00    +0.000 A 
ATOM     27  C   UNL     1       1.954   3.239  21.824  0.00  0.00    +0.000 A 
ATOM     28  C   UNL     1       2.164   4.558  21.419  0.00  0.00    +0.000 A 
ATOM     29  C   UNL     1       1.858   4.864  20.110  0.00  0.00    +0.000 A 
ATOM     30  C   UNL     1       2.266   6.032  19.352  0.00  0.00    +0.000 C 
ATOM     31  O   UNL     1       2.545   7.105  19.851  0.00  0.00    +0.000 OA
ENDBRANCH  20  21
ENDBRANCH  18  20
ENDBRANCH  17  18
ENDBRANCH   1  17
TORSDOF 7
ENDMDL
MODEL 2
REMARK VINA RESULT:      -9.0      2.528      6.956
REMARK  Name = 
REMARK  8 active torsions:
REMARK  status: ('A' for Active; 'I' for Inactive)
REMARK    1  A    between atoms: C_1  and  C_2
REMARK    2  A    between atoms: C_5  and  C_6
REMARK    3  A    between atoms: C_6  and  C_8
REMARK    4  A    between atoms: C_8  and  O_9
REMARK    5  A    between atoms: C_8  and  C_24
REMARK    6  A    between atoms: O_9  and  C_10
REMARK    7  A    between atoms: C_10  and  C_12
REMARK    8  A    between atoms: C_12  and  N_13
REMARK                            x       y       z     vdW  Elec       q    Type
REMARK                         _______ _______ _______ _____ _____    ______ ____
ROOT
ATOM      1  C   UNL     1       3.071   5.921  19.401  0.00  0.00    +0.000 C 
ENDROOT
BRANCH   1   2
ATOM      2  C   UNL     1       2.126   4.729  19.530  0.00  0.00    +0.000 A 
ATOM      3  C   UNL     1       1.673   3.983  18.437  0.00  0.00    +0.000 A 
ATOM      4  C   UNL     1       1.058   2.743  18.629  0.00  0.00    +0.000 A 
ATOM      5  C   UNL     1       0.884   2.232  19.914  0.00  0.00    +0.000 A 
ATOM      6  C   UNL     1       1.280   2.982  21.016  0.00  0.00    +0.000 A 
ATOM      7  C   UNL     1       1.874   4.231  20.829  0.00  0.00    +0.000 A 
ENDBRANCH   1   2
BRANCH   1   8
ATOM      8  C   UNL     1       2.563   7.276  18.883  0.00  0.00    +0.000 C 
ATOM      9  O   UNL     1       2.859   7.679  17.749  0.00  0.00    +0.000 OA
BRANCH   8  14
ATOM     10  C   UNL     1      -0.751  10.891  21.996  0.00  0.00    +0.000 C 
ATOM     11  C   UNL     1       0.228  10.030  21.252  0.00  0.00    +0.000 A 
ATOM     12  C   UNL     1       0.533  10.297  19.916  0.00  0.00    +0.000 A 
ATOM     13  C   UNL     1       1.317   9.402  19.184  0.00  0.00    +0.000 A 
ATOM     14  C   UNL     1       1.801   8.217  19.764  0.00  0.00    +0.000 A 
ATOM     15  C   UNL     1       1.557   7.985  21.119  0.00  0.00    +0.000 A 
ATOM     16  C   UNL     1       0.770   8.886  21.854  0.00  0.00    +0.000 A 
ENDBRANCH   8  14
ENDBRANCH   1   8
BRANCH   1  17
ATOM     17  O   UNL     1       4.202   5.508  18.584  0.00  0.00    +0.000 OA
BRANCH  17  18
ATOM     18  C   UNL     1       5.199   4.785  19.195  0.00  0.00    +0.000 C 
ATOM     19  O   UNL     1       5.151   3.613  19.529  0.00  0.00    +0.000 OA
BRANCH  18  20
ATOM     20  C   UNL     1       6.405   5.672  19.376  0.00  0.00    +0.000 C 
BRANCH  20  21
ATOM     21  N   UNL     1       7.141   5.964  18.157  0.00  0.00    +0.000 N 
ATOM     22  C   UNL     1       7.679   4.890  17.481  0.00  0.00    +0.000 C 
ATOM     23  O   UNL     1       8.333   3.960  17.914  0.00  0.00    +0.000 OA
ATOM     24  C   UNL     1       7.102   4.913  16.134  0.00  0.00    +0.000 A 
ATOM     25  C   UNL     1       7.004   3.885  15.218  0.00  0.00    +0.000 A 
ATOM     26  C   UNL     1       5.974   3.973  14.275  0.00  0.00    +0.000 A 
ATOM     27  C   UNL     1       5.074   5.060  14.282  0.00  0.00    +0.000 A 
ATOM     28  C   UNL     1       5.240   6.120  15.173  0.00  0.00    +0.000 A 
ATOM     29  C   UNL     1       6.286   6.025  16.066  0.00  0.00    +0.000 A 
ATOM     30  C   UNL     1       6.494   6.796  17.278  0.00  0.00    +0.000 C 
ATOM     31  O   UNL     1       6.050   7.913  17.459  0.00  0.00    +0.000 OA
ENDBRANCH  20  21
ENDBRANCH  18  20
ENDBRANCH  17  18
ENDBRANCH   1  17
TORSDOF 7
ENDMDL
MODEL 3
REMARK VINA RESULT:      -9.0      3.929      6.896
REMARK  Name = 
REMARK  8 active torsions:
REMARK  status: ('A' for Active; 'I' for Inactive)
REMARK    1  A    between atoms: C_1  and  C_2
REMARK    2  A    between atoms: C_5  and  C_6
REMARK    3  A    between atoms: C_6  and  C_8
REMARK    4  A    between atoms: C_8  and  O_9
REMARK    5  A    between atoms: C_8  and  C_24
REMARK    6  A    between atoms: O_9  and  C_10
REMARK    7  A    between atoms: C_10  and  C_12
REMARK    8  A    between atoms: C_12  and  N_13
REMARK                            x       y       z     vdW  Elec       q    Type
REMARK                         _______ _______ _______ _____ _____    ______ ____
ROOT
ATOM      1  C   UNL     1       2.819   5.999  18.601  0.00  0.00    +0.000 C 
ENDROOT
BRANCH   1   2
ATOM      2  C   UNL     1       1.956   4.864  19.146  0.00  0.00    +0.000 A 
ATOM      3  C   UNL     1       1.407   3.860  18.341  0.00  0.00    +0.000 A 
ATOM      4  C   UNL     1       0.881   2.698  18.914  0.00  0.00    +0.000 A 
ATOM      5  C   UNL     1       0.893   2.526  20.298  0.00  0.00    +0.000 A 
ATOM      6  C   UNL     1       1.386   3.536  21.117  0.00  0.00    +0.000 A 
ATOM      7  C   UNL     1       1.891   4.706  20.549  0.00  0.00    +0.000 A 
ENDBRANCH   1   2
BRANCH   1   8
ATOM      8  C   UNL     1       4.333   5.814  18.408  0.00  0.00    +0.000 C 
ATOM      9  O   UNL     1       5.133   6.121  19.303  0.00  0.00    +0.000 OA
BRANCH   8  14
ATOM     10  C   UNL     1       6.218   3.821  13.289  0.00  0.00    +0.000 C 
ATOM     11  C   UNL     1       5.878   4.374  14.642  0.00  0.00    +0.000 A 
ATOM     12  C   UNL     1       5.713   3.521  15.735  0.00  0.00    +0.000 A 
ATOM     13  C   UNL     1       5.240   4.022  16.950  0.00  0.00    +0.000 A 
ATOM     14  C   UNL     1       4.910   5.380  17.097  0.00  0.00    +0.000 A 
ATOM     15  C   UNL     1       5.143   6.247  16.027  0.00  0.00    +0.000 A 
ATOM     16  C   UNL     1       5.620   5.742  14.807  0.00  0.00    +0.000 A 
ENDBRANCH   8  14
ENDBRANCH   1   8
BRANCH   1  17
ATOM     17  O   UNL     1       2.598   7.169  19.435  0.00  0.00    +0.000 OA
BRANCH  17  18
ATOM     18  C   UNL     1       2.050   8.282  18.841  0.00  0.00    +0.000 C 
ATOM     19  O   UNL     1       2.393   8.790  17.787  0.00  0.00    +0.000 OA
BRANCH  18  20
ATOM     20  C   UNL     1       0.915   8.784  19.698  0.00  0.00    +0.000 C 
BRANCH  20  21
ATOM     21  N   UNL     1       1.152  10.064  20.344  0.00  0.00    +0.000 N 
ATOM     22  C   UNL     1       0.495  11.157  19.823  0.00  0.00    +0.000 C 
ATOM     23  O   UNL     1       0.398  11.513  18.664  0.00  0.00    +0.000 OA
ATOM     24  C   UNL     1      -0.316  11.714  20.909  0.00  0.00    +0.000 A 
ATOM     25  C   UNL     1      -1.419  12.542  20.828  0.00  0.00    +0.000 A 
ATOM     26  C   UNL     1      -2.324  12.496  21.894  0.00  0.00    +0.000 A 
ATOM     27  C   UNL     1      -2.115  11.629  22.988  0.00  0.00    +0.000 A 
ATOM     28  C   UNL     1      -0.957  10.857  23.077  0.00  0.00    +0.000 A 
ATOM     29  C   UNL     1      -0.064  10.950  22.030  0.00  0.00    +0.000 A 
ATOM     30  C   UNL     1       1.029  10.051  21.711  0.00  0.00    +0.000 C 
ATOM     31  O   UNL     1       1.602   9.357  22.530  0.00  0.00    +0.000 OA
ENDBRANCH  20  21
ENDBRANCH  18  20
ENDBRANCH  17  18
ENDBRANCH   1  17
TORSDOF 7
ENDMDL
MODEL 4
REMARK VINA RESULT:      -8.8      2.693      7.171
REMARK  Name = 
REMARK  8 active torsions:
REMARK  status: ('A' for Active; 'I' for Inactive)
REMARK    1  A    between atoms: C_1  and  C_2
REMARK    2  A    between atoms: C_5  and  C_6
REMARK    3  A    between atoms: C_6  and  C_8
REMARK    4  A    between atoms: C_8  and  O_9
REMARK    5  A    between atoms: C_8  and  C_24
REMARK    6  A    between atoms: O_9  and  C_10
REMARK    7  A    between atoms: C_10  and  C_12
REMARK    8  A    between atoms: C_12  and  N_13
REMARK                            x       y       z     vdW  Elec       q    Type
REMARK                         _______ _______ _______ _____ _____    ______ ____
ROOT
ATOM      1  C   UNL     1       2.690   6.784  18.857  0.00  0.00    +0.000 C 
ENDROOT
BRANCH   1   2
ATOM      2  C   UNL     1       1.898   5.515  19.161  0.00  0.00    +0.000 A 
ATOM      3  C   UNL     1       1.472   4.619  18.175  0.00  0.00    +0.000 A 
ATOM      4  C   UNL     1       1.016   3.344  18.522  0.00  0.00    +0.000 A 
ATOM      5  C   UNL     1       0.978   2.948  19.859  0.00  0.00    +0.000 A 
ATOM      6  C   UNL     1       1.348   3.843  20.856  0.00  0.00    +0.000 A 
ATOM      7  C   UNL     1       1.782   5.124  20.514  0.00  0.00    +0.000 A 
ENDBRANCH   1   2
BRANCH   1   8
ATOM      8  C   UNL     1       1.981   8.142  18.725  0.00  0.00    +0.000 C 
ATOM      9  O   UNL     1       2.026   8.787  17.667  0.00  0.00    +0.000 OA
BRANCH   8  14
ATOM     10  C   UNL     1      -1.001  10.572  23.077  0.00  0.00    +0.000 C 
ATOM     11  C   UNL     1      -0.117  10.044  21.984  0.00  0.00    +0.000 A 
ATOM     12  C   UNL     1      -0.312  10.445  20.661  0.00  0.00    +0.000 A 
ATOM     13  C   UNL     1       0.405   9.831  19.630  0.00  0.00    +0.000 A 
ATOM     14  C   UNL     1       1.319   8.799  19.896  0.00  0.00    +0.000 A 
ATOM     15  C   UNL     1       1.568   8.447  21.225  0.00  0.00    +0.000 A 
ATOM     16  C   UNL     1       0.848   9.066  22.259  0.00  0.00    +0.000 A 
ENDBRANCH   8  14
ENDBRANCH   1   8
BRANCH   1  17
ATOM     17  O   UNL     1       3.466   6.548  17.649  0.00  0.00    +0.000 OA
BRANCH  17  18
ATOM     18  C   UNL     1       4.836   6.565  17.759  0.00  0.00    +0.000 C 
ATOM     19  O   UNL     1       5.601   7.362  17.241  0.00  0.00    +0.000 OA
BRANCH  18  20
ATOM     20  C   UNL     1       5.268   5.433  18.658  0.00  0.00    +0.000 C 
BRANCH  20  21
ATOM     21  N   UNL     1       5.910   4.319  17.979  0.00  0.00    +0.000 N 
ATOM     22  C   UNL     1       5.154   3.635  17.052  0.00  0.00    +0.000 C 
ATOM     23  O   UNL     1       4.021   3.204  17.154  0.00  0.00    +0.000 OA
ATOM     24  C   UNL     1       5.872   3.727  15.778  0.00  0.00    +0.000 A 
ATOM     25  C   UNL     1       5.384   3.558  14.497  0.00  0.00    +0.000 A 
ATOM     26  C   UNL     1       6.071   4.210  13.467  0.00  0.00    +0.000 A 
ATOM     27  C   UNL     1       7.200   5.011  13.740  0.00  0.00    +0.000 A 
ATOM     28  C   UNL     1       7.713   5.106  15.034  0.00  0.00    +0.000 A 
ATOM     29  C   UNL     1       7.038   4.423  16.024  0.00  0.00    +0.000 A 
ATOM     30  C   UNL     1       7.149   4.598  17.460  0.00  0.00    +0.000 C 
ATOM     31  O   UNL     1       8.140   5.029  18.019  0.00  0.00    +0.000 OA
ENDBRANCH  20  21
ENDBRANCH  18  20
ENDBRANCH  17  18
ENDBRANCH   1  17
TORSDOF 7
ENDMDL
MODEL 5
REMARK VINA RESULT:      -8.7      2.511      6.861
REMARK  Name = 
REMARK  8 active torsions:
REMARK  status: ('A' for Active; 'I' for Inactive)
REMARK    1  A    between atoms: C_1  and  C_2
REMARK    2  A    between atoms: C_5  and  C_6
REMARK    3  A    between atoms: C_6  and  C_8
REMARK    4  A    between atoms: C_8  and  O_9
REMARK    5  A    between atoms: C_8  and  C_24
REMARK    6  A    between atoms: O_9  and  C_10
REMARK    7  A    between atoms: C_10  and  C_12
REMARK    8  A    between atoms: C_12  and  N_13
REMARK                            x       y       z     vdW  Elec       q    Type
REMARK                         _______ _______ _______ _____ _____    ______ ____
ROOT
ATOM      1  C   UNL     1       3.316   5.974  19.410  0.00  0.00    +0.000 C 
ENDROOT
BRANCH   1   2
ATOM      2  C   UNL     1       2.521   4.677  19.536  0.00  0.00    +0.000 A 
ATOM      3  C   UNL     1       2.035   4.188  20.754  0.00  0.00    +0.000 A 
ATOM      4  C   UNL     1       1.076   3.171  20.779  0.00  0.00    +0.000 A 
ATOM      5  C   UNL     1       0.592   2.627  19.590  0.00  0.00    +0.000 A 
ATOM      6  C   UNL     1       1.101   3.063  18.372  0.00  0.00    +0.000 A 
ATOM      7  C   UNL     1       2.075   4.063  18.344  0.00  0.00    +0.000 A 
ENDBRANCH   1   2
BRANCH   1   8
ATOM      8  C   UNL     1       2.678   7.233  18.800  0.00  0.00    +0.000 C 
ATOM      9  O   UNL     1       2.962   7.602  17.652  0.00  0.00    +0.000 OA
BRANCH   8  14
ATOM     10  C   UNL     1      -0.412  10.751  22.237  0.00  0.00    +0.000 C 
ATOM     11  C   UNL     1       0.252   9.785  21.298  0.00  0.00    +0.000 A 
ATOM     12  C   UNL     1       0.756   8.572  21.770  0.00  0.00    +0.000 A 
ATOM     13  C   UNL     1       1.512   7.753  20.929  0.00  0.00    +0.000 A 
ATOM     14  C   UNL     1       1.792   8.132  19.605  0.00  0.00    +0.000 A 
ATOM     15  C   UNL     1       1.227   9.310  19.110  0.00  0.00    +0.000 A 
ATOM     16  C   UNL     1       0.466  10.131  19.957  0.00  0.00    +0.000 A 
ENDBRANCH   8  14
ENDBRANCH   1   8
BRANCH   1  17
ATOM     17  O   UNL     1       4.541   5.678  18.683  0.00  0.00    +0.000 OA
BRANCH  17  18
ATOM     18  C   UNL     1       5.504   4.940  19.330  0.00  0.00    +0.000 C 
ATOM     19  O   UNL     1       5.386   3.805  19.762  0.00  0.00    +0.000 OA
BRANCH  18  20
ATOM     20  C   UNL     1       6.771   5.754  19.411  0.00  0.00    +0.000 C 
BRANCH  20  21
ATOM     21  N   UNL     1       7.444   5.970  18.141  0.00  0.00    +0.000 N 
ATOM     22  C   UNL     1       7.829   4.846  17.441  0.00  0.00    +0.000 C 
ATOM     23  O   UNL     1       8.422   3.861  17.837  0.00  0.00    +0.000 OA
ATOM     24  C   UNL     1       7.164   4.919  16.137  0.00  0.00    +0.000 A 
ATOM     25  C   UNL     1       6.906   3.900  15.241  0.00  0.00    +0.000 A 
ATOM     26  C   UNL     1       5.825   4.081  14.371  0.00  0.00    +0.000 A 
ATOM     27  C   UNL     1       5.034   5.249  14.428  0.00  0.00    +0.000 A 
ATOM     28  C   UNL     1       5.361   6.292  15.294  0.00  0.00    +0.000 A 
ATOM     29  C   UNL     1       6.454   6.102  16.114  0.00  0.00    +0.000 A 
ATOM     30  C   UNL     1       6.818   6.855  17.299  0.00  0.00    +0.000 C 
ATOM     31  O   UNL     1       6.494   8.010  17.499  0.00  0.00    +0.000 OA
ENDBRANCH  20  21
ENDBRANCH  18  20
ENDBRANCH  17  18
ENDBRANCH   1  17
TORSDOF 7
ENDMDL
MODEL 6
REMARK VINA RESULT:      -8.5      3.665      6.664
REMARK  Name = 
REMARK  8 active torsions:
REMARK  status: ('A' for Active; 'I' for Inactive)
REMARK    1  A    between atoms: C_1  and  C_2
REMARK    2  A    between atoms: C_5  and  C_6
REMARK    3  A    between atoms: C_6  and  C_8
REMARK    4  A    between atoms: C_8  and  O_9
REMARK    5  A    between atoms: C_8  and  C_24
REMARK    6  A    between atoms: O_9  and  C_10
REMARK    7  A    between atoms: C_10  and  C_12
REMARK    8  A    between atoms: C_12  and  N_13
REMARK                            x       y       z     vdW  Elec       q    Type
REMARK                         _______ _______ _______ _____ _____    ______ ____
ROOT
ATOM      1  C   UNL     1       2.939   5.952  18.173  0.00  0.00    +0.000 C 
ENDROOT
BRANCH   1   2
ATOM      2  C   UNL     1       2.287   4.771  18.886  0.00  0.00    +0.000 A 
ATOM      3  C   UNL     1       1.954   4.781  20.245  0.00  0.00    +0.000 A 
ATOM      4  C   UNL     1       1.105   3.806  20.776  0.00  0.00    +0.000 A 
ATOM      5  C   UNL     1       0.578   2.807  19.958  0.00  0.00    +0.000 A 
ATOM      6  C   UNL     1       0.939   2.749  18.617  0.00  0.00    +0.000 A 
ATOM      7  C   UNL     1       1.804   3.708  18.089  0.00  0.00    +0.000 A 
ENDBRANCH   1   2
BRANCH   1   8
ATOM      8  C   UNL     1       4.447   5.957  17.876  0.00  0.00    +0.000 C 
ATOM      9  O   UNL     1       5.247   6.514  18.641  0.00  0.00    +0.000 OA
BRANCH   8  14
ATOM     10  C   UNL     1       6.218   3.522  12.909  0.00  0.00    +0.000 C 
ATOM     11  C   UNL     1       5.909   4.186  14.219  0.00  0.00    +0.000 A 
ATOM     12  C   UNL     1       5.724   3.423  15.374  0.00  0.00    +0.000 A 
ATOM     13  C   UNL     1       5.279   4.030  16.551  0.00  0.00    +0.000 A 
ATOM     14  C   UNL     1       4.998   5.406  16.598  0.00  0.00    +0.000 A 
ATOM     15  C   UNL     1       5.252   6.182  15.464  0.00  0.00    +0.000 A 
ATOM     16  C   UNL     1       5.700   5.571  14.283  0.00  0.00    +0.000 A 
ENDBRANCH   8  14
ENDBRANCH   1   8
BRANCH   1  17
ATOM     17  O   UNL     1       2.608   7.159  18.913  0.00  0.00    +0.000 OA
BRANCH  17  18
ATOM     18  C   UNL     1       2.386   8.308  18.191  0.00  0.00    +0.000 C 
ATOM     19  O   UNL     1       2.532   8.456  16.989  0.00  0.00    +0.000 OA
BRANCH  18  20
ATOM     20  C   UNL     1       1.897   9.385  19.127  0.00  0.00    +0.000 C 
BRANCH  20  21
ATOM     21  N   UNL     1       0.566   9.168  19.671  0.00  0.00    +0.000 N 
ATOM     22  C   UNL     1       0.467   9.038  21.040  0.00  0.00    +0.000 C 
ATOM     23  O   UNL     1       1.126   8.348  21.794  0.00  0.00    +0.000 OA
ATOM     24  C   UNL     1      -0.439  10.096  21.495  0.00  0.00    +0.000 A 
ATOM     25  C   UNL     1      -0.570  10.637  22.759  0.00  0.00    +0.000 A 
ATOM     26  C   UNL     1      -1.062  11.944  22.841  0.00  0.00    +0.000 A 
ATOM     27  C   UNL     1      -1.391  12.670  21.676  0.00  0.00    +0.000 A 
ATOM     28  C   UNL     1      -1.317  12.074  20.417  0.00  0.00    +0.000 A 
ATOM     29  C   UNL     1      -0.865  10.772  20.370  0.00  0.00    +0.000 A 
ATOM     30  C   UNL     1      -0.393  10.036  19.212  0.00  0.00    +0.000 C 
ATOM     31  O   UNL     1      -0.732  10.274  18.069  0.00  0.00    +0.000 OA
ENDBRANCH  20  21
ENDBRANCH  18  20
ENDBRANCH  17  18
ENDBRANCH   1  17
TORSDOF 7
ENDMDL
MODEL 7
REMARK VINA RESULT:      -8.4      2.895      7.618
REMARK  Name = 
REMARK  8 active torsions:
REMARK  status: ('A' for Active; 'I' for Inactive)
REMARK    1  A    between atoms: C_1  and  C_2
REMARK    2  A    between atoms: C_5  and  C_6
REMARK    3  A    between atoms: C_6  and  C_8
REMARK    4  A    between atoms: C_8  and  O_9
REMARK    5  A    between atoms: C_8  and  C_24
REMARK    6  A    between atoms: O_9  and  C_10
REMARK    7  A    between atoms: C_10  and  C_12
REMARK    8  A    between atoms: C_12  and  N_13
REMARK                            x       y       z     vdW  Elec       q    Type
REMARK                         _______ _______ _______ _____ _____    ______ ____
ROOT
ATOM      1  C   UNL     1       2.440   7.360  18.925  0.00  0.00    +0.000 C 
ENDROOT
BRANCH   1   2
ATOM      2  C   UNL     1       1.872   5.959  19.135  0.00  0.00    +0.000 A 
ATOM      3  C   UNL     1       1.631   5.061  18.089  0.00  0.00    +0.000 A 
ATOM      4  C   UNL     1       1.393   3.709  18.354  0.00  0.00    +0.000 A 
ATOM      5  C   UNL     1       1.390   3.237  19.665  0.00  0.00    +0.000 A 
ATOM      6  C   UNL     1       1.574   4.123  20.721  0.00  0.00    +0.000 A 
ATOM      7  C   UNL     1       1.790   5.477  20.461  0.00  0.00    +0.000 A 
ENDBRANCH   1   2
BRANCH   1   8
ATOM      8  C   UNL     1       1.510   8.579  18.815  0.00  0.00    +0.000 C 
ATOM      9  O   UNL     1       1.331   9.151  17.730  0.00  0.00    +0.000 OA
BRANCH   8  14
ATOM     10  C   UNL     1      -1.329  10.960  23.288  0.00  0.00    +0.000 C 
ATOM     11  C   UNL     1      -0.471  10.423  22.180  0.00  0.00    +0.000 A 
ATOM     12  C   UNL     1      -0.527  10.987  20.904  0.00  0.00    +0.000 A 
ATOM     13  C   UNL     1       0.150  10.384  19.840  0.00  0.00    +0.000 A 
ATOM     14  C   UNL     1       0.885   9.201  20.025  0.00  0.00    +0.000 A 
ATOM     15  C   UNL     1       1.001   8.676  21.314  0.00  0.00    +0.000 A 
ATOM     16  C   UNL     1       0.322   9.284  22.382  0.00  0.00    +0.000 A 
ENDBRANCH   8  14
ENDBRANCH   1   8
BRANCH   1  17
ATOM     17  O   UNL     1       3.296   7.323  17.749  0.00  0.00    +0.000 OA
BRANCH  17  18
ATOM     18  C   UNL     1       4.450   6.580  17.824  0.00  0.00    +0.000 C 
ATOM     19  O   UNL     1       4.928   6.072  18.824  0.00  0.00    +0.000 OA
BRANCH  18  20
ATOM     20  C   UNL     1       5.046   6.464  16.443  0.00  0.00    +0.000 C 
BRANCH  20  21
ATOM     21  N   UNL     1       5.905   5.309  16.240  0.00  0.00    +0.000 N 
ATOM     22  C   UNL     1       5.330   4.199  15.659  0.00  0.00    +0.000 C 
ATOM     23  O   UNL     1       4.282   3.646  15.932  0.00  0.00    +0.000 OA
ATOM     24  C   UNL     1       6.095   3.923  14.439  0.00  0.00    +0.000 A 
ATOM     25  C   UNL     1       5.718   3.194  13.329  0.00  0.00    +0.000 A 
ATOM     26  C   UNL     1       6.344   3.513  12.119  0.00  0.00    +0.000 A 
ATOM     27  C   UNL     1       7.305   4.545  12.048  0.00  0.00    +0.000 A 
ATOM     28  C   UNL     1       7.718   5.216  13.199  0.00  0.00    +0.000 A 
ATOM     29  C   UNL     1       7.111   4.856  14.383  0.00  0.00    +0.000 A 
ATOM     30  C   UNL     1       7.108   5.584  15.639  0.00  0.00    +0.000 C 
ATOM     31  O   UNL     1       7.978   6.364  15.976  0.00  0.00    +0.000 OA
ENDBRANCH  20  21
ENDBRANCH  18  20
ENDBRANCH  17  18
ENDBRANCH   1  17
TORSDOF 7
ENDMDL
MODEL 8
REMARK VINA RESULT:      -8.4      3.831      6.868
REMARK  Name = 
REMARK  8 active torsions:
REMARK  status: ('A' for Active; 'I' for Inactive)
REMARK    1  A    between atoms: C_1  and  C_2
REMARK    2  A    between atoms: C_5  and  C_6
REMARK    3  A    between atoms: C_6  and  C_8
REMARK    4  A    between atoms: C_8  and  O_9
REMARK    5  A    between atoms: C_8  and  C_24
REMARK    6  A    between atoms: O_9  and  C_10
REMARK    7  A    between atoms: C_10  and  C_12
REMARK    8  A    between atoms: C_12  and  N_13
REMARK                            x       y       z     vdW  Elec       q    Type
REMARK                         _______ _______ _______ _____ _____    ______ ____
ROOT
ATOM      1  C   UNL     1       2.962   5.969  18.496  0.00  0.00    +0.000 C 
ENDROOT
BRANCH   1   2
ATOM      2  C   UNL     1       2.084   4.886  19.117  0.00  0.00    +0.000 A 
ATOM      3  C   UNL     1       1.449   3.887  18.371  0.00  0.00    +0.000 A 
ATOM      4  C   UNL     1       0.908   2.764  19.003  0.00  0.00    +0.000 A 
ATOM      5  C   UNL     1       0.991   2.624  20.388  0.00  0.00    +0.000 A 
ATOM      6  C   UNL     1       1.571   3.631  21.151  0.00  0.00    +0.000 A 
ATOM      7  C   UNL     1       2.093   4.764  20.525  0.00  0.00    +0.000 A 
ENDBRANCH   1   2
BRANCH   1   8
ATOM      8  C   UNL     1       4.474   5.753  18.322  0.00  0.00    +0.000 C 
ATOM      9  O   UNL     1       5.273   6.086  19.209  0.00  0.00    +0.000 OA
BRANCH   8  14
ATOM     10  C   UNL     1       6.279   3.759  13.173  0.00  0.00    +0.000 C 
ATOM     11  C   UNL     1       5.946   4.223  14.562  0.00  0.00    +0.000 A 
ATOM     12  C   UNL     1       5.120   3.457  15.386  0.00  0.00    +0.000 A 
ATOM     13  C   UNL     1       4.685   3.967  16.612  0.00  0.00    +0.000 A 
ATOM     14  C   UNL     1       5.053   5.255  17.034  0.00  0.00    +0.000 A 
ATOM     15  C   UNL     1       5.938   5.994  16.244  0.00  0.00    +0.000 A 
ATOM     16  C   UNL     1       6.375   5.479  15.014  0.00  0.00    +0.000 A 
ENDBRANCH   8  14
ENDBRANCH   1   8
BRANCH   1  17
ATOM     17  O   UNL     1       2.753   7.198  19.244  0.00  0.00    +0.000 OA
BRANCH  17  18
ATOM     18  C   UNL     1       2.102   8.229  18.608  0.00  0.00    +0.000 C 
ATOM     19  O   UNL     1       1.834   8.301  17.421  0.00  0.00    +0.000 OA
BRANCH  18  20
ATOM     20  C   UNL     1       1.738   9.279  19.627  0.00  0.00    +0.000 C 
BRANCH  20  21
ATOM     21  N   UNL     1       0.333   9.315  19.998  0.00  0.00    +0.000 N 
ATOM     22  C   UNL     1       0.041   9.246  21.343  0.00  0.00    +0.000 C 
ATOM     23  O   UNL     1       0.468   8.476  22.182  0.00  0.00    +0.000 OA
ATOM     24  C   UNL     1      -0.714  10.460  21.669  0.00  0.00    +0.000 A 
ATOM     25  C   UNL     1      -0.904  11.054  22.900  0.00  0.00    +0.000 A 
ATOM     26  C   UNL     1      -1.163  12.429  22.906  0.00  0.00    +0.000 A 
ATOM     27  C   UNL     1      -1.211  13.165  21.702  0.00  0.00    +0.000 A 
ATOM     28  C   UNL     1      -1.086  12.525  20.469  0.00  0.00    +0.000 A 
ATOM     29  C   UNL     1      -0.868  11.164  20.492  0.00  0.00    +0.000 A 
ATOM     30  C   UNL     1      -0.393  10.321  19.411  0.00  0.00    +0.000 C 
ATOM     31  O   UNL     1      -0.538  10.579  18.231  0.00  0.00    +0.000 OA
ENDBRANCH  20  21
ENDBRANCH  18  20
ENDBRANCH  17  18
ENDBRANCH   1  17
TORSDOF 7
ENDMDL
MODEL 9
REMARK VINA RESULT:      -8.3      4.142      7.219
REMARK  Name = 
REMARK  8 active torsions:
REMARK  status: ('A' for Active; 'I' for Inactive)
REMARK    1  A    between atoms: C_1  and  C_2
REMARK    2  A    between atoms: C_5  and  C_6
REMARK    3  A    between atoms: C_6  and  C_8
REMARK    4  A    between atoms: C_8  and  O_9
REMARK    5  A    between atoms: C_8  and  C_24
REMARK    6  A    between atoms: O_9  and  C_10
REMARK    7  A    between atoms: C_10  and  C_12
REMARK    8  A    between atoms: C_12  and  N_13
REMARK                            x       y       z     vdW  Elec       q    Type
REMARK                         _______ _______ _______ _____ _____    ______ ____
ROOT
ATOM      1  C   UNL     1       2.808   5.932  18.618  0.00  0.00    +0.000 C 
ENDROOT
BRANCH   1   2
ATOM      2  C   UNL     1       2.070   4.878  19.439  0.00  0.00    +0.000 A 
ATOM      3  C   UNL     1       1.290   3.866  18.869  0.00  0.00    +0.000 A 
ATOM      4  C   UNL     1       0.883   2.768  19.632  0.00  0.00    +0.000 A 
ATOM      5  C   UNL     1       1.247   2.667  20.974  0.00  0.00    +0.000 A 
ATOM      6  C   UNL     1       1.977   3.688  21.572  0.00  0.00    +0.000 A 
ATOM      7  C   UNL     1       2.366   4.796  20.818  0.00  0.00    +0.000 A 
ENDBRANCH   1   2
BRANCH   1   8
ATOM      8  C   UNL     1       4.313   5.796  18.332  0.00  0.00    +0.000 C 
ATOM      9  O   UNL     1       5.157   6.216  19.136  0.00  0.00    +0.000 OA
BRANCH   8  14
ATOM     10  C   UNL     1       6.652   4.043  13.313  0.00  0.00    +0.000 C 
ATOM     11  C   UNL     1       5.910   4.461  14.549  0.00  0.00    +0.000 A 
ATOM     12  C   UNL     1       5.632   5.808  14.786  0.00  0.00    +0.000 A 
ATOM     13  C   UNL     1       5.087   6.206  16.010  0.00  0.00    +0.000 A 
ATOM     14  C   UNL     1       4.819   5.272  17.024  0.00  0.00    +0.000 A 
ATOM     15  C   UNL     1       5.028   3.916  16.761  0.00  0.00    +0.000 A 
ATOM     16  C   UNL     1       5.575   3.518  15.531  0.00  0.00    +0.000 A 
ENDBRANCH   8  14
ENDBRANCH   1   8
BRANCH   1  17
ATOM     17  O   UNL     1       2.570   7.227  19.235  0.00  0.00    +0.000 OA
BRANCH  17  18
ATOM     18  C   UNL     1       2.203   8.267  18.414  0.00  0.00    +0.000 C 
ATOM     19  O   UNL     1       2.482   8.399  17.234  0.00  0.00    +0.000 OA
BRANCH  18  20
ATOM     20  C   UNL     1       1.361   9.238  19.202  0.00  0.00    +0.000 C 
BRANCH  20  21
ATOM     21  N   UNL     1       0.766  10.311  18.421  0.00  0.00    +0.000 N 
ATOM     22  C   UNL     1      -0.580  10.543  18.605  0.00  0.00    +0.000 C 
ATOM     23  O   UNL     1      -1.501   9.749  18.620  0.00  0.00    +0.000 OA
ATOM     24  C   UNL     1      -0.706  11.935  19.046  0.00  0.00    +0.000 A 
ATOM     25  C   UNL     1      -1.753  12.538  19.716  0.00  0.00    +0.000 A 
ATOM     26  C   UNL     1      -1.445  13.661  20.492  0.00  0.00    +0.000 A 
ATOM     27  C   UNL     1      -0.119  14.136  20.588  0.00  0.00    +0.000 A 
ATOM     28  C   UNL     1       0.905  13.551  19.843  0.00  0.00    +0.000 A 
ATOM     29  C   UNL     1       0.566  12.469  19.059  0.00  0.00    +0.000 A 
ATOM     30  C   UNL     1       1.456  11.497  18.452  0.00  0.00    +0.000 C 
ATOM     31  O   UNL     1       2.615  11.722  18.163  0.00  0.00    +0.000 OA
ENDBRANCH  20  21
ENDBRANCH  18  20
ENDBRANCH  17  18
ENDBRANCH   1  17
TORSDOF 7
ENDMDL
