MODEL 1
REMARK VINA RESULT:      -8.5      0.000      0.000
REMARK  Name = 
REMARK  6 active torsions:
REMARK  status: ('A' for Active; 'I' for Inactive)
REMARK    1  A    between atoms: C_1  and  N_2
REMARK    2  A    between atoms: C_5  and  C_6
REMARK    3  A    between atoms: C_8  and  C_9
REMARK    4  A    between atoms: N_14  and  C_15
REMARK    5  A    between atoms: C_18  and  S_19
REMARK    6  A    between atoms: S_19  and  N_20
REMARK                            x       y       z     vdW  Elec       q    Type
REMARK                         _______ _______ _______ _____ _____    ______ ____
ROOT
ATOM      1  C   UNL     1       2.596   5.301  18.110  0.00  0.00    +0.000 C 
ATOM      2  O   UNL     1       2.304   3.920  18.555  0.00  0.00    +0.000 OA
ATOM      3  C   UNL     1       2.135   4.048  19.952  0.00  0.00    +0.000 C 
ATOM      4  C   UNL     1       2.102   5.317  20.359  0.00  0.00    +0.000 C 
ATOM      5  N   UNL     1       2.290   6.150  19.288  0.00  0.00    +0.000 N 
ENDROOT
BRANCH   1  10
ATOM      6  C   UNL     1       7.000   4.826  14.523  0.00  0.00    +0.000 C 
ATOM      7  N   UNL     1       5.921   4.959  15.503  0.00  0.00    +0.000 N 
ATOM      8  C   UNL     1       5.446   3.859  16.206  0.00  0.00    +0.000 C 
ATOM      9  C   UNL     1       4.594   3.959  17.238  0.00  0.00    +0.000 C 
ATOM     10  C   UNL     1       4.117   5.321  17.744  0.00  0.00    +0.000 C 
ATOM     11  C   UNL     1       4.549   6.439  16.806  0.00  0.00    +0.000 C 
ATOM     12  C   UNL     1       5.398   6.210  15.795  0.00  0.00    +0.000 C 
ENDBRANCH   1  10
BRANCH   5  13
ATOM     13  C   UNL     1       1.973   7.506  19.251  0.00  0.00    +0.000 A 
ATOM     14  C   UNL     1       1.500   8.159  20.406  0.00  0.00    +0.000 A 
ATOM     15  C   UNL     1       1.117   9.502  20.396  0.00  0.00    +0.000 A 
ATOM     16  C   UNL     1       1.214  10.228  19.214  0.00  0.00    +0.000 A 
ATOM     17  C   UNL     1       1.700   9.626  18.055  0.00  0.00    +0.000 A 
ATOM     18  C   UNL     1       2.086   8.280  18.083  0.00  0.00    +0.000 A 
BRANCH  16  19
ATOM     19  S   UNL     1       0.664  11.904  19.187  0.00  0.00    +0.000 S 
ATOM     20  O   UNL     1      -0.673  11.961  18.644  0.00  0.00    +0.000 OA
ATOM     21  O   UNL     1       1.025  12.545  20.429  0.00  0.00    +0.000 OA
BRANCH  19  22
ATOM     22  N   UNL     1       1.668  12.566  18.016  0.00  0.00    +0.000 NA
ATOM     23  H   UNL     1       1.329  12.314  17.088  0.00  0.00    +0.000 HD
ATOM     24  H   UNL     1       1.762  13.571  18.168  0.00  0.00    +0.000 HD
ENDBRANCH  19  22
ENDBRANCH  16  19
ENDBRANCH   5  13
BRANCH   3  25
ATOM     25  C   UNL     1       2.019   2.837  20.809  0.00  0.00    +0.000 C 
ATOM     26  F   UNL     1       1.070   2.962  21.771  0.00  0.00    +0.000 F 
ATOM     27  F   UNL     1       1.687   1.742  20.075  0.00  0.00    +0.000 F 
ATOM     28  F   UNL     1       3.185   2.543  21.438  0.00  0.00    +0.000 F 
ENDBRANCH   3  25
TORSDOF 5
ENDMDL
MODEL 2
REMARK VINA RESULT:      -8.4      0.312      1.257
REMARK  Name = 
REMARK  6 active torsions:
REMARK  status: ('A' for Active; 'I' for Inactive)
REMARK    1  A    between atoms: C_1  and  N_2
REMARK    2  A    between atoms: C_5  and  C_6
REMARK    3  A    between atoms: C_8  and  C_9
REMARK    4  A    between atoms: N_14  and  C_15
REMARK    5  A    between atoms: C_18  and  S_19
REMARK    6  A    between atoms: S_19  and  N_20
REMARK                            x       y       z     vdW  Elec       q    Type
REMARK                         _______ _______ _______ _____ _____    ______ ____
ROOT
ATOM      1  C   UNL     1       2.558   5.322  18.074  0.00  0.00    +0.000 C 
ATOM      2  O   UNL     1       2.246   3.949  18.531  0.00  0.00    +0.000 OA
ATOM      3  C   UNL     1       2.064   4.094  19.925  0.00  0.00    +0.000 C 
ATOM      4  C   UNL     1       2.041   5.368  20.318  0.00  0.00    +0.000 C 
ATOM      5  N   UNL     1       2.249   6.187  19.240  0.00  0.00    +0.000 N 
ENDROOT
BRANCH   1  10
ATOM      6  C   UNL     1       6.990   4.800  14.529  0.00  0.00    +0.000 C 
ATOM      7  N   UNL     1       5.903   4.943  15.499  0.00  0.00    +0.000 N 
ATOM      8  C   UNL     1       5.405   3.848  16.192  0.00  0.00    +0.000 C 
ATOM      9  C   UNL     1       4.545   3.955  17.215  0.00  0.00    +0.000 C 
ATOM     10  C   UNL     1       4.083   5.322  17.723  0.00  0.00    +0.000 C 
ATOM     11  C   UNL     1       4.540   6.438  16.795  0.00  0.00    +0.000 C 
ATOM     12  C   UNL     1       5.396   6.201  15.791  0.00  0.00    +0.000 C 
ENDBRANCH   1  10
BRANCH   5  13
ATOM     13  C   UNL     1       1.948   7.546  19.185  0.00  0.00    +0.000 A 
ATOM     14  C   UNL     1       2.120   8.267  17.987  0.00  0.00    +0.000 A 
ATOM     15  C   UNL     1       1.885   9.641  17.906  0.00  0.00    +0.000 A 
ATOM     16  C   UNL     1       1.455  10.325  19.038  0.00  0.00    +0.000 A 
ATOM     17  C   UNL     1       1.250   9.646  20.237  0.00  0.00    +0.000 A 
ATOM     18  C   UNL     1       1.484   8.266  20.300  0.00  0.00    +0.000 A 
BRANCH  16  19
ATOM     19  S   UNL     1       1.227  12.073  18.951  0.00  0.00    +0.000 S 
ATOM     20  O   UNL     1      -0.113  12.358  18.493  0.00  0.00    +0.000 OA
ATOM     21  O   UNL     1       1.792  12.686  20.130  0.00  0.00    +0.000 OA
BRANCH  19  22
ATOM     22  N   UNL     1       2.248  12.480  17.683  0.00  0.00    +0.000 NA
ATOM     23  H   UNL     1       2.520  11.638  17.175  0.00  0.00    +0.000 HD
ATOM     24  H   UNL     1       1.811  13.195  17.102  0.00  0.00    +0.000 HD
ENDBRANCH  19  22
ENDBRANCH  16  19
ENDBRANCH   5  13
BRANCH   3  25
ATOM     25  C   UNL     1       1.926   2.894  20.794  0.00  0.00    +0.000 C 
ATOM     26  F   UNL     1       1.791   1.745  20.087  0.00  0.00    +0.000 F 
ATOM     27  F   UNL     1       3.016   2.735  21.592  0.00  0.00    +0.000 F 
ATOM     28  F   UNL     1       0.852   2.982  21.619  0.00  0.00    +0.000 F 
ENDBRANCH   3  25
TORSDOF 5
ENDMDL
MODEL 3
REMARK VINA RESULT:      -8.4      0.639      1.007
REMARK  Name = 
REMARK  6 active torsions:
REMARK  status: ('A' for Active; 'I' for Inactive)
REMARK    1  A    between atoms: C_1  and  N_2
REMARK    2  A    between atoms: C_5  and  C_6
REMARK    3  A    between atoms: C_8  and  C_9
REMARK    4  A    between atoms: N_14  and  C_15
REMARK    5  A    between atoms: C_18  and  S_19
REMARK    6  A    between atoms: S_19  and  N_20
REMARK                            x       y       z     vdW  Elec       q    Type
REMARK                         _______ _______ _______ _____ _____    ______ ____
ROOT
ATOM      1  C   UNL     1       2.575   5.345  18.156  0.00  0.00    +0.000 C 
ATOM      2  O   UNL     1       2.291   3.957  18.586  0.00  0.00    +0.000 OA
ATOM      3  C   UNL     1       2.124   4.068  19.985  0.00  0.00    +0.000 C 
ATOM      4  C   UNL     1       2.086   5.333  20.406  0.00  0.00    +0.000 C 
ATOM      5  N   UNL     1       2.267   6.179  19.344  0.00  0.00    +0.000 N 
ENDROOT
BRANCH   1  10
ATOM      6  C   UNL     1       6.978   4.853  14.571  0.00  0.00    +0.000 C 
ATOM      7  N   UNL     1       5.899   4.992  15.550  0.00  0.00    +0.000 N 
ATOM      8  C   UNL     1       5.440   3.901  16.276  0.00  0.00    +0.000 C 
ATOM      9  C   UNL     1       4.589   4.010  17.308  0.00  0.00    +0.000 C 
ATOM     10  C   UNL     1       4.095   5.377  17.786  0.00  0.00    +0.000 C 
ATOM     11  C   UNL     1       4.511   6.481  16.825  0.00  0.00    +0.000 C 
ATOM     12  C   UNL     1       5.361   6.242  15.817  0.00  0.00    +0.000 C 
ENDBRANCH   1  10
BRANCH   5  13
ATOM     13  C   UNL     1       1.944   7.534  19.324  0.00  0.00    +0.000 A 
ATOM     14  C   UNL     1       1.462   8.169  20.485  0.00  0.00    +0.000 A 
ATOM     15  C   UNL     1       1.073   9.510  20.490  0.00  0.00    +0.000 A 
ATOM     16  C   UNL     1       1.171  10.252  19.319  0.00  0.00    +0.000 A 
ATOM     17  C   UNL     1       1.664   9.667  18.153  0.00  0.00    +0.000 A 
ATOM     18  C   UNL     1       2.057   8.323  18.166  0.00  0.00    +0.000 A 
BRANCH  16  19
ATOM     19  S   UNL     1       0.612  11.925  19.310  0.00  0.00    +0.000 S 
ATOM     20  O   UNL     1      -0.146  12.183  20.512  0.00  0.00    +0.000 OA
ATOM     21  O   UNL     1       1.686  12.784  18.870  0.00  0.00    +0.000 OA
BRANCH  19  22
ATOM     22  N   UNL     1      -0.503  11.898  18.056  0.00  0.00    +0.000 NA
ATOM     23  H   UNL     1      -0.694  10.934  17.784  0.00  0.00    +0.000 HD
ATOM     24  H   UNL     1      -1.333  12.430  18.318  0.00  0.00    +0.000 HD
ENDBRANCH  19  22
ENDBRANCH  16  19
ENDBRANCH   5  13
BRANCH   3  25
ATOM     25  C   UNL     1       2.016   2.847  20.829  0.00  0.00    +0.000 C 
ATOM     26  F   UNL     1       3.174   2.545  21.467  0.00  0.00    +0.000 F 
ATOM     27  F   UNL     1       1.067   2.995  21.791  0.00  0.00    +0.000 F 
ATOM     28  F   UNL     1       1.666   1.755  20.103  0.00  0.00    +0.000 F 
ENDBRANCH   3  25
TORSDOF 5
ENDMDL
MODEL 4
REMARK VINA RESULT:      -8.4      0.777      1.175
REMARK  Name = 
REMARK  6 active torsions:
REMARK  status: ('A' for Active; 'I' for Inactive)
REMARK    1  A    between atoms: C_1  and  N_2
REMARK    2  A    between atoms: C_5  and  C_6
REMARK    3  A    between atoms: C_8  and  C_9
REMARK    4  A    between atoms: N_14  and  C_15
REMARK    5  A    between atoms: C_18  and  S_19
REMARK    6  A    between atoms: S_19  and  N_20
REMARK                            x       y       z     vdW  Elec       q    Type
REMARK                         _______ _______ _______ _____ _____    ______ ____
ROOT
ATOM      1  C   UNL     1       2.527   5.385  18.207  0.00  0.00    +0.000 C 
ATOM      2  O   UNL     1       2.238   3.981  18.577  0.00  0.00    +0.000 OA
ATOM      3  C   UNL     1       2.073   4.032  19.979  0.00  0.00    +0.000 C 
ATOM      4  C   UNL     1       2.040   5.277  20.455  0.00  0.00    +0.000 C 
ATOM      5  N   UNL     1       2.224   6.168  19.431  0.00  0.00    +0.000 N 
ENDROOT
BRANCH   1  10
ATOM      6  C   UNL     1       6.940   4.867  14.637  0.00  0.00    +0.000 C 
ATOM      7  N   UNL     1       5.858   5.015  15.612  0.00  0.00    +0.000 N 
ATOM      8  C   UNL     1       5.411   3.935  16.361  0.00  0.00    +0.000 C 
ATOM      9  C   UNL     1       4.558   4.056  17.389  0.00  0.00    +0.000 C 
ATOM     10  C   UNL     1       4.048   5.427  17.838  0.00  0.00    +0.000 C 
ATOM     11  C   UNL     1       4.451   6.515  16.853  0.00  0.00    +0.000 C 
ATOM     12  C   UNL     1       5.305   6.264  15.851  0.00  0.00    +0.000 C 
ENDBRANCH   1  10
BRANCH   5  13
ATOM     13  C   UNL     1       1.906   7.524  19.469  0.00  0.00    +0.000 A 
ATOM     14  C   UNL     1       1.456   8.117  20.665  0.00  0.00    +0.000 A 
ATOM     15  C   UNL     1       1.073   9.458  20.731  0.00  0.00    +0.000 A 
ATOM     16  C   UNL     1       1.144  10.243  19.585  0.00  0.00    +0.000 A 
ATOM     17  C   UNL     1       1.606   9.701  18.387  0.00  0.00    +0.000 A 
ATOM     18  C   UNL     1       1.994   8.356  18.339  0.00  0.00    +0.000 A 
BRANCH  16  19
ATOM     19  S   UNL     1       0.592  11.917  19.654  0.00  0.00    +0.000 S 
ATOM     20  O   UNL     1       1.397  12.724  18.766  0.00  0.00    +0.000 OA
ATOM     21  O   UNL     1      -0.851  11.944  19.634  0.00  0.00    +0.000 OA
BRANCH  19  22
ATOM     22  N   UNL     1       1.041  12.353  21.212  0.00  0.00    +0.000 NA
ATOM     23  H   UNL     1       0.223  12.673  21.730  0.00  0.00    +0.000 HD
ATOM     24  H   UNL     1       1.542  11.583  21.656  0.00  0.00    +0.000 HD
ENDBRANCH  19  22
ENDBRANCH  16  19
ENDBRANCH   5  13
BRANCH   3  25
ATOM     25  C   UNL     1       1.961   2.776  20.770  0.00  0.00    +0.000 C 
ATOM     26  F   UNL     1       1.721   1.688  19.996  0.00  0.00    +0.000 F 
ATOM     27  F   UNL     1       3.106   2.522  21.457  0.00  0.00    +0.000 F 
ATOM     28  F   UNL     1       0.963   2.839  21.688  0.00  0.00    +0.000 F 
ENDBRANCH   3  25
TORSDOF 5
ENDMDL
MODEL 5
REMARK VINA RESULT:      -8.3      0.603      1.197
REMARK  Name = 
REMARK  6 active torsions:
REMARK  status: ('A' for Active; 'I' for Inactive)
REMARK    1  A    between atoms: C_1  and  N_2
REMARK    2  A    between atoms: C_5  and  C_6
REMARK    3  A    between atoms: C_8  and  C_9
REMARK    4  A    between atoms: N_14  and  C_15
REMARK    5  A    between atoms: C_18  and  S_19
REMARK    6  A    between atoms: S_19  and  N_20
REMARK                            x       y       z     vdW  Elec       q    Type
REMARK                         _______ _______ _______ _____ _____    ______ ____
ROOT
ATOM      1  C   UNL     1       2.541   5.305  18.170  0.00  0.00    +0.000 C 
ATOM      2  O   UNL     1       2.263   3.915  18.597  0.00  0.00    +0.000 OA
ATOM      3  C   UNL     1       2.087   4.024  19.995  0.00  0.00    +0.000 C 
ATOM      4  C   UNL     1       2.038   5.287  20.417  0.00  0.00    +0.000 C 
ATOM      5  N   UNL     1       2.221   6.136  19.357  0.00  0.00    +0.000 N 
ENDROOT
BRANCH   1  10
ATOM      6  C   UNL     1       6.970   4.844  14.613  0.00  0.00    +0.000 C 
ATOM      7  N   UNL     1       5.884   4.975  15.586  0.00  0.00    +0.000 N 
ATOM      8  C   UNL     1       5.427   3.881  16.308  0.00  0.00    +0.000 C 
ATOM      9  C   UNL     1       4.569   3.984  17.334  0.00  0.00    +0.000 C 
ATOM     10  C   UNL     1       4.064   5.347  17.810  0.00  0.00    +0.000 C 
ATOM     11  C   UNL     1       4.478   6.454  16.852  0.00  0.00    +0.000 C 
ATOM     12  C   UNL     1       5.336   6.222  15.850  0.00  0.00    +0.000 C 
ENDBRANCH   1  10
BRANCH   5  13
ATOM     13  C   UNL     1       1.888   7.489  19.336  0.00  0.00    +0.000 A 
ATOM     14  C   UNL     1       2.007   8.233  18.146  0.00  0.00    +0.000 A 
ATOM     15  C   UNL     1       1.739   9.602  18.096  0.00  0.00    +0.000 A 
ATOM     16  C   UNL     1       1.331  10.258  19.253  0.00  0.00    +0.000 A 
ATOM     17  C   UNL     1       1.179   9.554  20.446  0.00  0.00    +0.000 A 
ATOM     18  C   UNL     1       1.445   8.179  20.477  0.00  0.00    +0.000 A 
BRANCH  16  19
ATOM     19  S   UNL     1       1.062  12.001  19.204  0.00  0.00    +0.000 S 
ATOM     20  O   UNL     1       0.542  12.441  20.477  0.00  0.00    +0.000 OA
ATOM     21  O   UNL     1       2.188  12.639  18.562  0.00  0.00    +0.000 OA
BRANCH  19  22
ATOM     22  N   UNL     1      -0.213  12.111  18.118  0.00  0.00    +0.000 NA
ATOM     23  H   UNL     1      -1.075  11.802  18.566  0.00  0.00    +0.000 HD
ATOM     24  H   UNL     1      -0.258  13.054  17.732  0.00  0.00    +0.000 HD
ENDBRANCH  19  22
ENDBRANCH  16  19
ENDBRANCH   5  13
BRANCH   3  25
ATOM     25  C   UNL     1       1.982   2.801  20.837  0.00  0.00    +0.000 C 
ATOM     26  F   UNL     1       0.957   2.860  21.724  0.00  0.00    +0.000 F 
ATOM     27  F   UNL     1       1.776   1.694  20.076  0.00  0.00    +0.000 F 
ATOM     28  F   UNL     1       3.113   2.575  21.552  0.00  0.00    +0.000 F 
ENDBRANCH   3  25
TORSDOF 5
ENDMDL
MODEL 6
REMARK VINA RESULT:      -8.2      0.750      1.497
REMARK  Name = 
REMARK  6 active torsions:
REMARK  status: ('A' for Active; 'I' for Inactive)
REMARK    1  A    between atoms: C_1  and  N_2
REMARK    2  A    between atoms: C_5  and  C_6
REMARK    3  A    between atoms: C_8  and  C_9
REMARK    4  A    between atoms: N_14  and  C_15
REMARK    5  A    between atoms: C_18  and  S_19
REMARK    6  A    between atoms: S_19  and  N_20
REMARK                            x       y       z     vdW  Elec       q    Type
REMARK                         _______ _______ _______ _____ _____    ______ ____
ROOT
ATOM      1  C   UNL     1       2.538   5.349  18.202  0.00  0.00    +0.000 C 
ATOM      2  O   UNL     1       2.266   3.946  18.590  0.00  0.00    +0.000 OA
ATOM      3  C   UNL     1       2.088   4.015  19.990  0.00  0.00    +0.000 C 
ATOM      4  C   UNL     1       2.032   5.267  20.447  0.00  0.00    +0.000 C 
ATOM      5  N   UNL     1       2.212   6.145  19.411  0.00  0.00    +0.000 N 
ENDROOT
BRANCH   1  10
ATOM      6  C   UNL     1       6.984   4.890  14.666  0.00  0.00    +0.000 C 
ATOM      7  N   UNL     1       5.893   5.023  15.633  0.00  0.00    +0.000 N 
ATOM      8  C   UNL     1       5.451   3.935  16.374  0.00  0.00    +0.000 C 
ATOM      9  C   UNL     1       4.589   4.044  17.396  0.00  0.00    +0.000 C 
ATOM     10  C   UNL     1       4.060   5.408  17.845  0.00  0.00    +0.000 C 
ATOM     11  C   UNL     1       4.460   6.503  16.867  0.00  0.00    +0.000 C 
ATOM     12  C   UNL     1       5.325   6.265  15.872  0.00  0.00    +0.000 C 
ENDBRANCH   1  10
BRANCH   5  13
ATOM     13  C   UNL     1       1.873   7.496  19.426  0.00  0.00    +0.000 A 
ATOM     14  C   UNL     1       1.977   8.271  18.254  0.00  0.00    +0.000 A 
ATOM     15  C   UNL     1       1.703   9.639  18.242  0.00  0.00    +0.000 A 
ATOM     16  C   UNL     1       1.303  10.264  19.418  0.00  0.00    +0.000 A 
ATOM     17  C   UNL     1       1.165   9.530  20.595  0.00  0.00    +0.000 A 
ATOM     18  C   UNL     1       1.438   8.156  20.589  0.00  0.00    +0.000 A 
BRANCH  16  19
ATOM     19  S   UNL     1       1.026  12.007  19.416  0.00  0.00    +0.000 S 
ATOM     20  O   UNL     1       2.044  12.653  18.621  0.00  0.00    +0.000 OA
ATOM     21  O   UNL     1      -0.383  12.264  19.232  0.00  0.00    +0.000 OA
BRANCH  19  22
ATOM     22  N   UNL     1       1.363  12.400  21.012  0.00  0.00    +0.000 NA
ATOM     23  H   UNL     1       0.989  13.325  21.226  0.00  0.00    +0.000 HD
ATOM     24  H   UNL     1       1.027  11.661  21.630  0.00  0.00    +0.000 HD
ENDBRANCH  19  22
ENDBRANCH  16  19
ENDBRANCH   5  13
BRANCH   3  25
ATOM     25  C   UNL     1       1.987   2.770  20.797  0.00  0.00    +0.000 C 
ATOM     26  F   UNL     1       3.132   2.482  21.465  0.00  0.00    +0.000 F 
ATOM     27  F   UNL     1       1.004   2.865  21.732  0.00  0.00    +0.000 F 
ATOM     28  F   UNL     1       1.691   1.688  20.033  0.00  0.00    +0.000 F 
ENDBRANCH   3  25
TORSDOF 5
ENDMDL
MODEL 7
REMARK VINA RESULT:      -8.2      0.959      1.221
REMARK  Name = 
REMARK  6 active torsions:
REMARK  status: ('A' for Active; 'I' for Inactive)
REMARK    1  A    between atoms: C_1  and  N_2
REMARK    2  A    between atoms: C_5  and  C_6
REMARK    3  A    between atoms: C_8  and  C_9
REMARK    4  A    between atoms: N_14  and  C_15
REMARK    5  A    between atoms: C_18  and  S_19
REMARK    6  A    between atoms: S_19  and  N_20
REMARK                            x       y       z     vdW  Elec       q    Type
REMARK                         _______ _______ _______ _____ _____    ______ ____
ROOT
ATOM      1  C   UNL     1       2.431   5.607  18.508  0.00  0.00    +0.000 C 
ATOM      2  O   UNL     1       2.168   4.171  18.749  0.00  0.00    +0.000 OA
ATOM      3  C   UNL     1       1.995   4.092  20.149  0.00  0.00    +0.000 C 
ATOM      4  C   UNL     1       1.935   5.289  20.734  0.00  0.00    +0.000 C 
ATOM      5  N   UNL     1       2.106   6.271  19.795  0.00  0.00    +0.000 N 
ENDROOT
BRANCH   1  10
ATOM      6  C   UNL     1       6.937   5.001  15.071  0.00  0.00    +0.000 C 
ATOM      7  N   UNL     1       5.829   5.181  16.010  0.00  0.00    +0.000 N 
ATOM      8  C   UNL     1       5.440   4.162  16.870  0.00  0.00    +0.000 C 
ATOM      9  C   UNL     1       4.561   4.338  17.868  0.00  0.00    +0.000 C 
ATOM     10  C   UNL     1       3.952   5.712  18.155  0.00  0.00    +0.000 C 
ATOM     11  C   UNL     1       4.302   6.710  17.060  0.00  0.00    +0.000 C 
ATOM     12  C   UNL     1       5.189   6.409  16.103  0.00  0.00    +0.000 C 
ENDBRANCH   1  10
BRANCH   5  13
ATOM     13  C   UNL     1       1.761   7.612  19.953  0.00  0.00    +0.000 A 
ATOM     14  C   UNL     1       1.386   8.107  21.217  0.00  0.00    +0.000 A 
ATOM     15  C   UNL     1       0.978   9.429  21.405  0.00  0.00    +0.000 A 
ATOM     16  C   UNL     1       0.948  10.294  20.317  0.00  0.00    +0.000 A 
ATOM     17  C   UNL     1       1.333   9.850  19.053  0.00  0.00    +0.000 A 
ATOM     18  C   UNL     1       1.747   8.522  18.882  0.00  0.00    +0.000 A 
BRANCH  16  19
ATOM     19  S   UNL     1       0.364  11.943  20.544  0.00  0.00    +0.000 S 
ATOM     20  O   UNL     1       0.008  12.506  19.263  0.00  0.00    +0.000 OA
ATOM     21  O   UNL     1      -0.522  11.982  21.683  0.00  0.00    +0.000 OA
BRANCH  19  22
ATOM     22  N   UNL     1       1.767  12.730  21.023  0.00  0.00    +0.000 NA
ATOM     23  H   UNL     1       1.714  12.958  22.016  0.00  0.00    +0.000 HD
ATOM     24  H   UNL     1       2.582  12.172  20.767  0.00  0.00    +0.000 HD
ENDBRANCH  19  22
ENDBRANCH  16  19
ENDBRANCH   5  13
BRANCH   3  25
ATOM     25  C   UNL     1       1.904   2.768  20.822  0.00  0.00    +0.000 C 
ATOM     26  F   UNL     1       3.015   2.465  21.540  0.00  0.00    +0.000 F 
ATOM     27  F   UNL     1       0.857   2.726  21.689  0.00  0.00    +0.000 F 
ATOM     28  F   UNL     1       1.715   1.757  19.937  0.00  0.00    +0.000 F 
ENDBRANCH   3  25
TORSDOF 5
ENDMDL
MODEL 8
REMARK VINA RESULT:      -8.0      1.155      1.733
REMARK  Name = 
REMARK  6 active torsions:
REMARK  status: ('A' for Active; 'I' for Inactive)
REMARK    1  A    between atoms: C_1  and  N_2
REMARK    2  A    between atoms: C_5  and  C_6
REMARK    3  A    between atoms: C_8  and  C_9
REMARK    4  A    between atoms: N_14  and  C_15
REMARK    5  A    between atoms: C_18  and  S_19
REMARK    6  A    between atoms: S_19  and  N_20
REMARK                            x       y       z     vdW  Elec       q    Type
REMARK                         _______ _______ _______ _____ _____    ______ ____
ROOT
ATOM      1  C   UNL     1       2.663   5.009  18.102  0.00  0.00    +0.000 C 
ATOM      2  O   UNL     1       2.299   3.647  18.552  0.00  0.00    +0.000 OA
ATOM      3  C   UNL     1       2.083   3.801  19.940  0.00  0.00    +0.000 C 
ATOM      4  C   UNL     1       2.086   5.075  20.330  0.00  0.00    +0.000 C 
ATOM      5  N   UNL     1       2.347   5.886  19.257  0.00  0.00    +0.000 N 
ENDROOT
BRANCH   1  10
ATOM      6  C   UNL     1       7.937   7.171  18.054  0.00  0.00    +0.000 C 
ATOM      7  N   UNL     1       6.610   6.552  18.028  0.00  0.00    +0.000 N 
ATOM      8  C   UNL     1       5.747   6.743  16.957  0.00  0.00    +0.000 C 
ATOM      9  C   UNL     1       4.606   6.055  16.802  0.00  0.00    +0.000 C 
ATOM     10  C   UNL     1       4.197   4.964  17.793  0.00  0.00    +0.000 C 
ATOM     11  C   UNL     1       5.108   4.956  19.012  0.00  0.00    +0.000 C 
ATOM     12  C   UNL     1       6.219   5.704  19.054  0.00  0.00    +0.000 C 
ENDBRANCH   1  10
BRANCH   5  13
ATOM     13  C   UNL     1       2.087   7.253  19.192  0.00  0.00    +0.000 A 
ATOM     14  C   UNL     1       1.629   7.946  20.329  0.00  0.00    +0.000 A 
ATOM     15  C   UNL     1       1.303   9.303  20.290  0.00  0.00    +0.000 A 
ATOM     16  C   UNL     1       1.441  10.002  19.096  0.00  0.00    +0.000 A 
ATOM     17  C   UNL     1       1.913   9.360  17.953  0.00  0.00    +0.000 A 
ATOM     18  C   UNL     1       2.243   8.000  18.011  0.00  0.00    +0.000 A 
BRANCH  16  19
ATOM     19  S   UNL     1       0.960  11.699  19.032  0.00  0.00    +0.000 S 
ATOM     20  O   UNL     1      -0.371  11.799  18.481  0.00  0.00    +0.000 OA
ATOM     21  O   UNL     1       1.343  12.349  20.263  0.00  0.00    +0.000 OA
BRANCH  19  22
ATOM     22  N   UNL     1       1.996  12.294  17.854  0.00  0.00    +0.000 NA
ATOM     23  H   UNL     1       1.499  12.377  16.967  0.00  0.00    +0.000 HD
ATOM     24  H   UNL     1       2.423  13.164  18.174  0.00  0.00    +0.000 HD
ENDBRANCH  19  22
ENDBRANCH  16  19
ENDBRANCH   5  13
BRANCH   3  25
ATOM     25  C   UNL     1       1.886   2.607  20.806  0.00  0.00    +0.000 C 
ATOM     26  F   UNL     1       1.696   1.467  20.096  0.00  0.00    +0.000 F 
ATOM     27  F   UNL     1       2.965   2.394  21.605  0.00  0.00    +0.000 F 
ATOM     28  F   UNL     1       0.816   2.745  21.630  0.00  0.00    +0.000 F 
ENDBRANCH   3  25
TORSDOF 5
ENDMDL
MODEL 9
REMARK VINA RESULT:      -8.0      1.319      1.721
REMARK  Name = 
REMARK  6 active torsions:
REMARK  status: ('A' for Active; 'I' for Inactive)
REMARK    1  A    between atoms: C_1  and  N_2
REMARK    2  A    between atoms: C_5  and  C_6
REMARK    3  A    between atoms: C_8  and  C_9
REMARK    4  A    between atoms: N_14  and  C_15
REMARK    5  A    between atoms: C_18  and  S_19
REMARK    6  A    between atoms: S_19  and  N_20
REMARK                            x       y       z     vdW  Elec       q    Type
REMARK                         _______ _______ _______ _____ _____    ______ ____
ROOT
ATOM      1  C   UNL     1       2.649   4.989  18.143  0.00  0.00    +0.000 C 
ATOM      2  O   UNL     1       2.295   3.628  18.605  0.00  0.00    +0.000 OA
ATOM      3  C   UNL     1       2.090   3.789  19.994  0.00  0.00    +0.000 C 
ATOM      4  C   UNL     1       2.090   5.067  20.376  0.00  0.00    +0.000 C 
ATOM      5  N   UNL     1       2.339   5.871  19.296  0.00  0.00    +0.000 N 
ENDROOT
BRANCH   1  10
ATOM      6  C   UNL     1       7.914   7.168  18.048  0.00  0.00    +0.000 C 
ATOM      7  N   UNL     1       6.590   6.545  18.034  0.00  0.00    +0.000 N 
ATOM      8  C   UNL     1       5.717   6.732  16.971  0.00  0.00    +0.000 C 
ATOM      9  C   UNL     1       4.577   6.040  16.826  0.00  0.00    +0.000 C 
ATOM     10  C   UNL     1       4.180   4.949  17.822  0.00  0.00    +0.000 C 
ATOM     11  C   UNL     1       5.102   4.946  19.033  0.00  0.00    +0.000 C 
ATOM     12  C   UNL     1       6.211   5.697  19.064  0.00  0.00    +0.000 C 
ENDBRANCH   1  10
BRANCH   5  13
ATOM     13  C   UNL     1       2.073   7.237  19.225  0.00  0.00    +0.000 A 
ATOM     14  C   UNL     1       1.605   7.932  20.358  0.00  0.00    +0.000 A 
ATOM     15  C   UNL     1       1.271   9.287  20.312  0.00  0.00    +0.000 A 
ATOM     16  C   UNL     1       1.413   9.983  19.117  0.00  0.00    +0.000 A 
ATOM     17  C   UNL     1       1.895   9.339  17.979  0.00  0.00    +0.000 A 
ATOM     18  C   UNL     1       2.232   7.981  18.043  0.00  0.00    +0.000 A 
BRANCH  16  19
ATOM     19  S   UNL     1       0.924  11.677  19.045  0.00  0.00    +0.000 S 
ATOM     20  O   UNL     1       0.439  12.091  20.340  0.00  0.00    +0.000 OA
ATOM     21  O   UNL     1       1.915  12.427  18.309  0.00  0.00    +0.000 OA
BRANCH  19  22
ATOM     22  N   UNL     1      -0.425  11.592  18.050  0.00  0.00    +0.000 NA
ATOM     23  H   UNL     1      -0.784  10.637  18.036  0.00  0.00    +0.000 HD
ATOM     24  H   UNL     1      -1.110  12.292  18.334  0.00  0.00    +0.000 HD
ENDBRANCH  19  22
ENDBRANCH  16  19
ENDBRANCH   5  13
BRANCH   3  25
ATOM     25  C   UNL     1       1.906   2.600  20.869  0.00  0.00    +0.000 C 
ATOM     26  F   UNL     1       0.844   2.721  21.705  0.00  0.00    +0.000 F 
ATOM     27  F   UNL     1       1.698   1.474  20.136  0.00  0.00    +0.000 F 
ATOM     28  F   UNL     1       2.995   2.363  21.643  0.00  0.00    +0.000 F 
ENDBRANCH   3  25
TORSDOF 5
ENDMDL
