MODEL 1
REMARK VINA RESULT:      -7.3      0.000      0.000
REMARK  Name = 
REMARK  11 active torsions:
REMARK  status: ('A' for Active; 'I' for Inactive)
REMARK    1  A    between atoms: C_1  and  C_2
REMARK    2  A    between atoms: C_2  and  C_3
REMARK    3  A    between atoms: C_3  and  O_4
REMARK    4  A    between atoms: O_4  and  C_5
REMARK    5  A    between atoms: C_8  and  C_9
REMARK    6  A    between atoms: C_9  and  C_10
REMARK    7  A    between atoms: C_10  and  C_11
REMARK    8  A    between atoms: C_11  and  O_12
REMARK    9  A    between atoms: O_12  and  N_13
REMARK   10  A    between atoms: C_20  and  C_21
REMARK   11  A    between atoms: C_20  and  C_22
REMARK                            x       y       z     vdW  Elec       q    Type
REMARK                         _______ _______ _______ _____ _____    ______ ____
ROOT
ATOM      1  O   UNL     1       5.438   4.057  19.286  0.00  0.00    +0.000 OA
ENDROOT
BRANCH   1   2
ATOM      2  N   UNL     1       4.087   3.944  19.682  0.00  0.00    +0.000 N 
ATOM      3  C   UNL     1       3.738   2.741  20.235  0.00  0.00    +0.000 C 
ATOM      4  N   UNL     1       4.757   2.031  20.799  0.00  0.00    +0.000 N 
ATOM      5  N   UNL     1       2.542   2.265  20.262  0.00  0.00    +0.000 NA
ATOM      6  C   UNL     1       1.553   3.023  19.724  0.00  0.00    +0.000 C 
ATOM      7  N   UNL     1       0.282   2.609  19.944  0.00  0.00    +0.000 N 
ATOM      8  N   UNL     1       1.723   4.071  18.999  0.00  0.00    +0.000 NA
ATOM      9  C   UNL     1       3.098   4.523  18.778  0.00  0.00    +0.000 C 
ATOM     10  C   UNL     1       3.438   4.208  17.312  0.00  0.00    +0.000 C 
ATOM     11  C   UNL     1       3.053   6.045  18.984  0.00  0.00    +0.000 C 
ATOM     12  H   UNL     1       5.627   2.144  20.297  0.00  0.00    +0.000 HD
ATOM     13  H   UNL     1       4.500   1.062  20.954  0.00  0.00    +0.000 HD
ATOM     14  H   UNL     1       0.222   1.616  20.124  0.00  0.00    +0.000 HD
ATOM     15  H   UNL     1      -0.362   2.959  19.248  0.00  0.00    +0.000 HD
ENDBRANCH   1   2
BRANCH   1  16
ATOM     16  C   UNL     1       5.848   5.382  19.634  0.00  0.00    +0.000 C 
BRANCH  16  17
ATOM     17  C   UNL     1       7.352   5.525  19.442  0.00  0.00    +0.000 C 
BRANCH  17  18
ATOM     18  C   UNL     1       7.617   6.352  18.180  0.00  0.00    +0.000 C 
BRANCH  18  22
ATOM     19  C   UNL     1       5.822   4.630  14.653  0.00  0.00    +0.000 A 
ATOM     20  C   UNL     1       6.809   3.946  15.364  0.00  0.00    +0.000 A 
ATOM     21  C   UNL     1       7.385   4.508  16.499  0.00  0.00    +0.000 A 
ATOM     22  C   UNL     1       6.988   5.770  16.945  0.00  0.00    +0.000 A 
ATOM     23  C   UNL     1       5.981   6.448  16.248  0.00  0.00    +0.000 A 
ATOM     24  C   UNL     1       5.402   5.880  15.105  0.00  0.00    +0.000 A 
BRANCH  19  25
ATOM     25  O   UNL     1       5.210   4.159  13.513  0.00  0.00    +0.000 OA
BRANCH  25  26
ATOM     26  C   UNL     1       6.050   3.338  12.700  0.00  0.00    +0.000 C 
BRANCH  26  28
ATOM     27  C   UNL     1       3.940   3.297  11.392  0.00  0.00    +0.000 C 
ATOM     28  C   UNL     1       5.450   3.131  11.319  0.00  0.00    +0.000 C 
ENDBRANCH  26  28
ENDBRANCH  25  26
ENDBRANCH  19  25
ENDBRANCH  18  22
ENDBRANCH  17  18
ENDBRANCH  16  17
ENDBRANCH   1  16
TORSDOF 8
ENDMDL
MODEL 2
REMARK VINA RESULT:      -7.2      6.522      8.837
REMARK  Name = 
REMARK  11 active torsions:
REMARK  status: ('A' for Active; 'I' for Inactive)
REMARK    1  A    between atoms: C_1  and  C_2
REMARK    2  A    between atoms: C_2  and  C_3
REMARK    3  A    between atoms: C_3  and  O_4
REMARK    4  A    between atoms: O_4  and  C_5
REMARK    5  A    between atoms: C_8  and  C_9
REMARK    6  A    between atoms: C_9  and  C_10
REMARK    7  A    between atoms: C_10  and  C_11
REMARK    8  A    between atoms: C_11  and  O_12
REMARK    9  A    between atoms: O_12  and  N_13
REMARK   10  A    between atoms: C_20  and  C_21
REMARK   11  A    between atoms: C_20  and  C_22
REMARK                            x       y       z     vdW  Elec       q    Type
REMARK                         _______ _______ _______ _____ _____    ______ ____
ROOT
ATOM      1  O   UNL     1       9.490  10.842  17.838  0.00  0.00    +0.000 OA
ENDROOT
BRANCH   1   2
ATOM      2  N   UNL     1       9.405  12.068  18.532  0.00  0.00    +0.000 N 
ATOM      3  C   UNL     1       8.695  13.052  17.897  0.00  0.00    +0.000 C 
ATOM      4  N   UNL     1       7.765  12.622  16.996  0.00  0.00    +0.000 N 
ATOM      5  N   UNL     1       8.842  14.314  18.103  0.00  0.00    +0.000 NA
ATOM      6  C   UNL     1       9.750  14.695  19.036  0.00  0.00    +0.000 C 
ATOM      7  N   UNL     1       9.746  16.003  19.391  0.00  0.00    +0.000 N 
ATOM      8  N   UNL     1      10.631  13.931  19.580  0.00  0.00    +0.000 NA
ATOM      9  C   UNL     1      10.621  12.517  19.205  0.00  0.00    +0.000 C 
ATOM     10  C   UNL     1      11.858  12.281  18.325  0.00  0.00    +0.000 C 
ATOM     11  C   UNL     1      10.775  11.754  20.530  0.00  0.00    +0.000 C 
ATOM     12  H   UNL     1       8.062  11.790  16.504  0.00  0.00    +0.000 HD
ATOM     13  H   UNL     1       7.462  13.370  16.381  0.00  0.00    +0.000 HD
ATOM     14  H   UNL     1       9.369  16.600  18.668  0.00  0.00    +0.000 HD
ATOM     15  H   UNL     1      10.633  16.300  19.773  0.00  0.00    +0.000 HD
ENDBRANCH   1   2
BRANCH   1  16
ATOM     16  C   UNL     1       8.833   9.871  18.658  0.00  0.00    +0.000 C 
BRANCH  16  17
ATOM     17  C   UNL     1       8.016   8.926  17.788  0.00  0.00    +0.000 C 
BRANCH  17  18
ATOM     18  C   UNL     1       8.168   7.499  18.323  0.00  0.00    +0.000 C 
BRANCH  18  22
ATOM     19  C   UNL     1       4.746   4.983  17.555  0.00  0.00    +0.000 A 
ATOM     20  C   UNL     1       5.577   4.751  18.652  0.00  0.00    +0.000 A 
ATOM     21  C   UNL     1       6.680   5.565  18.892  0.00  0.00    +0.000 A 
ATOM     22  C   UNL     1       6.977   6.626  18.036  0.00  0.00    +0.000 A 
ATOM     23  C   UNL     1       6.133   6.877  16.949  0.00  0.00    +0.000 A 
ATOM     24  C   UNL     1       5.022   6.057  16.709  0.00  0.00    +0.000 A 
BRANCH  19  25
ATOM     25  O   UNL     1       3.646   4.221  17.232  0.00  0.00    +0.000 OA
BRANCH  25  26
ATOM     26  C   UNL     1       2.427   4.683  17.817  0.00  0.00    +0.000 C 
BRANCH  26  28
ATOM     27  C   UNL     1       2.273   2.210  17.984  0.00  0.00    +0.000 C 
ATOM     28  C   UNL     1       1.549   3.521  18.254  0.00  0.00    +0.000 C 
ENDBRANCH  26  28
ENDBRANCH  25  26
ENDBRANCH  19  25
ENDBRANCH  18  22
ENDBRANCH  17  18
ENDBRANCH  16  17
ENDBRANCH   1  16
TORSDOF 8
ENDMDL
MODEL 3
REMARK VINA RESULT:      -7.1      1.122      1.684
REMARK  Name = 
REMARK  11 active torsions:
REMARK  status: ('A' for Active; 'I' for Inactive)
REMARK    1  A    between atoms: C_1  and  C_2
REMARK    2  A    between atoms: C_2  and  C_3
REMARK    3  A    between atoms: C_3  and  O_4
REMARK    4  A    between atoms: O_4  and  C_5
REMARK    5  A    between atoms: C_8  and  C_9
REMARK    6  A    between atoms: C_9  and  C_10
REMARK    7  A    between atoms: C_10  and  C_11
REMARK    8  A    between atoms: C_11  and  O_12
REMARK    9  A    between atoms: O_12  and  N_13
REMARK   10  A    between atoms: C_20  and  C_21
REMARK   11  A    between atoms: C_20  and  C_22
REMARK                            x       y       z     vdW  Elec       q    Type
REMARK                         _______ _______ _______ _____ _____    ______ ____
ROOT
ATOM      1  O   UNL     1       5.098   4.245  18.487  0.00  0.00    +0.000 OA
ENDROOT
BRANCH   1   2
ATOM      2  N   UNL     1       4.085   4.108  19.461  0.00  0.00    +0.000 N 
ATOM      3  C   UNL     1       3.988   2.868  20.034  0.00  0.00    +0.000 C 
ATOM      4  N   UNL     1       5.125   2.115  20.009  0.00  0.00    +0.000 N 
ATOM      5  N   UNL     1       2.925   2.396  20.587  0.00  0.00    +0.000 NA
ATOM      6  C   UNL     1       1.830   3.195  20.624  0.00  0.00    +0.000 C 
ATOM      7  N   UNL     1       0.793   2.771  21.386  0.00  0.00    +0.000 N 
ATOM      8  N   UNL     1       1.682   4.294  19.972  0.00  0.00    +0.000 NA
ATOM      9  C   UNL     1       2.811   4.756  19.163  0.00  0.00    +0.000 C 
ATOM     10  C   UNL     1       2.416   4.550  17.692  0.00  0.00    +0.000 C 
ATOM     11  C   UNL     1       2.925   6.258  19.463  0.00  0.00    +0.000 C 
ATOM     12  H   UNL     1       5.665   2.261  19.168  0.00  0.00    +0.000 HD
ATOM     13  H   UNL     1       4.933   1.138  20.204  0.00  0.00    +0.000 HD
ATOM     14  H   UNL     1       0.786   1.768  21.508  0.00  0.00    +0.000 HD
ATOM     15  H   UNL     1      -0.088   3.173  21.095  0.00  0.00    +0.000 HD
ENDBRANCH   1   2
BRANCH   1  16
ATOM     16  C   UNL     1       5.826   5.427  18.830  0.00  0.00    +0.000 C 
BRANCH  16  17
ATOM     17  C   UNL     1       6.090   6.254  17.579  0.00  0.00    +0.000 C 
BRANCH  17  18
ATOM     18  C   UNL     1       7.207   5.590  16.769  0.00  0.00    +0.000 C 
BRANCH  18  22
ATOM     19  C   UNL     1       5.750   3.727  13.157  0.00  0.00    +0.000 A 
ATOM     20  C   UNL     1       4.987   3.723  14.326  0.00  0.00    +0.000 A 
ATOM     21  C   UNL     1       5.464   4.324  15.487  0.00  0.00    +0.000 A 
ATOM     22  C   UNL     1       6.717   4.937  15.505  0.00  0.00    +0.000 A 
ATOM     23  C   UNL     1       7.475   4.964  14.328  0.00  0.00    +0.000 A 
ATOM     24  C   UNL     1       6.993   4.359  13.159  0.00  0.00    +0.000 A 
BRANCH  19  25
ATOM     25  O   UNL     1       5.366   3.145  11.970  0.00  0.00    +0.000 OA
BRANCH  25  26
ATOM     26  C   UNL     1       4.558   3.985  11.146  0.00  0.00    +0.000 C 
BRANCH  26  28
ATOM     27  C   UNL     1       2.706   4.077   9.494  0.00  0.00    +0.000 C 
ATOM     28  C   UNL     1       3.397   3.213  10.539  0.00  0.00    +0.000 C 
ENDBRANCH  26  28
ENDBRANCH  25  26
ENDBRANCH  19  25
ENDBRANCH  18  22
ENDBRANCH  17  18
ENDBRANCH  16  17
ENDBRANCH   1  16
TORSDOF 8
ENDMDL
MODEL 4
REMARK VINA RESULT:      -7.1      1.664      2.238
REMARK  Name = 
REMARK  11 active torsions:
REMARK  status: ('A' for Active; 'I' for Inactive)
REMARK    1  A    between atoms: C_1  and  C_2
REMARK    2  A    between atoms: C_2  and  C_3
REMARK    3  A    between atoms: C_3  and  O_4
REMARK    4  A    between atoms: O_4  and  C_5
REMARK    5  A    between atoms: C_8  and  C_9
REMARK    6  A    between atoms: C_9  and  C_10
REMARK    7  A    between atoms: C_10  and  C_11
REMARK    8  A    between atoms: C_11  and  O_12
REMARK    9  A    between atoms: O_12  and  N_13
REMARK   10  A    between atoms: C_20  and  C_21
REMARK   11  A    between atoms: C_20  and  C_22
REMARK                            x       y       z     vdW  Elec       q    Type
REMARK                         _______ _______ _______ _____ _____    ______ ____
ROOT
ATOM      1  O   UNL     1       4.384   5.422  17.925  0.00  0.00    +0.000 OA
ENDROOT
BRANCH   1   2
ATOM      2  N   UNL     1       3.869   4.952  19.152  0.00  0.00    +0.000 N 
ATOM      3  C   UNL     1       4.262   3.689  19.507  0.00  0.00    +0.000 C 
ATOM      4  N   UNL     1       5.438   3.262  18.962  0.00  0.00    +0.000 N 
ATOM      5  N   UNL     1       3.615   2.915  20.306  0.00  0.00    +0.000 NA
ATOM      6  C   UNL     1       2.472   3.397  20.856  0.00  0.00    +0.000 C 
ATOM      7  N   UNL     1       1.916   2.660  21.848  0.00  0.00    +0.000 N 
ATOM      8  N   UNL     1       1.858   4.467  20.491  0.00  0.00    +0.000 NA
ATOM      9  C   UNL     1       2.470   5.268  19.430  0.00  0.00    +0.000 C 
ATOM     10  C   UNL     1       1.602   5.081  18.175  0.00  0.00    +0.000 C 
ATOM     11  C   UNL     1       2.367   6.720  19.919  0.00  0.00    +0.000 C 
ATOM     12  H   UNL     1       5.574   3.608  18.022  0.00  0.00    +0.000 HD
ATOM     13  H   UNL     1       5.546   2.256  19.044  0.00  0.00    +0.000 HD
ATOM     14  H   UNL     1       2.170   1.683  21.795  0.00  0.00    +0.000 HD
ATOM     15  H   UNL     1       0.927   2.841  21.954  0.00  0.00    +0.000 HD
ENDBRANCH   1   2
BRANCH   1  16
ATOM     16  C   UNL     1       5.537   6.204  18.248  0.00  0.00    +0.000 C 
BRANCH  16  17
ATOM     17  C   UNL     1       6.261   6.610  16.972  0.00  0.00    +0.000 C 
BRANCH  17  18
ATOM     18  C   UNL     1       7.216   5.486  16.560  0.00  0.00    +0.000 C 
BRANCH  18  22
ATOM     19  C   UNL     1       6.251   3.802  12.705  0.00  0.00    +0.000 A 
ATOM     20  C   UNL     1       5.444   3.558  13.818  0.00  0.00    +0.000 A 
ATOM     21  C   UNL     1       5.762   4.103  15.058  0.00  0.00    +0.000 A 
ATOM     22  C   UNL     1       6.898   4.899  15.212  0.00  0.00    +0.000 A 
ATOM     23  C   UNL     1       7.696   5.165  14.093  0.00  0.00    +0.000 A 
ATOM     24  C   UNL     1       7.374   4.617  12.845  0.00  0.00    +0.000 A 
BRANCH  19  25
ATOM     25  O   UNL     1       6.023   3.293  11.446  0.00  0.00    +0.000 OA
BRANCH  25  26
ATOM     26  C   UNL     1       5.513   1.959  11.443  0.00  0.00    +0.000 C 
BRANCH  26  28
ATOM     27  C   UNL     1       6.064  -0.454  11.245  0.00  0.00    +0.000 C 
ATOM     28  C   UNL     1       6.579   0.961  11.022  0.00  0.00    +0.000 C 
ENDBRANCH  26  28
ENDBRANCH  25  26
ENDBRANCH  19  25
ENDBRANCH  18  22
ENDBRANCH  17  18
ENDBRANCH  16  17
ENDBRANCH   1  16
TORSDOF 8
ENDMDL
MODEL 5
REMARK VINA RESULT:      -7.0      6.036      8.312
REMARK  Name = 
REMARK  11 active torsions:
REMARK  status: ('A' for Active; 'I' for Inactive)
REMARK    1  A    between atoms: C_1  and  C_2
REMARK    2  A    between atoms: C_2  and  C_3
REMARK    3  A    between atoms: C_3  and  O_4
REMARK    4  A    between atoms: O_4  and  C_5
REMARK    5  A    between atoms: C_8  and  C_9
REMARK    6  A    between atoms: C_9  and  C_10
REMARK    7  A    between atoms: C_10  and  C_11
REMARK    8  A    between atoms: C_11  and  O_12
REMARK    9  A    between atoms: O_12  and  N_13
REMARK   10  A    between atoms: C_20  and  C_21
REMARK   11  A    between atoms: C_20  and  C_22
REMARK                            x       y       z     vdW  Elec       q    Type
REMARK                         _______ _______ _______ _____ _____    ______ ____
ROOT
ATOM      1  O   UNL     1       7.683   6.990  17.528  0.00  0.00    +0.000 OA
ENDROOT
BRANCH   1   2
ATOM      2  N   UNL     1       6.588   6.161  17.853  0.00  0.00    +0.000 N 
ATOM      3  C   UNL     1       6.783   5.325  18.920  0.00  0.00    +0.000 C 
ATOM      4  N   UNL     1       7.726   5.725  19.820  0.00  0.00    +0.000 N 
ATOM      5  N   UNL     1       6.141   4.227  19.119  0.00  0.00    +0.000 NA
ATOM      6  C   UNL     1       5.184   3.888  18.219  0.00  0.00    +0.000 C 
ATOM      7  N   UNL     1       4.379   2.849  18.549  0.00  0.00    +0.000 N 
ATOM      8  N   UNL     1       5.004   4.442  17.073  0.00  0.00    +0.000 NA
ATOM      9  C   UNL     1       5.865   5.574  16.728  0.00  0.00    +0.000 C 
ATOM     10  C   UNL     1       6.838   5.078  15.645  0.00  0.00    +0.000 C 
ATOM     11  C   UNL     1       4.919   6.626  16.131  0.00  0.00    +0.000 C 
ATOM     12  H   UNL     1       8.502   6.201  19.379  0.00  0.00    +0.000 HD
ATOM     13  H   UNL     1       8.010   4.967  20.431  0.00  0.00    +0.000 HD
ATOM     14  H   UNL     1       4.814   2.213  19.204  0.00  0.00    +0.000 HD
ATOM     15  H   UNL     1       3.964   2.411  17.738  0.00  0.00    +0.000 HD
ENDBRANCH   1   2
BRANCH   1  16
ATOM     16  C   UNL     1       7.258   8.333  17.780  0.00  0.00    +0.000 C 
BRANCH  16  17
ATOM     17  C   UNL     1       8.434   9.286  17.624  0.00  0.00    +0.000 C 
BRANCH  17  18
ATOM     18  C   UNL     1       8.929   9.699  19.013  0.00  0.00    +0.000 C 
BRANCH  18  22
ATOM     19  C   UNL     1      11.516  13.152  18.891  0.00  0.00    +0.000 A 
ATOM     20  C   UNL     1      11.370  12.324  17.777  0.00  0.00    +0.000 A 
ATOM     21  C   UNL     1      10.535  11.212  17.824  0.00  0.00    +0.000 A 
ATOM     22  C   UNL     1       9.833  10.901  18.990  0.00  0.00    +0.000 A 
ATOM     23  C   UNL     1       9.959  11.742  20.101  0.00  0.00    +0.000 A 
ATOM     24  C   UNL     1      10.799  12.863  20.052  0.00  0.00    +0.000 A 
BRANCH  19  25
ATOM     25  O   UNL     1      12.330  14.262  18.940  0.00  0.00    +0.000 OA
BRANCH  25  26
ATOM     26  C   UNL     1      11.623  15.502  18.924  0.00  0.00    +0.000 C 
BRANCH  26  28
ATOM     27  C   UNL     1      11.122  17.511  17.555  0.00  0.00    +0.000 C 
ATOM     28  C   UNL     1      12.149  16.425  17.837  0.00  0.00    +0.000 C 
ENDBRANCH  26  28
ENDBRANCH  25  26
ENDBRANCH  19  25
ENDBRANCH  18  22
ENDBRANCH  17  18
ENDBRANCH  16  17
ENDBRANCH   1  16
TORSDOF 8
ENDMDL
MODEL 6
REMARK VINA RESULT:      -6.9      5.891      8.301
REMARK  Name = 
REMARK  11 active torsions:
REMARK  status: ('A' for Active; 'I' for Inactive)
REMARK    1  A    between atoms: C_1  and  C_2
REMARK    2  A    between atoms: C_2  and  C_3
REMARK    3  A    between atoms: C_3  and  O_4
REMARK    4  A    between atoms: O_4  and  C_5
REMARK    5  A    between atoms: C_8  and  C_9
REMARK    6  A    between atoms: C_9  and  C_10
REMARK    7  A    between atoms: C_10  and  C_11
REMARK    8  A    between atoms: C_11  and  O_12
REMARK    9  A    between atoms: O_12  and  N_13
REMARK   10  A    between atoms: C_20  and  C_21
REMARK   11  A    between atoms: C_20  and  C_22
REMARK                            x       y       z     vdW  Elec       q    Type
REMARK                         _______ _______ _______ _____ _____    ______ ____
ROOT
ATOM      1  O   UNL     1       3.077   6.490  17.867  0.00  0.00    +0.000 OA
ENDROOT
BRANCH   1   2
ATOM      2  N   UNL     1       3.523   5.478  18.744  0.00  0.00    +0.000 N 
ATOM      3  C   UNL     1       4.835   5.115  18.600  0.00  0.00    +0.000 C 
ATOM      4  N   UNL     1       5.653   6.058  18.050  0.00  0.00    +0.000 N 
ATOM      5  N   UNL     1       5.326   3.978  18.953  0.00  0.00    +0.000 NA
ATOM      6  C   UNL     1       4.485   3.085  19.532  0.00  0.00    +0.000 C 
ATOM      7  N   UNL     1       5.052   1.985  20.085  0.00  0.00    +0.000 N 
ATOM      8  N   UNL     1       3.202   3.178  19.567  0.00  0.00    +0.000 NA
ATOM      9  C   UNL     1       2.596   4.375  18.984  0.00  0.00    +0.000 C 
ATOM     10  C   UNL     1       1.912   3.935  17.680  0.00  0.00    +0.000 C 
ATOM     11  C   UNL     1       1.534   4.819  20.002  0.00  0.00    +0.000 C 
ATOM     12  H   UNL     1       5.182   6.611  17.347  0.00  0.00    +0.000 HD
ATOM     13  H   UNL     1       6.529   5.658  17.732  0.00  0.00    +0.000 HD
ATOM     14  H   UNL     1       5.945   1.759  19.670  0.00  0.00    +0.000 HD
ATOM     15  H   UNL     1       4.404   1.212  20.155  0.00  0.00    +0.000 HD
ENDBRANCH   1   2
BRANCH   1  16
ATOM     16  C   UNL     1       2.479   7.497  18.688  0.00  0.00    +0.000 C 
BRANCH  16  17
ATOM     17  C   UNL     1       1.762   8.518  17.816  0.00  0.00    +0.000 C 
BRANCH  17  18
ATOM     18  C   UNL     1       1.251   9.659  18.700  0.00  0.00    +0.000 C 
BRANCH  18  22
ATOM     19  C   UNL     1      -2.663  11.050  17.527  0.00  0.00    +0.000 A 
ATOM     20  C   UNL     1      -2.078   9.943  16.908  0.00  0.00    +0.000 A 
ATOM     21  C   UNL     1      -0.816   9.502  17.290  0.00  0.00    +0.000 A 
ATOM     22  C   UNL     1      -0.108  10.161  18.297  0.00  0.00    +0.000 A 
ATOM     23  C   UNL     1      -0.701  11.257  18.935  0.00  0.00    +0.000 A 
ATOM     24  C   UNL     1      -1.974  11.700  18.550  0.00  0.00    +0.000 A 
BRANCH  19  25
ATOM     25  O   UNL     1      -3.898  11.566  17.203  0.00  0.00    +0.000 OA
BRANCH  25  26
ATOM     26  C   UNL     1      -4.775  11.718  18.320  0.00  0.00    +0.000 C 
BRANCH  26  28
ATOM     27  C   UNL     1      -6.714  12.780  17.191  0.00  0.00    +0.000 C 
ATOM     28  C   UNL     1      -6.227  11.532  17.912  0.00  0.00    +0.000 C 
ENDBRANCH  26  28
ENDBRANCH  25  26
ENDBRANCH  19  25
ENDBRANCH  18  22
ENDBRANCH  17  18
ENDBRANCH  16  17
ENDBRANCH   1  16
TORSDOF 8
ENDMDL
MODEL 7
REMARK VINA RESULT:      -6.8      6.967      9.500
REMARK  Name = 
REMARK  11 active torsions:
REMARK  status: ('A' for Active; 'I' for Inactive)
REMARK    1  A    between atoms: C_1  and  C_2
REMARK    2  A    between atoms: C_2  and  C_3
REMARK    3  A    between atoms: C_3  and  O_4
REMARK    4  A    between atoms: O_4  and  C_5
REMARK    5  A    between atoms: C_8  and  C_9
REMARK    6  A    between atoms: C_9  and  C_10
REMARK    7  A    between atoms: C_10  and  C_11
REMARK    8  A    between atoms: C_11  and  O_12
REMARK    9  A    between atoms: O_12  and  N_13
REMARK   10  A    between atoms: C_20  and  C_21
REMARK   11  A    between atoms: C_20  and  C_22
REMARK                            x       y       z     vdW  Elec       q    Type
REMARK                         _______ _______ _______ _____ _____    ______ ____
ROOT
ATOM      1  O   UNL     1       9.606  11.217  18.751  0.00  0.00    +0.000 OA
ENDROOT
BRANCH   1   2
ATOM      2  N   UNL     1       9.940  12.343  17.968  0.00  0.00    +0.000 N 
ATOM      3  C   UNL     1      11.257  12.435  17.606  0.00  0.00    +0.000 C 
ATOM      4  N   UNL     1      11.945  11.257  17.575  0.00  0.00    +0.000 N 
ATOM      5  N   UNL     1      11.858  13.530  17.292  0.00  0.00    +0.000 NA
ATOM      6  C   UNL     1      11.125  14.671  17.298  0.00  0.00    +0.000 C 
ATOM      7  N   UNL     1      11.710  15.773  16.768  0.00  0.00    +0.000 N 
ATOM      8  N   UNL     1       9.945  14.801  17.793  0.00  0.00    +0.000 NA
ATOM      9  C   UNL     1       9.311  13.605  18.350  0.00  0.00    +0.000 C 
ATOM     10  C   UNL     1       9.302  13.777  19.877  0.00  0.00    +0.000 C 
ATOM     11  C   UNL     1       7.871  13.634  17.816  0.00  0.00    +0.000 C 
ATOM     12  H   UNL     1      11.644  10.618  18.298  0.00  0.00    +0.000 HD
ATOM     13  H   UNL     1      12.948  11.408  17.559  0.00  0.00    +0.000 HD
ATOM     14  H   UNL     1      12.719  15.729  16.799  0.00  0.00    +0.000 HD
ATOM     15  H   UNL     1      11.307  16.630  17.122  0.00  0.00    +0.000 HD
ENDBRANCH   1   2
BRANCH   1  16
ATOM     16  C   UNL     1       8.600  10.507  18.023  0.00  0.00    +0.000 C 
BRANCH  16  17
ATOM     17  C   UNL     1       8.560   9.055  18.478  0.00  0.00    +0.000 C 
BRANCH  17  18
ATOM     18  C   UNL     1       8.134   8.174  17.299  0.00  0.00    +0.000 C 
BRANCH  18  22
ATOM     19  C   UNL     1       5.313   5.081  18.351  0.00  0.00    +0.000 A 
ATOM     20  C   UNL     1       5.028   6.001  17.340  0.00  0.00    +0.000 A 
ATOM     21  C   UNL     1       5.941   6.996  17.007  0.00  0.00    +0.000 A 
ATOM     22  C   UNL     1       7.158   7.097  17.683  0.00  0.00    +0.000 A 
ATOM     23  C   UNL     1       7.457   6.162  18.681  0.00  0.00    +0.000 A 
ATOM     24  C   UNL     1       6.537   5.159  19.014  0.00  0.00    +0.000 A 
BRANCH  19  25
ATOM     25  O   UNL     1       4.464   4.076  18.756  0.00  0.00    +0.000 OA
BRANCH  25  26
ATOM     26  C   UNL     1       3.533   4.473  19.763  0.00  0.00    +0.000 C 
BRANCH  26  28
ATOM     27  C   UNL     1       2.110   3.506  21.554  0.00  0.00    +0.000 C 
ATOM     28  C   UNL     1       2.584   3.340  20.117  0.00  0.00    +0.000 C 
ENDBRANCH  26  28
ENDBRANCH  25  26
ENDBRANCH  19  25
ENDBRANCH  18  22
ENDBRANCH  17  18
ENDBRANCH  16  17
ENDBRANCH   1  16
TORSDOF 8
ENDMDL
MODEL 8
REMARK VINA RESULT:      -6.8      1.212      1.699
REMARK  Name = 
REMARK  11 active torsions:
REMARK  status: ('A' for Active; 'I' for Inactive)
REMARK    1  A    between atoms: C_1  and  C_2
REMARK    2  A    between atoms: C_2  and  C_3
REMARK    3  A    between atoms: C_3  and  O_4
REMARK    4  A    between atoms: O_4  and  C_5
REMARK    5  A    between atoms: C_8  and  C_9
REMARK    6  A    between atoms: C_9  and  C_10
REMARK    7  A    between atoms: C_10  and  C_11
REMARK    8  A    between atoms: C_11  and  O_12
REMARK    9  A    between atoms: O_12  and  N_13
REMARK   10  A    between atoms: C_20  and  C_21
REMARK   11  A    between atoms: C_20  and  C_22
REMARK                            x       y       z     vdW  Elec       q    Type
REMARK                         _______ _______ _______ _____ _____    ______ ____
ROOT
ATOM      1  O   UNL     1       5.207   3.794  18.341  0.00  0.00    +0.000 OA
ENDROOT
BRANCH   1   2
ATOM      2  N   UNL     1       4.075   3.822  19.185  0.00  0.00    +0.000 N 
ATOM      3  C   UNL     1       3.939   2.743  20.016  0.00  0.00    +0.000 C 
ATOM      4  N   UNL     1       5.090   2.074  20.312  0.00  0.00    +0.000 N 
ATOM      5  N   UNL     1       2.825   2.345  20.526  0.00  0.00    +0.000 NA
ATOM      6  C   UNL     1       1.711   3.063  20.237  0.00  0.00    +0.000 C 
ATOM      7  N   UNL     1       0.593   2.762  20.941  0.00  0.00    +0.000 N 
ATOM      8  N   UNL     1       1.621   3.973  19.332  0.00  0.00    +0.000 NA
ATOM      9  C   UNL     1       2.835   4.306  18.586  0.00  0.00    +0.000 C 
ATOM     10  C   UNL     1       2.651   3.745  17.167  0.00  0.00    +0.000 C 
ATOM     11  C   UNL     1       2.862   5.841  18.537  0.00  0.00    +0.000 C 
ATOM     12  H   UNL     1       5.735   2.057  19.534  0.00  0.00    +0.000 HD
ATOM     13  H   UNL     1       4.903   1.157  20.704  0.00  0.00    +0.000 HD
ATOM     14  H   UNL     1       0.600   1.815  21.293  0.00  0.00    +0.000 HD
ATOM     15  H   UNL     1      -0.251   3.033  20.456  0.00  0.00    +0.000 HD
ENDBRANCH   1   2
BRANCH   1  16
ATOM     16  C   UNL     1       6.038   4.885  18.749  0.00  0.00    +0.000 C 
BRANCH  16  17
ATOM     17  C   UNL     1       6.100   5.930  17.644  0.00  0.00    +0.000 C 
BRANCH  17  18
ATOM     18  C   UNL     1       7.326   5.657  16.768  0.00  0.00    +0.000 C 
BRANCH  18  22
ATOM     19  C   UNL     1       6.379   4.139  12.840  0.00  0.00    +0.000 A 
ATOM     20  C   UNL     1       7.519   4.915  13.055  0.00  0.00    +0.000 A 
ATOM     21  C   UNL     1       7.818   5.402  14.323  0.00  0.00    +0.000 A 
ATOM     22  C   UNL     1       6.978   5.128  15.404  0.00  0.00    +0.000 A 
ATOM     23  C   UNL     1       5.846   4.331  15.196  0.00  0.00    +0.000 A 
ATOM     24  C   UNL     1       5.547   3.840  13.919  0.00  0.00    +0.000 A 
BRANCH  19  25
ATOM     25  O   UNL     1       5.997   3.630  11.619  0.00  0.00    +0.000 OA
BRANCH  25  26
ATOM     26  C   UNL     1       5.179   2.463  11.706  0.00  0.00    +0.000 C 
BRANCH  26  28
ATOM     27  C   UNL     1       7.339   1.611  10.826  0.00  0.00    +0.000 C 
ATOM     28  C   UNL     1       5.950   1.215  11.305  0.00  0.00    +0.000 C 
ENDBRANCH  26  28
ENDBRANCH  25  26
ENDBRANCH  19  25
ENDBRANCH  18  22
ENDBRANCH  17  18
ENDBRANCH  16  17
ENDBRANCH   1  16
TORSDOF 8
ENDMDL
MODEL 9
REMARK VINA RESULT:      -6.8      4.214      7.156
REMARK  Name = 
REMARK  11 active torsions:
REMARK  status: ('A' for Active; 'I' for Inactive)
REMARK    1  A    between atoms: C_1  and  C_2
REMARK    2  A    between atoms: C_2  and  C_3
REMARK    3  A    between atoms: C_3  and  O_4
REMARK    4  A    between atoms: O_4  and  C_5
REMARK    5  A    between atoms: C_8  and  C_9
REMARK    6  A    between atoms: C_9  and  C_10
REMARK    7  A    between atoms: C_10  and  C_11
REMARK    8  A    between atoms: C_11  and  O_12
REMARK    9  A    between atoms: O_12  and  N_13
REMARK   10  A    between atoms: C_20  and  C_21
REMARK   11  A    between atoms: C_20  and  C_22
REMARK                            x       y       z     vdW  Elec       q    Type
REMARK                         _______ _______ _______ _____ _____    ______ ____
ROOT
ATOM      1  O   UNL     1       5.141   4.520  18.674  0.00  0.00    +0.000 OA
ENDROOT
BRANCH   1   2
ATOM      2  N   UNL     1       5.522   4.913  17.373  0.00  0.00    +0.000 N 
ATOM      3  C   UNL     1       5.632   3.895  16.463  0.00  0.00    +0.000 C 
ATOM      4  N   UNL     1       4.901   2.776  16.736  0.00  0.00    +0.000 N 
ATOM      5  N   UNL     1       6.353   3.937  15.397  0.00  0.00    +0.000 NA
ATOM      6  C   UNL     1       7.032   5.085  15.145  0.00  0.00    +0.000 C 
ATOM      7  N   UNL     1       7.613   5.192  13.926  0.00  0.00    +0.000 N 
ATOM      8  N   UNL     1       7.199   6.054  15.974  0.00  0.00    +0.000 NA
ATOM      9  C   UNL     1       6.555   5.940  17.284  0.00  0.00    +0.000 C 
ATOM     10  C   UNL     1       7.674   5.688  18.307  0.00  0.00    +0.000 C 
ATOM     11  C   UNL     1       5.923   7.317  17.536  0.00  0.00    +0.000 C 
ATOM     12  H   UNL     1       4.842   2.588  17.728  0.00  0.00    +0.000 HD
ATOM     13  H   UNL     1       5.213   1.980  16.190  0.00  0.00    +0.000 HD
ATOM     14  H   UNL     1       7.816   4.293  13.512  0.00  0.00    +0.000 HD
ATOM     15  H   UNL     1       8.382   5.848  13.923  0.00  0.00    +0.000 HD
ENDBRANCH   1   2
BRANCH   1  16
ATOM     16  C   UNL     1       3.744   4.216  18.608  0.00  0.00    +0.000 C 
BRANCH  16  17
ATOM     17  C   UNL     1       2.953   5.479  18.302  0.00  0.00    +0.000 C 
BRANCH  17  18
ATOM     18  C   UNL     1       2.903   6.354  19.558  0.00  0.00    +0.000 C 
BRANCH  18  22
ATOM     19  C   UNL     1       0.795  10.065  18.910  0.00  0.00    +0.000 A 
ATOM     20  C   UNL     1       1.529   9.466  17.884  0.00  0.00    +0.000 A 
ATOM     21  C   UNL     1       2.207   8.271  18.101  0.00  0.00    +0.000 A 
ATOM     22  C   UNL     1       2.171   7.651  19.351  0.00  0.00    +0.000 A 
ATOM     23  C   UNL     1       1.417   8.236  20.375  0.00  0.00    +0.000 A 
ATOM     24  C   UNL     1       0.733   9.439  20.156  0.00  0.00    +0.000 A 
BRANCH  19  25
ATOM     25  O   UNL     1       0.108  11.252  18.792  0.00  0.00    +0.000 OA
BRANCH  25  26
ATOM     26  C   UNL     1      -1.311  11.100  18.753  0.00  0.00    +0.000 C 
BRANCH  26  28
ATOM     27  C   UNL     1      -3.242  10.165  17.504  0.00  0.00    +0.000 C 
ATOM     28  C   UNL     1      -1.732  10.104  17.685  0.00  0.00    +0.000 C 
ENDBRANCH  26  28
ENDBRANCH  25  26
ENDBRANCH  19  25
ENDBRANCH  18  22
ENDBRANCH  17  18
ENDBRANCH  16  17
ENDBRANCH   1  16
TORSDOF 8
ENDMDL
