MODEL 1
REMARK VINA RESULT:      -7.1      0.000      0.000
REMARK  Name = 
REMARK  6 active torsions:
REMARK  status: ('A' for Active; 'I' for Inactive)
REMARK    1  A    between atoms: C_2  and  C_3
REMARK    2  A    between atoms: C_3  and  S_4
REMARK    3  A    between atoms: S_4  and  C_5
REMARK    4  A    between atoms: C_5  and  C_6
REMARK    5  A    between atoms: N_13  and  C_14
REMARK    6  A    between atoms: C_14  and  C_15
REMARK                            x       y       z     vdW  Elec       q    Type
REMARK                         _______ _______ _______ _____ _____    ______ ____
ROOT
ATOM      1  O   UNL     1       3.869   2.561  18.460  0.00  0.00    +0.000 OA
ATOM      2  C   UNL     1       3.268   3.425  17.827  0.00  0.00    +0.000 C 
ATOM      3  N   UNL     1       3.849   4.191  16.843  0.00  0.00    +0.000 N 
ATOM      4  H   UNL     1       3.254   4.798  16.292  0.00  0.00    +0.000 HD
ENDROOT
BRANCH   2   5
ATOM      5  C   UNL     1       1.811   3.749  18.103  0.00  0.00    +0.000 C 
BRANCH   5   6
ATOM      6  S   UNL     1       1.568   4.402  19.783  0.00  0.00    +0.000 S 
BRANCH   6   7
ATOM      7  C   UNL     1       2.942   5.608  19.837  0.00  0.00    +0.000 C 
BRANCH   7   8
ATOM      8  C   UNL     1       2.473   6.965  19.382  0.00  0.00    +0.000 A 
ATOM      9  C   UNL     1       2.724   7.422  18.079  0.00  0.00    +0.000 A 
ATOM     10  C   UNL     1       2.234   8.662  17.658  0.00  0.00    +0.000 A 
ATOM     11  C   UNL     1       1.485   9.455  18.528  0.00  0.00    +0.000 A 
ATOM     12  C   UNL     1       1.234   9.012  19.826  0.00  0.00    +0.000 A 
ATOM     13  C   UNL     1       1.729   7.780  20.242  0.00  0.00    +0.000 A 
ATOM     14  F   UNL     1       1.475   7.373  21.495  0.00  0.00    +0.000 F 
ENDBRANCH   7   8
ENDBRANCH   6   7
ENDBRANCH   5   6
ENDBRANCH   2   5
BRANCH   3  15
ATOM     15  C   UNL     1       5.216   4.010  16.420  0.00  0.00    +0.000 C 
BRANCH  15  16
ATOM     16  C   UNL     1       6.116   5.029  17.067  0.00  0.00    +0.000 A 
ATOM     17  C   UNL     1       6.123   6.357  16.610  0.00  0.00    +0.000 A 
ATOM     18  C   UNL     1       6.953   7.308  17.205  0.00  0.00    +0.000 A 
ATOM     19  C   UNL     1       7.786   6.930  18.251  0.00  0.00    +0.000 A 
ATOM     20  F   UNL     1       8.578   7.842  18.827  0.00  0.00    +0.000 F 
ATOM     21  C   UNL     1       7.810   5.617  18.709  0.00  0.00    +0.000 A 
ATOM     22  C   UNL     1       6.978   4.664  18.115  0.00  0.00    +0.000 A 
ENDBRANCH  15  16
ENDBRANCH   3  15
TORSDOF 6
ENDMDL
MODEL 2
REMARK VINA RESULT:      -7.1      0.165      1.069
REMARK  Name = 
REMARK  6 active torsions:
REMARK  status: ('A' for Active; 'I' for Inactive)
REMARK    1  A    between atoms: C_2  and  C_3
REMARK    2  A    between atoms: C_3  and  S_4
REMARK    3  A    between atoms: S_4  and  C_5
REMARK    4  A    between atoms: C_5  and  C_6
REMARK    5  A    between atoms: N_13  and  C_14
REMARK    6  A    between atoms: C_14  and  C_15
REMARK                            x       y       z     vdW  Elec       q    Type
REMARK                         _______ _______ _______ _____ _____    ______ ____
ROOT
ATOM      1  O   UNL     1       3.663   2.477  18.540  0.00  0.00    +0.000 OA
ATOM      2  C   UNL     1       3.080   3.391  17.960  0.00  0.00    +0.000 C 
ATOM      3  N   UNL     1       3.666   4.179  16.997  0.00  0.00    +0.000 N 
ATOM      4  H   UNL     1       3.082   4.832  16.489  0.00  0.00    +0.000 HD
ENDROOT
BRANCH   2   5
ATOM      5  C   UNL     1       1.643   3.755  18.287  0.00  0.00    +0.000 C 
BRANCH   5   6
ATOM      6  S   UNL     1       1.486   4.466  19.954  0.00  0.00    +0.000 S 
BRANCH   6   7
ATOM      7  C   UNL     1       2.872   5.659  19.903  0.00  0.00    +0.000 C 
BRANCH   7   8
ATOM      8  C   UNL     1       2.393   7.004  19.423  0.00  0.00    +0.000 A 
ATOM      9  C   UNL     1       2.624   7.431  18.107  0.00  0.00    +0.000 A 
ATOM     10  C   UNL     1       2.126   8.660  17.664  0.00  0.00    +0.000 A 
ATOM     11  C   UNL     1       1.389   9.472  18.526  0.00  0.00    +0.000 A 
ATOM     12  C   UNL     1       1.159   9.060  19.837  0.00  0.00    +0.000 A 
ATOM     13  C   UNL     1       1.662   7.838  20.275  0.00  0.00    +0.000 A 
ATOM     14  F   UNL     1       1.427   7.461  21.541  0.00  0.00    +0.000 F 
ENDBRANCH   7   8
ENDBRANCH   6   7
ENDBRANCH   5   6
ENDBRANCH   2   5
BRANCH   3  15
ATOM     15  C   UNL     1       5.016   3.967  16.533  0.00  0.00    +0.000 C 
BRANCH  15  16
ATOM     16  C   UNL     1       5.951   4.990  17.120  0.00  0.00    +0.000 A 
ATOM     17  C   UNL     1       6.854   4.624  18.131  0.00  0.00    +0.000 A 
ATOM     18  C   UNL     1       7.725   5.566  18.680  0.00  0.00    +0.000 A 
ATOM     19  C   UNL     1       7.686   6.879  18.227  0.00  0.00    +0.000 A 
ATOM     20  F   UNL     1       8.526   7.783  18.748  0.00  0.00    +0.000 F 
ATOM     21  C   UNL     1       6.788   7.269  17.239  0.00  0.00    +0.000 A 
ATOM     22  C   UNL     1       5.917   6.327  16.687  0.00  0.00    +0.000 A 
ENDBRANCH  15  16
ENDBRANCH   3  15
TORSDOF 6
ENDMDL
MODEL 3
REMARK VINA RESULT:      -6.8      2.734      5.555
REMARK  Name = 
REMARK  6 active torsions:
REMARK  status: ('A' for Active; 'I' for Inactive)
REMARK    1  A    between atoms: C_2  and  C_3
REMARK    2  A    between atoms: C_3  and  S_4
REMARK    3  A    between atoms: S_4  and  C_5
REMARK    4  A    between atoms: C_5  and  C_6
REMARK    5  A    between atoms: N_13  and  C_14
REMARK    6  A    between atoms: C_14  and  C_15
REMARK                            x       y       z     vdW  Elec       q    Type
REMARK                         _______ _______ _______ _____ _____    ______ ____
ROOT
ATOM      1  O   UNL     1       5.259   6.866  15.438  0.00  0.00    +0.000 OA
ATOM      2  C   UNL     1       4.824   6.115  16.308  0.00  0.00    +0.000 C 
ATOM      3  N   UNL     1       3.885   6.492  17.239  0.00  0.00    +0.000 N 
ATOM      4  H   UNL     1       3.498   5.780  17.848  0.00  0.00    +0.000 HD
ENDROOT
BRANCH   2   5
ATOM      5  C   UNL     1       5.321   4.688  16.453  0.00  0.00    +0.000 C 
BRANCH   5   6
ATOM      6  S   UNL     1       5.378   4.163  18.194  0.00  0.00    +0.000 S 
BRANCH   6   7
ATOM      7  C   UNL     1       4.135   2.822  18.142  0.00  0.00    +0.000 C 
BRANCH   7   8
ATOM      8  C   UNL     1       3.118   3.002  19.238  0.00  0.00    +0.000 A 
ATOM      9  C   UNL     1       1.854   3.552  18.975  0.00  0.00    +0.000 A 
ATOM     10  C   UNL     1       0.904   3.661  19.995  0.00  0.00    +0.000 A 
ATOM     11  C   UNL     1       1.202   3.220  21.284  0.00  0.00    +0.000 A 
ATOM     12  C   UNL     1       2.456   2.677  21.558  0.00  0.00    +0.000 A 
ATOM     13  C   UNL     1       3.400   2.576  20.540  0.00  0.00    +0.000 A 
ATOM     14  F   UNL     1       4.601   2.050  20.826  0.00  0.00    +0.000 F 
ENDBRANCH   7   8
ENDBRANCH   6   7
ENDBRANCH   5   6
ENDBRANCH   2   5
BRANCH   3  15
ATOM     15  C   UNL     1       3.274   7.799  17.245  0.00  0.00    +0.000 C 
BRANCH  15  16
ATOM     16  C   UNL     1       2.442   7.996  18.484  0.00  0.00    +0.000 A 
ATOM     17  C   UNL     1       1.609   9.121  18.604  0.00  0.00    +0.000 A 
ATOM     18  C   UNL     1       0.834   9.310  19.749  0.00  0.00    +0.000 A 
ATOM     19  C   UNL     1       0.900   8.382  20.782  0.00  0.00    +0.000 A 
ATOM     20  F   UNL     1       0.153   8.560  21.878  0.00  0.00    +0.000 F 
ATOM     21  C   UNL     1       1.732   7.271  20.693  0.00  0.00    +0.000 A 
ATOM     22  C   UNL     1       2.507   7.079  19.547  0.00  0.00    +0.000 A 
ENDBRANCH  15  16
ENDBRANCH   3  15
TORSDOF 6
ENDMDL
MODEL 4
REMARK VINA RESULT:      -6.7      1.038      1.062
REMARK  Name = 
REMARK  6 active torsions:
REMARK  status: ('A' for Active; 'I' for Inactive)
REMARK    1  A    between atoms: C_2  and  C_3
REMARK    2  A    between atoms: C_3  and  S_4
REMARK    3  A    between atoms: S_4  and  C_5
REMARK    4  A    between atoms: C_5  and  C_6
REMARK    5  A    between atoms: N_13  and  C_14
REMARK    6  A    between atoms: C_14  and  C_15
REMARK                            x       y       z     vdW  Elec       q    Type
REMARK                         _______ _______ _______ _____ _____    ______ ____
ROOT
ATOM      1  O   UNL     1       2.435   2.072  17.726  0.00  0.00    +0.000 OA
ATOM      2  C   UNL     1       2.857   2.724  18.678  0.00  0.00    +0.000 C 
ATOM      3  N   UNL     1       4.001   3.486  18.632  0.00  0.00    +0.000 N 
ATOM      4  H   UNL     1       4.215   4.081  19.424  0.00  0.00    +0.000 HD
ENDROOT
BRANCH   2   5
ATOM      5  C   UNL     1       2.155   2.718  20.024  0.00  0.00    +0.000 C 
BRANCH   5   6
ATOM      6  S   UNL     1       0.992   4.107  20.188  0.00  0.00    +0.000 S 
BRANCH   6   7
ATOM      7  C   UNL     1       2.138   5.383  20.823  0.00  0.00    +0.000 C 
BRANCH   7   8
ATOM      8  C   UNL     1       2.098   6.610  19.951  0.00  0.00    +0.000 A 
ATOM      9  C   UNL     1       2.514   6.564  18.612  0.00  0.00    +0.000 A 
ATOM     10  C   UNL     1       2.419   7.700  17.802  0.00  0.00    +0.000 A 
ATOM     11  C   UNL     1       1.904   8.890  18.317  0.00  0.00    +0.000 A 
ATOM     12  C   UNL     1       1.493   8.948  19.647  0.00  0.00    +0.000 A 
ATOM     13  C   UNL     1       1.595   7.816  20.450  0.00  0.00    +0.000 A 
ATOM     14  F   UNL     1       1.193   7.894  21.728  0.00  0.00    +0.000 F 
ENDBRANCH   7   8
ENDBRANCH   6   7
ENDBRANCH   5   6
ENDBRANCH   2   5
BRANCH   3  15
ATOM     15  C   UNL     1       4.788   3.638  17.432  0.00  0.00    +0.000 C 
BRANCH  15  16
ATOM     16  C   UNL     1       5.706   4.826  17.541  0.00  0.00    +0.000 A 
ATOM     17  C   UNL     1       5.503   5.953  16.728  0.00  0.00    +0.000 A 
ATOM     18  C   UNL     1       6.349   7.059  16.824  0.00  0.00    +0.000 A 
ATOM     19  C   UNL     1       7.407   7.035  17.725  0.00  0.00    +0.000 A 
ATOM     20  F   UNL     1       8.215   8.098  17.822  0.00  0.00    +0.000 F 
ATOM     21  C   UNL     1       7.638   5.924  18.527  0.00  0.00    +0.000 A 
ATOM     22  C   UNL     1       6.791   4.817  18.434  0.00  0.00    +0.000 A 
ENDBRANCH  15  16
ENDBRANCH   3  15
TORSDOF 6
ENDMDL
MODEL 5
REMARK VINA RESULT:      -6.7      4.084      5.761
REMARK  Name = 
REMARK  6 active torsions:
REMARK  status: ('A' for Active; 'I' for Inactive)
REMARK    1  A    between atoms: C_2  and  C_3
REMARK    2  A    between atoms: C_3  and  S_4
REMARK    3  A    between atoms: S_4  and  C_5
REMARK    4  A    between atoms: C_5  and  C_6
REMARK    5  A    between atoms: N_13  and  C_14
REMARK    6  A    between atoms: C_14  and  C_15
REMARK                            x       y       z     vdW  Elec       q    Type
REMARK                         _______ _______ _______ _____ _____    ______ ____
ROOT
ATOM      1  O   UNL     1       7.811   7.003  16.544  0.00  0.00    +0.000 OA
ATOM      2  C   UNL     1       7.818   7.182  17.759  0.00  0.00    +0.000 C 
ATOM      3  N   UNL     1       8.096   8.394  18.349  0.00  0.00    +0.000 N 
ATOM      4  H   UNL     1       7.967   8.482  19.350  0.00  0.00    +0.000 HD
ENDROOT
BRANCH   2   5
ATOM      5  C   UNL     1       7.548   6.051  18.735  0.00  0.00    +0.000 C 
BRANCH   5   6
ATOM      6  S   UNL     1       6.503   4.756  17.999  0.00  0.00    +0.000 S 
BRANCH   6   7
ATOM      7  C   UNL     1       4.860   5.521  18.246  0.00  0.00    +0.000 C 
BRANCH   7   8
ATOM      8  C   UNL     1       3.780   4.472  18.220  0.00  0.00    +0.000 A 
ATOM      9  C   UNL     1       4.077   3.117  18.428  0.00  0.00    +0.000 A 
ATOM     10  C   UNL     1       3.055   2.164  18.454  0.00  0.00    +0.000 A 
ATOM     11  C   UNL     1       1.726   2.553  18.279  0.00  0.00    +0.000 A 
ATOM     12  C   UNL     1       1.420   3.896  18.067  0.00  0.00    +0.000 A 
ATOM     13  C   UNL     1       2.443   4.839  18.035  0.00  0.00    +0.000 A 
ATOM     14  F   UNL     1       2.125   6.127  17.830  0.00  0.00    +0.000 F 
ENDBRANCH   7   8
ENDBRANCH   6   7
ENDBRANCH   5   6
ENDBRANCH   2   5
BRANCH   3  15
ATOM     15  C   UNL     1       8.350   9.592  17.586  0.00  0.00    +0.000 C 
BRANCH  15  16
ATOM     16  C   UNL     1       9.012  10.640  18.440  0.00  0.00    +0.000 A 
ATOM     17  C   UNL     1       9.262  11.920  17.920  0.00  0.00    +0.000 A 
ATOM     18  C   UNL     1       9.874  12.898  18.705  0.00  0.00    +0.000 A 
ATOM     19  C   UNL     1      10.248  12.593  20.009  0.00  0.00    +0.000 A 
ATOM     20  F   UNL     1      10.829  13.533  20.765  0.00  0.00    +0.000 F 
ATOM     21  C   UNL     1      10.026  11.327  20.539  0.00  0.00    +0.000 A 
ATOM     22  C   UNL     1       9.412  10.348  19.755  0.00  0.00    +0.000 A 
ENDBRANCH  15  16
ENDBRANCH   3  15
TORSDOF 6
ENDMDL
MODEL 6
REMARK VINA RESULT:      -6.7      4.102      5.849
REMARK  Name = 
REMARK  6 active torsions:
REMARK  status: ('A' for Active; 'I' for Inactive)
REMARK    1  A    between atoms: C_2  and  C_3
REMARK    2  A    between atoms: C_3  and  S_4
REMARK    3  A    between atoms: S_4  and  C_5
REMARK    4  A    between atoms: C_5  and  C_6
REMARK    5  A    between atoms: N_13  and  C_14
REMARK    6  A    between atoms: C_14  and  C_15
REMARK                            x       y       z     vdW  Elec       q    Type
REMARK                         _______ _______ _______ _____ _____    ______ ____
ROOT
ATOM      1  O   UNL     1       7.606   6.874  16.535  0.00  0.00    +0.000 OA
ATOM      2  C   UNL     1       7.768   7.000  17.746  0.00  0.00    +0.000 C 
ATOM      3  N   UNL     1       8.139   8.182  18.345  0.00  0.00    +0.000 N 
ATOM      4  H   UNL     1       8.139   8.228  19.358  0.00  0.00    +0.000 HD
ENDROOT
BRANCH   2   5
ATOM      5  C   UNL     1       7.602   5.831  18.701  0.00  0.00    +0.000 C 
BRANCH   5   6
ATOM      6  S   UNL     1       5.867   5.603  19.197  0.00  0.00    +0.000 S 
BRANCH   6   7
ATOM      7  C   UNL     1       5.492   4.069  18.275  0.00  0.00    +0.000 C 
BRANCH   7   8
ATOM      8  C   UNL     1       4.022   3.750  18.357  0.00  0.00    +0.000 A 
ATOM      9  C   UNL     1       3.062   4.591  17.774  0.00  0.00    +0.000 A 
ATOM     10  C   UNL     1       1.706   4.252  17.814  0.00  0.00    +0.000 A 
ATOM     11  C   UNL     1       1.295   3.069  18.429  0.00  0.00    +0.000 A 
ATOM     12  C   UNL     1       2.240   2.229  19.016  0.00  0.00    +0.000 A 
ATOM     13  C   UNL     1       3.587   2.575  18.979  0.00  0.00    +0.000 A 
ATOM     14  F   UNL     1       4.480   1.751  19.549  0.00  0.00    +0.000 F 
ENDBRANCH   7   8
ENDBRANCH   6   7
ENDBRANCH   5   6
ENDBRANCH   2   5
BRANCH   3  15
ATOM     15  C   UNL     1       8.317   9.408  17.606  0.00  0.00    +0.000 C 
BRANCH  15  16
ATOM     16  C   UNL     1       9.083  10.417  18.420  0.00  0.00    +0.000 A 
ATOM     17  C   UNL     1       9.243  10.234  19.803  0.00  0.00    +0.000 A 
ATOM     18  C   UNL     1       9.953  11.163  20.564  0.00  0.00    +0.000 A 
ATOM     19  C   UNL     1      10.492  12.285  19.946  0.00  0.00    +0.000 A 
ATOM     20  F   UNL     1      11.178  13.175  20.674  0.00  0.00    +0.000 F 
ATOM     21  C   UNL     1      10.330  12.497  18.581  0.00  0.00    +0.000 A 
ATOM     22  C   UNL     1       9.623  11.566  17.817  0.00  0.00    +0.000 A 
ENDBRANCH  15  16
ENDBRANCH   3  15
TORSDOF 6
ENDMDL
MODEL 7
REMARK VINA RESULT:      -6.6      2.542      5.551
REMARK  Name = 
REMARK  6 active torsions:
REMARK  status: ('A' for Active; 'I' for Inactive)
REMARK    1  A    between atoms: C_2  and  C_3
REMARK    2  A    between atoms: C_3  and  S_4
REMARK    3  A    between atoms: S_4  and  C_5
REMARK    4  A    between atoms: C_5  and  C_6
REMARK    5  A    between atoms: N_13  and  C_14
REMARK    6  A    between atoms: C_14  and  C_15
REMARK                            x       y       z     vdW  Elec       q    Type
REMARK                         _______ _______ _______ _____ _____    ______ ____
ROOT
ATOM      1  O   UNL     1       4.889   6.134  15.685  0.00  0.00    +0.000 OA
ATOM      2  C   UNL     1       5.063   6.187  16.900  0.00  0.00    +0.000 C 
ATOM      3  N   UNL     1       4.273   6.926  17.751  0.00  0.00    +0.000 N 
ATOM      4  H   UNL     1       4.414   6.823  18.749  0.00  0.00    +0.000 HD
ENDROOT
BRANCH   2   5
ATOM      5  C   UNL     1       6.206   5.452  17.576  0.00  0.00    +0.000 C 
BRANCH   5   6
ATOM      6  S   UNL     1       5.749   4.869  19.238  0.00  0.00    +0.000 S 
BRANCH   6   7
ATOM      7  C   UNL     1       4.843   3.347  18.782  0.00  0.00    +0.000 C 
BRANCH   7   8
ATOM      8  C   UNL     1       3.492   3.317  19.447  0.00  0.00    +0.000 A 
ATOM      9  C   UNL     1       3.332   2.806  20.744  0.00  0.00    +0.000 A 
ATOM     10  C   UNL     1       2.080   2.836  21.366  0.00  0.00    +0.000 A 
ATOM     11  C   UNL     1       0.978   3.379  20.704  0.00  0.00    +0.000 A 
ATOM     12  C   UNL     1       1.126   3.885  19.414  0.00  0.00    +0.000 A 
ATOM     13  C   UNL     1       2.373   3.847  18.797  0.00  0.00    +0.000 A 
ATOM     14  F   UNL     1       2.492   4.340  17.555  0.00  0.00    +0.000 F 
ENDBRANCH   7   8
ENDBRANCH   6   7
ENDBRANCH   5   6
ENDBRANCH   2   5
BRANCH   3  15
ATOM     15  C   UNL     1       3.122   7.668  17.297  0.00  0.00    +0.000 C 
BRANCH  15  16
ATOM     16  C   UNL     1       2.281   8.116  18.463  0.00  0.00    +0.000 A 
ATOM     17  C   UNL     1       1.499   9.279  18.364  0.00  0.00    +0.000 A 
ATOM     18  C   UNL     1       0.716   9.700  19.439  0.00  0.00    +0.000 A 
ATOM     19  C   UNL     1       0.723   8.967  20.620  0.00  0.00    +0.000 A 
ATOM     20  F   UNL     1      -0.033   9.367  21.650  0.00  0.00    +0.000 F 
ATOM     21  C   UNL     1       1.503   7.824  20.747  0.00  0.00    +0.000 A 
ATOM     22  C   UNL     1       2.286   7.399  19.671  0.00  0.00    +0.000 A 
ENDBRANCH  15  16
ENDBRANCH   3  15
TORSDOF 6
ENDMDL
MODEL 8
REMARK VINA RESULT:      -6.6      4.111      5.873
REMARK  Name = 
REMARK  6 active torsions:
REMARK  status: ('A' for Active; 'I' for Inactive)
REMARK    1  A    between atoms: C_2  and  C_3
REMARK    2  A    between atoms: C_3  and  S_4
REMARK    3  A    between atoms: S_4  and  C_5
REMARK    4  A    between atoms: C_5  and  C_6
REMARK    5  A    between atoms: N_13  and  C_14
REMARK    6  A    between atoms: C_14  and  C_15
REMARK                            x       y       z     vdW  Elec       q    Type
REMARK                         _______ _______ _______ _____ _____    ______ ____
ROOT
ATOM      1  O   UNL     1       7.294   7.265  16.669  0.00  0.00    +0.000 OA
ATOM      2  C   UNL     1       7.710   7.276  17.825  0.00  0.00    +0.000 C 
ATOM      3  N   UNL     1       8.276   8.380  18.421  0.00  0.00    +0.000 N 
ATOM      4  H   UNL     1       8.487   8.337  19.411  0.00  0.00    +0.000 HD
ENDROOT
BRANCH   2   5
ATOM      5  C   UNL     1       7.664   6.038  18.703  0.00  0.00    +0.000 C 
BRANCH   5   6
ATOM      6  S   UNL     1       6.741   4.683  17.915  0.00  0.00    +0.000 S 
BRANCH   6   7
ATOM      7  C   UNL     1       5.041   5.330  18.102  0.00  0.00    +0.000 C 
BRANCH   7   8
ATOM      8  C   UNL     1       4.081   4.212  18.409  0.00  0.00    +0.000 A 
ATOM      9  C   UNL     1       3.978   3.091  17.571  0.00  0.00    +0.000 A 
ATOM     10  C   UNL     1       3.119   2.038  17.900  0.00  0.00    +0.000 A 
ATOM     11  C   UNL     1       2.360   2.088  19.070  0.00  0.00    +0.000 A 
ATOM     12  C   UNL     1       2.451   3.199  19.906  0.00  0.00    +0.000 A 
ATOM     13  C   UNL     1       3.302   4.248  19.570  0.00  0.00    +0.000 A 
ATOM     14  F   UNL     1       3.374   5.307  20.391  0.00  0.00    +0.000 F 
ENDBRANCH   7   8
ENDBRANCH   6   7
ENDBRANCH   5   6
ENDBRANCH   2   5
BRANCH   3  15
ATOM     15  C   UNL     1       8.382   9.656  17.756  0.00  0.00    +0.000 C 
BRANCH  15  16
ATOM     16  C   UNL     1       9.381  10.541  18.452  0.00  0.00    +0.000 A 
ATOM     17  C   UNL     1      10.353  11.230  17.708  0.00  0.00    +0.000 A 
ATOM     18  C   UNL     1      11.281  12.054  18.346  0.00  0.00    +0.000 A 
ATOM     19  C   UNL     1      11.247  12.181  19.730  0.00  0.00    +0.000 A 
ATOM     20  F   UNL     1      12.133  12.976  20.342  0.00  0.00    +0.000 F 
ATOM     21  C   UNL     1      10.305  11.495  20.488  0.00  0.00    +0.000 A 
ATOM     22  C   UNL     1       9.374  10.671  19.851  0.00  0.00    +0.000 A 
ENDBRANCH  15  16
ENDBRANCH   3  15
TORSDOF 6
ENDMDL
MODEL 9
REMARK VINA RESULT:      -6.6      2.615      4.829
REMARK  Name = 
REMARK  6 active torsions:
REMARK  status: ('A' for Active; 'I' for Inactive)
REMARK    1  A    between atoms: C_2  and  C_3
REMARK    2  A    between atoms: C_3  and  S_4
REMARK    3  A    between atoms: S_4  and  C_5
REMARK    4  A    between atoms: C_5  and  C_6
REMARK    5  A    between atoms: N_13  and  C_14
REMARK    6  A    between atoms: C_14  and  C_15
REMARK                            x       y       z     vdW  Elec       q    Type
REMARK                         _______ _______ _______ _____ _____    ______ ____
ROOT
ATOM      1  O   UNL     1       5.274   4.009  15.103  0.00  0.00    +0.000 OA
ATOM      2  C   UNL     1       5.663   4.181  16.256  0.00  0.00    +0.000 C 
ATOM      3  N   UNL     1       5.083   3.586  17.352  0.00  0.00    +0.000 N 
ATOM      4  H   UNL     1       5.537   3.691  18.253  0.00  0.00    +0.000 HD
ENDROOT
BRANCH   2   5
ATOM      5  C   UNL     1       6.821   5.109  16.578  0.00  0.00    +0.000 C 
BRANCH   5   6
ATOM      6  S   UNL     1       6.306   6.493  17.640  0.00  0.00    +0.000 S 
BRANCH   6   7
ATOM      7  C   UNL     1       4.645   6.804  16.941  0.00  0.00    +0.000 C 
BRANCH   7   8
ATOM      8  C   UNL     1       3.624   6.927  18.042  0.00  0.00    +0.000 A 
ATOM      9  C   UNL     1       3.608   6.033  19.123  0.00  0.00    +0.000 A 
ATOM     10  C   UNL     1       2.687   6.195  20.162  0.00  0.00    +0.000 A 
ATOM     11  C   UNL     1       1.778   7.253  20.137  0.00  0.00    +0.000 A 
ATOM     12  C   UNL     1       1.781   8.144  19.065  0.00  0.00    +0.000 A 
ATOM     13  C   UNL     1       2.696   7.974  18.031  0.00  0.00    +0.000 A 
ATOM     14  F   UNL     1       2.682   8.843  17.009  0.00  0.00    +0.000 F 
ENDBRANCH   7   8
ENDBRANCH   6   7
ENDBRANCH   5   6
ENDBRANCH   2   5
BRANCH   3  15
ATOM     15  C   UNL     1       3.990   2.651  17.244  0.00  0.00    +0.000 C 
BRANCH  15  16
ATOM     16  C   UNL     1       3.163   2.647  18.503  0.00  0.00    +0.000 A 
ATOM     17  C   UNL     1       1.764   2.748  18.429  0.00  0.00    +0.000 A 
ATOM     18  C   UNL     1       0.990   2.744  19.590  0.00  0.00    +0.000 A 
ATOM     19  C   UNL     1       1.615   2.650  20.828  0.00  0.00    +0.000 A 
ATOM     20  F   UNL     1       0.873   2.639  21.943  0.00  0.00    +0.000 F 
ATOM     21  C   UNL     1       2.999   2.567  20.926  0.00  0.00    +0.000 A 
ATOM     22  C   UNL     1       3.775   2.569  19.765  0.00  0.00    +0.000 A 
ENDBRANCH  15  16
ENDBRANCH   3  15
TORSDOF 6
ENDMDL
