MODEL 1
REMARK VINA RESULT:      -8.2      0.000      0.000
REMARK  Name = 
REMARK  4 active torsions:
REMARK  status: ('A' for Active; 'I' for Inactive)
REMARK    1  A    between atoms: C_1  and  N_2
REMARK    2  A    between atoms: N_2  and  C_3
REMARK    3  A    between atoms: C_3  and  C_4
REMARK    4  A    between atoms: C_7  and  C_8
REMARK                            x       y       z     vdW  Elec       q    Type
REMARK                         _______ _______ _______ _____ _____    ______ ____
ROOT
ATOM      1  C   UNL     1       3.521   6.698  18.081  0.00  0.00    +0.000 A 
ATOM      2  N   UNL     1       4.147   6.974  16.867  0.00  0.00    +0.000 N 
ATOM      3  C   UNL     1       4.653   5.827  16.302  0.00  0.00    +0.000 A 
ATOM      4  C   UNL     1       5.518   5.631  15.233  0.00  0.00    +0.000 A 
ATOM      5  C   UNL     1       5.929   4.311  15.001  0.00  0.00    +0.000 A 
ATOM      6  F   UNL     1       6.930   4.104  14.127  0.00  0.00    +0.000 F 
ATOM      7  C   UNL     1       5.430   3.228  15.700  0.00  0.00    +0.000 A 
ATOM      8  C   UNL     1       4.563   3.481  16.771  0.00  0.00    +0.000 A 
ATOM      9  C   UNL     1       4.206   4.793  17.113  0.00  0.00    +0.000 A 
ATOM     10  C   UNL     1       4.035   5.421  18.394  0.00  0.00    +0.000 A 
ATOM     11  C   UNL     1       5.124   5.080  19.358  0.00  0.00    +0.000 C 
ATOM     12  O   UNL     1       5.792   5.947  19.925  0.00  0.00    +0.000 OA
ATOM     13  N   UNL     1       5.614   3.762  19.340  0.00  0.00    +0.000 N 
ATOM     14  N   UNL     1       4.866   2.625  18.990  0.00  0.00    +0.000 N 
ATOM     15  C   UNL     1       4.280   2.441  17.759  0.00  0.00    +0.000 C 
ATOM     16  O   UNL     1       3.549   1.497  17.492  0.00  0.00    +0.000 OA
ATOM     17  H   UNL     1       4.183   7.883  16.436  0.00  0.00    +0.000 HD
ATOM     18  H   UNL     1       6.576   3.619  19.633  0.00  0.00    +0.000 HD
ATOM     19  H   UNL     1       4.743   1.893  19.685  0.00  0.00    +0.000 HD
ENDROOT
BRANCH   1  23
ATOM     20  C   UNL     1       0.945   9.707  19.931  0.00  0.00    +0.000 A 
ATOM     21  C   UNL     1       1.357   9.853  18.597  0.00  0.00    +0.000 A 
ATOM     22  C   UNL     1       2.121   8.834  17.942  0.00  0.00    +0.000 A 
ATOM     23  C   UNL     1       2.491   7.662  18.599  0.00  0.00    +0.000 A 
ATOM     24  C   UNL     1       2.042   7.512  19.913  0.00  0.00    +0.000 A 
ATOM     25  C   UNL     1       1.308   8.524  20.582  0.00  0.00    +0.000 A 
BRANCH  20  26
ATOM     26  C   UNL     1       0.242  10.781  20.748  0.00  0.00    +0.000 C 
BRANCH  26  28
ATOM     27  C   UNL     1      -0.786  10.509  22.931  0.00  0.00    +0.000 C 
ATOM     28  N   UNL     1       0.451  10.758  22.200  0.00  0.00    +0.000 NA
ATOM     29  H   UNL     1       1.091   9.989  22.406  0.00  0.00    +0.000 HD
ENDBRANCH  26  28
ENDBRANCH  20  26
ENDBRANCH   1  23
TORSDOF 3
ENDMDL
MODEL 2
REMARK VINA RESULT:      -8.1      1.179      1.687
REMARK  Name = 
REMARK  4 active torsions:
REMARK  status: ('A' for Active; 'I' for Inactive)
REMARK    1  A    between atoms: C_1  and  N_2
REMARK    2  A    between atoms: N_2  and  C_3
REMARK    3  A    between atoms: C_3  and  C_4
REMARK    4  A    between atoms: C_7  and  C_8
REMARK                            x       y       z     vdW  Elec       q    Type
REMARK                         _______ _______ _______ _____ _____    ______ ____
ROOT
ATOM      1  C   UNL     1       3.705   6.761  18.087  0.00  0.00    +0.000 A 
ATOM      2  N   UNL     1       4.303   6.974  16.847  0.00  0.00    +0.000 N 
ATOM      3  C   UNL     1       4.701   5.786  16.281  0.00  0.00    +0.000 A 
ATOM      4  C   UNL     1       5.507   5.513  15.184  0.00  0.00    +0.000 A 
ATOM      5  C   UNL     1       5.811   4.163  14.957  0.00  0.00    +0.000 A 
ATOM      6  F   UNL     1       6.760   3.871  14.050  0.00  0.00    +0.000 F 
ATOM      7  C   UNL     1       5.262   3.129  15.692  0.00  0.00    +0.000 A 
ATOM      8  C   UNL     1       4.458   3.459  16.790  0.00  0.00    +0.000 A 
ATOM      9  C   UNL     1       4.211   4.798  17.124  0.00  0.00    +0.000 A 
ATOM     10  C   UNL     1       4.136   5.453  18.401  0.00  0.00    +0.000 A 
ATOM     11  C   UNL     1       5.234   5.045  19.329  0.00  0.00    +0.000 C 
ATOM     12  O   UNL     1       5.984   5.868  19.856  0.00  0.00    +0.000 OA
ATOM     13  N   UNL     1       5.625   3.695  19.313  0.00  0.00    +0.000 N 
ATOM     14  N   UNL     1       4.783   2.611  19.010  0.00  0.00    +0.000 N 
ATOM     15  C   UNL     1       4.138   2.455  17.804  0.00  0.00    +0.000 C 
ATOM     16  O   UNL     1       3.330   1.564  17.579  0.00  0.00    +0.000 OA
ATOM     17  H   UNL     1       4.389   7.872  16.401  0.00  0.00    +0.000 HD
ATOM     18  H   UNL     1       6.585   3.485  19.572  0.00  0.00    +0.000 HD
ATOM     19  H   UNL     1       4.634   1.899  19.720  0.00  0.00    +0.000 HD
ENDROOT
BRANCH   1  23
ATOM     20  C   UNL     1       0.573   9.537  19.347  0.00  0.00    +0.000 A 
ATOM     21  C   UNL     1       1.093   8.600  20.253  0.00  0.00    +0.000 A 
ATOM     22  C   UNL     1       2.183   7.746  19.892  0.00  0.00    +0.000 A 
ATOM     23  C   UNL     1       2.770   7.804  18.629  0.00  0.00    +0.000 A 
ATOM     24  C   UNL     1       2.269   8.768  17.750  0.00  0.00    +0.000 A 
ATOM     25  C   UNL     1       1.173   9.601  18.086  0.00  0.00    +0.000 A 
BRANCH  20  26
ATOM     26  C   UNL     1      -0.659  10.397  19.594  0.00  0.00    +0.000 C 
BRANCH  26  28
ATOM     27  C   UNL     1      -1.809  11.887  18.060  0.00  0.00    +0.000 C 
ATOM     28  N   UNL     1      -1.625  10.508  18.495  0.00  0.00    +0.000 NA
ATOM     29  H   UNL     1      -1.252   9.982  17.704  0.00  0.00    +0.000 HD
ENDBRANCH  26  28
ENDBRANCH  20  26
ENDBRANCH   1  23
TORSDOF 3
ENDMDL
MODEL 3
REMARK VINA RESULT:      -8.0      4.730      5.790
REMARK  Name = 
REMARK  4 active torsions:
REMARK  status: ('A' for Active; 'I' for Inactive)
REMARK    1  A    between atoms: C_1  and  N_2
REMARK    2  A    between atoms: N_2  and  C_3
REMARK    3  A    between atoms: C_3  and  C_4
REMARK    4  A    between atoms: C_7  and  C_8
REMARK                            x       y       z     vdW  Elec       q    Type
REMARK                         _______ _______ _______ _____ _____    ______ ____
ROOT
ATOM      1  C   UNL     1       7.483   7.572  17.703  0.00  0.00    +0.000 A 
ATOM      2  N   UNL     1       7.835   7.039  16.465  0.00  0.00    +0.000 N 
ATOM      3  C   UNL     1       6.974   6.032  16.098  0.00  0.00    +0.000 A 
ATOM      4  C   UNL     1       7.039   5.088  15.082  0.00  0.00    +0.000 A 
ATOM      5  C   UNL     1       6.030   4.115  15.072  0.00  0.00    +0.000 A 
ATOM      6  F   UNL     1       6.176   3.060  14.251  0.00  0.00    +0.000 F 
ATOM      7  C   UNL     1       4.952   4.133  15.937  0.00  0.00    +0.000 A 
ATOM      8  C   UNL     1       4.935   5.104  16.946  0.00  0.00    +0.000 A 
ATOM      9  C   UNL     1       5.977   6.035  17.065  0.00  0.00    +0.000 A 
ATOM     10  C   UNL     1       6.636   6.569  18.225  0.00  0.00    +0.000 A 
ATOM     11  C   UNL     1       6.967   5.523  19.239  0.00  0.00    +0.000 C 
ATOM     12  O   UNL     1       8.114   5.360  19.660  0.00  0.00    +0.000 OA
ATOM     13  N   UNL     1       6.026   4.498  19.441  0.00  0.00    +0.000 N 
ATOM     14  N   UNL     1       4.637   4.630  19.277  0.00  0.00    +0.000 N 
ATOM     15  C   UNL     1       4.033   4.972  18.089  0.00  0.00    +0.000 C 
ATOM     16  O   UNL     1       2.833   5.182  17.975  0.00  0.00    +0.000 OA
ATOM     17  H   UNL     1       8.590   7.377  15.891  0.00  0.00    +0.000 HD
ATOM     18  H   UNL     1       6.379   3.599  19.760  0.00  0.00    +0.000 HD
ATOM     19  H   UNL     1       4.037   4.469  20.082  0.00  0.00    +0.000 HD
ENDROOT
BRANCH   1  23
ATOM     20  C   UNL     1       9.300  11.480  18.430  0.00  0.00    +0.000 A 
ATOM     21  C   UNL     1       8.230  11.355  17.531  0.00  0.00    +0.000 A 
ATOM     22  C   UNL     1       7.558  10.103  17.349  0.00  0.00    +0.000 A 
ATOM     23  C   UNL     1       7.939   8.960  18.049  0.00  0.00    +0.000 A 
ATOM     24  C   UNL     1       8.980   9.108  18.970  0.00  0.00    +0.000 A 
ATOM     25  C   UNL     1       9.671  10.333  19.140  0.00  0.00    +0.000 A 
BRANCH  20  26
ATOM     26  C   UNL     1      10.154  12.729  18.600  0.00  0.00    +0.000 C 
BRANCH  26  28
ATOM     27  C   UNL     1      11.420  13.412  16.644  0.00  0.00    +0.000 C 
ATOM     28  N   UNL     1      10.231  13.644  17.456  0.00  0.00    +0.000 NA
ATOM     29  H   UNL     1       9.416  13.468  16.867  0.00  0.00    +0.000 HD
ENDBRANCH  26  28
ENDBRANCH  20  26
ENDBRANCH   1  23
TORSDOF 3
ENDMDL
MODEL 4
REMARK VINA RESULT:      -7.9      4.493      8.858
REMARK  Name = 
REMARK  4 active torsions:
REMARK  status: ('A' for Active; 'I' for Inactive)
REMARK    1  A    between atoms: C_1  and  N_2
REMARK    2  A    between atoms: N_2  and  C_3
REMARK    3  A    between atoms: C_3  and  C_4
REMARK    4  A    between atoms: C_7  and  C_8
REMARK                            x       y       z     vdW  Elec       q    Type
REMARK                         _______ _______ _______ _____ _____    ______ ____
ROOT
ATOM      1  C   UNL     1       1.216   9.406  19.523  0.00  0.00    +0.000 A 
ATOM      2  N   UNL     1       0.963   9.605  20.878  0.00  0.00    +0.000 N 
ATOM      3  C   UNL     1      -0.092  10.468  21.061  0.00  0.00    +0.000 A 
ATOM      4  C   UNL     1      -0.566  11.116  22.193  0.00  0.00    +0.000 A 
ATOM      5  C   UNL     1      -1.605  12.037  21.994  0.00  0.00    +0.000 A 
ATOM      6  F   UNL     1      -1.941  12.845  23.015  0.00  0.00    +0.000 F 
ATOM      7  C   UNL     1      -2.225  12.226  20.773  0.00  0.00    +0.000 A 
ATOM      8  C   UNL     1      -1.706  11.549  19.661  0.00  0.00    +0.000 A 
ATOM      9  C   UNL     1      -0.599  10.699  19.789  0.00  0.00    +0.000 A 
ATOM     10  C   UNL     1       0.537  10.496  18.934  0.00  0.00    +0.000 A 
ATOM     11  C   UNL     1       1.119  11.774  18.425  0.00  0.00    +0.000 C 
ATOM     12  O   UNL     1       2.308  12.061  18.583  0.00  0.00    +0.000 OA
ATOM     13  N   UNL     1       0.223  12.801  18.081  0.00  0.00    +0.000 N 
ATOM     14  N   UNL     1      -1.084  12.607  17.601  0.00  0.00    +0.000 N 
ATOM     15  C   UNL     1      -2.072  11.958  18.305  0.00  0.00    +0.000 C 
ATOM     16  O   UNL     1      -3.177  11.707  17.846  0.00  0.00    +0.000 OA
ATOM     17  H   UNL     1       1.453   9.142  21.625  0.00  0.00    +0.000 HD
ATOM     18  H   UNL     1       0.559  13.757  18.157  0.00  0.00    +0.000 HD
ATOM     19  H   UNL     1      -1.318  12.962  16.678  0.00  0.00    +0.000 HD
ENDROOT
BRANCH   1  23
ATOM     20  C   UNL     1       3.822   6.077  18.411  0.00  0.00    +0.000 A 
ATOM     21  C   UNL     1       3.043   6.006  19.576  0.00  0.00    +0.000 A 
ATOM     22  C   UNL     1       2.113   7.043  19.910  0.00  0.00    +0.000 A 
ATOM     23  C   UNL     1       1.944   8.163  19.098  0.00  0.00    +0.000 A 
ATOM     24  C   UNL     1       2.696   8.202  17.921  0.00  0.00    +0.000 A 
ATOM     25  C   UNL     1       3.640   7.197  17.593  0.00  0.00    +0.000 A 
BRANCH  20  26
ATOM     26  C   UNL     1       4.922   5.094  18.036  0.00  0.00    +0.000 C 
BRANCH  26  28
ATOM     27  C   UNL     1       7.011   5.578  19.175  0.00  0.00    +0.000 C 
ATOM     28  N   UNL     1       5.851   4.697  19.100  0.00  0.00    +0.000 NA
ATOM     29  H   UNL     1       5.351   4.770  19.988  0.00  0.00    +0.000 HD
ENDBRANCH  26  28
ENDBRANCH  20  26
ENDBRANCH   1  23
TORSDOF 3
ENDMDL
MODEL 5
REMARK VINA RESULT:      -7.9      4.676      8.868
REMARK  Name = 
REMARK  4 active torsions:
REMARK  status: ('A' for Active; 'I' for Inactive)
REMARK    1  A    between atoms: C_1  and  N_2
REMARK    2  A    between atoms: N_2  and  C_3
REMARK    3  A    between atoms: C_3  and  C_4
REMARK    4  A    between atoms: C_7  and  C_8
REMARK                            x       y       z     vdW  Elec       q    Type
REMARK                         _______ _______ _______ _____ _____    ______ ____
ROOT
ATOM      1  C   UNL     1       1.081   9.440  19.811  0.00  0.00    +0.000 A 
ATOM      2  N   UNL     1       0.818   9.736  21.146  0.00  0.00    +0.000 N 
ATOM      3  C   UNL     1      -0.220  10.630  21.259  0.00  0.00    +0.000 A 
ATOM      4  C   UNL     1      -0.692  11.363  22.339  0.00  0.00    +0.000 A 
ATOM      5  C   UNL     1      -1.710  12.288  22.066  0.00  0.00    +0.000 A 
ATOM      6  F   UNL     1      -2.039  13.169  23.026  0.00  0.00    +0.000 F 
ATOM      7  C   UNL     1      -2.313  12.406  20.828  0.00  0.00    +0.000 A 
ATOM      8  C   UNL     1      -1.797  11.646  19.771  0.00  0.00    +0.000 A 
ATOM      9  C   UNL     1      -0.709  10.785  19.968  0.00  0.00    +0.000 A 
ATOM     10  C   UNL     1       0.431  10.501  19.142  0.00  0.00    +0.000 A 
ATOM     11  C   UNL     1       1.044  11.730  18.555  0.00  0.00    +0.000 C 
ATOM     12  O   UNL     1       2.237  12.003  18.707  0.00  0.00    +0.000 OA
ATOM     13  N   UNL     1       0.173  12.749  18.132  0.00  0.00    +0.000 N 
ATOM     14  N   UNL     1      -1.133  12.549  17.651  0.00  0.00    +0.000 N 
ATOM     15  C   UNL     1      -2.141  11.969  18.386  0.00  0.00    +0.000 C 
ATOM     16  O   UNL     1      -3.246  11.709  17.932  0.00  0.00    +0.000 OA
ATOM     17  H   UNL     1       1.291   9.315  21.929  0.00  0.00    +0.000 HD
ATOM     18  H   UNL     1       0.528  13.701  18.148  0.00  0.00    +0.000 HD
ATOM     19  H   UNL     1      -1.350  12.845  16.704  0.00  0.00    +0.000 HD
ENDROOT
BRANCH   1  23
ATOM     20  C   UNL     1       2.611   5.468  18.818  0.00  0.00    +0.000 A 
ATOM     21  C   UNL     1       2.676   6.506  17.876  0.00  0.00    +0.000 A 
ATOM     22  C   UNL     1       2.269   7.837  18.211  0.00  0.00    +0.000 A 
ATOM     23  C   UNL     1       1.788   8.157  19.480  0.00  0.00    +0.000 A 
ATOM     24  C   UNL     1       1.765   7.124  20.419  0.00  0.00    +0.000 A 
ATOM     25  C   UNL     1       2.140   5.796  20.094  0.00  0.00    +0.000 A 
BRANCH  20  26
ATOM     26  C   UNL     1       2.901   4.003  18.523  0.00  0.00    +0.000 C 
BRANCH  26  28
ATOM     27  C   UNL     1       0.974   2.531  18.654  0.00  0.00    +0.000 C 
ATOM     28  N   UNL     1       1.881   3.260  17.774  0.00  0.00    +0.000 NA
ATOM     29  H   UNL     1       1.325   3.940  17.254  0.00  0.00    +0.000 HD
ENDBRANCH  26  28
ENDBRANCH  20  26
ENDBRANCH   1  23
TORSDOF 3
ENDMDL
MODEL 6
REMARK VINA RESULT:      -7.8      4.800      5.574
REMARK  Name = 
REMARK  4 active torsions:
REMARK  status: ('A' for Active; 'I' for Inactive)
REMARK    1  A    between atoms: C_1  and  N_2
REMARK    2  A    between atoms: N_2  and  C_3
REMARK    3  A    between atoms: C_3  and  C_4
REMARK    4  A    between atoms: C_7  and  C_8
REMARK                            x       y       z     vdW  Elec       q    Type
REMARK                         _______ _______ _______ _____ _____    ______ ____
ROOT
ATOM      1  C   UNL     1       7.560   7.569  17.767  0.00  0.00    +0.000 A 
ATOM      2  N   UNL     1       7.902   7.065  16.514  0.00  0.00    +0.000 N 
ATOM      3  C   UNL     1       7.018   6.091  16.116  0.00  0.00    +0.000 A 
ATOM      4  C   UNL     1       7.063   5.176  15.073  0.00  0.00    +0.000 A 
ATOM      5  C   UNL     1       6.030   4.229  15.032  0.00  0.00    +0.000 A 
ATOM      6  F   UNL     1       6.152   3.195  14.180  0.00  0.00    +0.000 F 
ATOM      7  C   UNL     1       4.951   4.247  15.895  0.00  0.00    +0.000 A 
ATOM      8  C   UNL     1       4.956   5.189  16.933  0.00  0.00    +0.000 A 
ATOM      9  C   UNL     1       6.019   6.089  17.081  0.00  0.00    +0.000 A 
ATOM     10  C   UNL     1       6.688   6.572  18.257  0.00  0.00    +0.000 A 
ATOM     11  C   UNL     1       6.991   5.489  19.240  0.00  0.00    +0.000 C 
ATOM     12  O   UNL     1       8.133   5.285  19.658  0.00  0.00    +0.000 OA
ATOM     13  N   UNL     1       6.026   4.482  19.410  0.00  0.00    +0.000 N 
ATOM     14  N   UNL     1       4.640   4.653  19.249  0.00  0.00    +0.000 N 
ATOM     15  C   UNL     1       4.047   5.045  18.070  0.00  0.00    +0.000 C 
ATOM     16  O   UNL     1       2.853   5.287  17.961  0.00  0.00    +0.000 OA
ATOM     17  H   UNL     1       8.667   7.402  15.951  0.00  0.00    +0.000 HD
ATOM     18  H   UNL     1       6.355   3.566  19.703  0.00  0.00    +0.000 HD
ATOM     19  H   UNL     1       4.035   4.482  20.047  0.00  0.00    +0.000 HD
ENDROOT
BRANCH   1  23
ATOM     20  C   UNL     1       9.500  11.376  18.691  0.00  0.00    +0.000 A 
ATOM     21  C   UNL     1       8.563  11.295  17.649  0.00  0.00    +0.000 A 
ATOM     22  C   UNL     1       7.846  10.083  17.390  0.00  0.00    +0.000 A 
ATOM     23  C   UNL     1       8.050   8.936  18.155  0.00  0.00    +0.000 A 
ATOM     24  C   UNL     1       8.956   9.041  19.213  0.00  0.00    +0.000 A 
ATOM     25  C   UNL     1       9.692  10.226  19.464  0.00  0.00    +0.000 A 
BRANCH  20  26
ATOM     26  C   UNL     1      10.398  12.575  18.964  0.00  0.00    +0.000 C 
BRANCH  26  28
ATOM     27  C   UNL     1      10.060  13.538  21.167  0.00  0.00    +0.000 C 
ATOM     28  N   UNL     1      10.923  12.717  20.326  0.00  0.00    +0.000 NA
ATOM     29  H   UNL     1      10.960  11.784  20.740  0.00  0.00    +0.000 HD
ENDBRANCH  26  28
ENDBRANCH  20  26
ENDBRANCH   1  23
TORSDOF 3
ENDMDL
MODEL 7
REMARK VINA RESULT:      -7.8      2.374      3.019
REMARK  Name = 
REMARK  4 active torsions:
REMARK  status: ('A' for Active; 'I' for Inactive)
REMARK    1  A    between atoms: C_1  and  N_2
REMARK    2  A    between atoms: N_2  and  C_3
REMARK    3  A    between atoms: C_3  and  C_4
REMARK    4  A    between atoms: C_7  and  C_8
REMARK                            x       y       z     vdW  Elec       q    Type
REMARK                         _______ _______ _______ _____ _____    ______ ____
ROOT
ATOM      1  C   UNL     1       2.694   7.244  18.231  0.00  0.00    +0.000 A 
ATOM      2  N   UNL     1       2.007   6.038  18.126  0.00  0.00    +0.000 N 
ATOM      3  C   UNL     1       2.859   4.969  18.277  0.00  0.00    +0.000 A 
ATOM      4  C   UNL     1       2.684   3.611  18.049  0.00  0.00    +0.000 A 
ATOM      5  C   UNL     1       3.822   2.805  18.192  0.00  0.00    +0.000 A 
ATOM      6  F   UNL     1       3.754   1.531  17.768  0.00  0.00    +0.000 F 
ATOM      7  C   UNL     1       5.036   3.283  18.647  0.00  0.00    +0.000 A 
ATOM      8  C   UNL     1       5.161   4.662  18.860  0.00  0.00    +0.000 A 
ATOM      9  C   UNL     1       4.082   5.526  18.627  0.00  0.00    +0.000 A 
ATOM     10  C   UNL     1       4.033   6.837  18.043  0.00  0.00    +0.000 A 
ATOM     11  C   UNL     1       4.863   6.955  16.807  0.00  0.00    +0.000 C 
ATOM     12  O   UNL     1       4.392   7.342  15.735  0.00  0.00    +0.000 OA
ATOM     13  N   UNL     1       6.098   6.282  16.791  0.00  0.00    +0.000 N 
ATOM     14  N   UNL     1       6.895   6.026  17.920  0.00  0.00    +0.000 N 
ATOM     15  C   UNL     1       6.482   5.276  18.997  0.00  0.00    +0.000 C 
ATOM     16  O   UNL     1       7.141   5.137  20.018  0.00  0.00    +0.000 OA
ATOM     17  H   UNL     1       1.010   5.955  18.005  0.00  0.00    +0.000 HD
ATOM     18  H   UNL     1       6.454   5.985  15.886  0.00  0.00    +0.000 HD
ATOM     19  H   UNL     1       7.832   6.418  17.950  0.00  0.00    +0.000 HD
ENDROOT
BRANCH   1  23
ATOM     20  C   UNL     1       0.897  10.954  19.686  0.00  0.00    +0.000 A 
ATOM     21  C   UNL     1       1.442  10.892  18.395  0.00  0.00    +0.000 A 
ATOM     22  C   UNL     1       1.950   9.663  17.863  0.00  0.00    +0.000 A 
ATOM     23  C   UNL     1       1.929   8.483  18.603  0.00  0.00    +0.000 A 
ATOM     24  C   UNL     1       1.348   8.549  19.872  0.00  0.00    +0.000 A 
ATOM     25  C   UNL     1       0.866   9.764  20.420  0.00  0.00    +0.000 A 
BRANCH  20  26
ATOM     26  C   UNL     1       0.449  12.231  20.383  0.00  0.00    +0.000 C 
BRANCH  26  28
ATOM     27  C   UNL     1      -1.019  12.521  22.295  0.00  0.00    +0.000 C 
ATOM     28  N   UNL     1       0.326  12.185  21.844  0.00  0.00    +0.000 NA
ATOM     29  H   UNL     1       0.520  11.227  22.139  0.00  0.00    +0.000 HD
ENDBRANCH  26  28
ENDBRANCH  20  26
ENDBRANCH   1  23
TORSDOF 3
ENDMDL
MODEL 8
REMARK VINA RESULT:      -7.8      2.603      3.490
REMARK  Name = 
REMARK  4 active torsions:
REMARK  status: ('A' for Active; 'I' for Inactive)
REMARK    1  A    between atoms: C_1  and  N_2
REMARK    2  A    between atoms: N_2  and  C_3
REMARK    3  A    between atoms: C_3  and  C_4
REMARK    4  A    between atoms: C_7  and  C_8
REMARK                            x       y       z     vdW  Elec       q    Type
REMARK                         _______ _______ _______ _____ _____    ______ ____
ROOT
ATOM      1  C   UNL     1       2.614   7.263  18.450  0.00  0.00    +0.000 A 
ATOM      2  N   UNL     1       1.950   6.043  18.347  0.00  0.00    +0.000 N 
ATOM      3  C   UNL     1       2.830   4.992  18.453  0.00  0.00    +0.000 A 
ATOM      4  C   UNL     1       2.677   3.634  18.207  0.00  0.00    +0.000 A 
ATOM      5  C   UNL     1       3.837   2.852  18.300  0.00  0.00    +0.000 A 
ATOM      6  F   UNL     1       3.782   1.583  17.857  0.00  0.00    +0.000 F 
ATOM      7  C   UNL     1       5.055   3.349  18.723  0.00  0.00    +0.000 A 
ATOM      8  C   UNL     1       5.157   4.727  18.955  0.00  0.00    +0.000 A 
ATOM      9  C   UNL     1       4.052   5.570  18.772  0.00  0.00    +0.000 A 
ATOM     10  C   UNL     1       3.955   6.889  18.211  0.00  0.00    +0.000 A 
ATOM     11  C   UNL     1       4.742   7.045  16.951  0.00  0.00    +0.000 C 
ATOM     12  O   UNL     1       4.226   7.438  15.902  0.00  0.00    +0.000 OA
ATOM     13  N   UNL     1       5.989   6.400  16.883  0.00  0.00    +0.000 N 
ATOM     14  N   UNL     1       6.828   6.144  17.981  0.00  0.00    +0.000 N 
ATOM     15  C   UNL     1       6.467   5.368  19.059  0.00  0.00    +0.000 C 
ATOM     16  O   UNL     1       7.163   5.228  20.055  0.00  0.00    +0.000 OA
ATOM     17  H   UNL     1       0.953   5.941  18.257  0.00  0.00    +0.000 HD
ATOM     18  H   UNL     1       6.322   6.126  15.963  0.00  0.00    +0.000 HD
ATOM     19  H   UNL     1       7.757   6.557  17.987  0.00  0.00    +0.000 HD
ENDROOT
BRANCH   1  23
ATOM     20  C   UNL     1      -0.110  10.544  19.413  0.00  0.00    +0.000 A 
ATOM     21  C   UNL     1       0.364   9.698  20.427  0.00  0.00    +0.000 A 
ATOM     22  C   UNL     1       1.330   8.677  20.151  0.00  0.00    +0.000 A 
ATOM     23  C   UNL     1       1.835   8.478  18.867  0.00  0.00    +0.000 A 
ATOM     24  C   UNL     1       1.385   9.352  17.874  0.00  0.00    +0.000 A 
ATOM     25  C   UNL     1       0.410  10.348  18.129  0.00  0.00    +0.000 A 
BRANCH  20  26
ATOM     26  C   UNL     1      -1.222  11.569  19.582  0.00  0.00    +0.000 C 
BRANCH  26  28
ATOM     27  C   UNL     1      -3.143  11.499  18.098  0.00  0.00    +0.000 C 
ATOM     28  N   UNL     1      -1.837  12.093  18.357  0.00  0.00    +0.000 NA
ATOM     29  H   UNL     1      -1.975  13.097  18.488  0.00  0.00    +0.000 HD
ENDBRANCH  26  28
ENDBRANCH  20  26
ENDBRANCH   1  23
TORSDOF 3
ENDMDL
MODEL 9
REMARK VINA RESULT:      -7.7      4.710      5.706
REMARK  Name = 
REMARK  4 active torsions:
REMARK  status: ('A' for Active; 'I' for Inactive)
REMARK    1  A    between atoms: C_1  and  N_2
REMARK    2  A    between atoms: N_2  and  C_3
REMARK    3  A    between atoms: C_3  and  C_4
REMARK    4  A    between atoms: C_7  and  C_8
REMARK                            x       y       z     vdW  Elec       q    Type
REMARK                         _______ _______ _______ _____ _____    ______ ____
ROOT
ATOM      1  C   UNL     1       7.677   7.501  17.742  0.00  0.00    +0.000 A 
ATOM      2  N   UNL     1       7.955   6.913  16.510  0.00  0.00    +0.000 N 
ATOM      3  C   UNL     1       6.973   6.016  16.159  0.00  0.00    +0.000 A 
ATOM      4  C   UNL     1       6.916   5.058  15.156  0.00  0.00    +0.000 A 
ATOM      5  C   UNL     1       5.793   4.218  15.162  0.00  0.00    +0.000 A 
ATOM      6  F   UNL     1       5.802   3.143  14.355  0.00  0.00    +0.000 F 
ATOM      7  C   UNL     1       4.729   4.382  16.029  0.00  0.00    +0.000 A 
ATOM      8  C   UNL     1       4.839   5.361  17.025  0.00  0.00    +0.000 A 
ATOM      9  C   UNL     1       5.989   6.156  17.129  0.00  0.00    +0.000 A 
ATOM     10  C   UNL     1       6.714   6.619  18.279  0.00  0.00    +0.000 A 
ATOM     11  C   UNL     1       6.916   5.553  19.306  0.00  0.00    +0.000 C 
ATOM     12  O   UNL     1       8.036   5.254  19.727  0.00  0.00    +0.000 OA
ATOM     13  N   UNL     1       5.856   4.656  19.525  0.00  0.00    +0.000 N 
ATOM     14  N   UNL     1       4.493   4.959  19.363  0.00  0.00    +0.000 N 
ATOM     15  C   UNL     1       3.932   5.358  18.172  0.00  0.00    +0.000 C 
ATOM     16  O   UNL     1       2.767   5.714  18.059  0.00  0.00    +0.000 OA
ATOM     17  H   UNL     1       8.743   7.146  15.929  0.00  0.00    +0.000 HD
ATOM     18  H   UNL     1       6.095   3.725  19.855  0.00  0.00    +0.000 HD
ATOM     19  H   UNL     1       3.881   4.884  20.171  0.00  0.00    +0.000 HD
ENDROOT
BRANCH   1  23
ATOM     20  C   UNL     1       8.980  11.515  18.881  0.00  0.00    +0.000 A 
ATOM     21  C   UNL     1       9.400  10.399  19.621  0.00  0.00    +0.000 A 
ATOM     22  C   UNL     1       9.063   9.069  19.212  0.00  0.00    +0.000 A 
ATOM     23  C   UNL     1       8.305   8.827  18.068  0.00  0.00    +0.000 A 
ATOM     24  C   UNL     1       7.926   9.943  17.319  0.00  0.00    +0.000 A 
ATOM     25  C   UNL     1       8.229  11.266  17.727  0.00  0.00    +0.000 A 
BRANCH  20  26
ATOM     26  C   UNL     1       9.179  12.965  19.301  0.00  0.00    +0.000 C 
BRANCH  26  28
ATOM     27  C   UNL     1      11.324  13.336  18.225  0.00  0.00    +0.000 C 
ATOM     28  N   UNL     1       9.959  13.819  18.399  0.00  0.00    +0.000 NA
ATOM     29  H   UNL     1       9.505  13.796  17.485  0.00  0.00    +0.000 HD
ENDBRANCH  26  28
ENDBRANCH  20  26
ENDBRANCH   1  23
TORSDOF 3
ENDMDL
