MODEL 1
REMARK VINA RESULT:      -7.5      0.000      0.000
REMARK  Name = 
REMARK  3 active torsions:
REMARK  status: ('A' for Active; 'I' for Inactive)
REMARK    1  A    between atoms: C_1  and  O_2
REMARK    2  A    between atoms: O_2  and  C_3
REMARK    3  A    between atoms: C_10  and  C_11
REMARK                            x       y       z     vdW  Elec       q    Type
REMARK                         _______ _______ _______ _____ _____    ______ ____
ROOT
ATOM      1  C   UNL     1       8.238   8.851  18.054  0.00  0.00    +0.000 C 
ATOM      2  O   UNL     1       8.829   8.460  19.046  0.00  0.00    +0.000 OA
ATOM      3  N   UNL     1       7.546   8.123  17.123  0.00  0.00    +0.000 N 
ATOM      4  C   UNL     1       7.281   6.791  17.089  0.00  0.00    +0.000 C 
ATOM      5  N   UNL     1       7.741   5.915  17.933  0.00  0.00    +0.000 NA
ATOM      6  C   UNL     1       7.062   4.645  17.547  0.00  0.00    +0.000 C 
ATOM      7  C   UNL     1       5.964   4.406  18.555  0.00  0.00    +0.000 C 
ATOM      8  C   UNL     1       4.674   4.185  18.214  0.00  0.00    +0.000 C 
ATOM      9  C   UNL     1       4.348   3.975  16.802  0.00  0.00    +0.000 C 
ATOM     10  C   UNL     1       5.188   4.321  15.815  0.00  0.00    +0.000 C 
ATOM     11  C   UNL     1       6.533   4.893  16.108  0.00  0.00    +0.000 C 
ATOM     12  N   UNL     1       6.447   6.356  16.089  0.00  0.00    +0.000 N 
ATOM     13  H   UNL     1       7.144   8.676  16.386  0.00  0.00    +0.000 HD
ATOM     14  H   UNL     1       5.500   6.671  16.286  0.00  0.00    +0.000 HD
ENDROOT
BRANCH   8  15
ATOM     15  C   UNL     1       3.635   4.209  19.250  0.00  0.00    +0.000 C 
ATOM     16 CL   UNL     1       3.423   2.702  20.100  0.00  0.00    +0.000 Cl
ATOM     17  C   UNL     1       2.835   5.272  19.480  0.00  0.00    +0.000 C 
ATOM     18 CL   UNL     1       1.558   5.258  20.655  0.00  0.00    +0.000 Cl
ATOM     19 CL   UNL     1       2.966   6.757  18.574  0.00  0.00    +0.000 Cl
ENDBRANCH   8  15
BRANCH   1  21
ATOM     20  C   UNL     1       9.163  11.004  18.224  0.00  0.00    +0.000 C 
ATOM     21  O   UNL     1       8.137  10.164  17.694  0.00  0.00    +0.000 OA
ENDBRANCH   1  21
TORSDOF 2
ENDMDL
MODEL 2
REMARK VINA RESULT:      -7.5      3.742      5.189
REMARK  Name = 
REMARK  3 active torsions:
REMARK  status: ('A' for Active; 'I' for Inactive)
REMARK    1  A    between atoms: C_1  and  O_2
REMARK    2  A    between atoms: O_2  and  C_3
REMARK    3  A    between atoms: C_10  and  C_11
REMARK                            x       y       z     vdW  Elec       q    Type
REMARK                         _______ _______ _______ _____ _____    ______ ____
ROOT
ATOM      1  C   UNL     1       5.969   3.354  12.545  0.00  0.00    +0.000 C 
ATOM      2  O   UNL     1       4.887   3.783  12.184  0.00  0.00    +0.000 OA
ATOM      3  N   UNL     1       6.671   3.643  13.685  0.00  0.00    +0.000 N 
ATOM      4  C   UNL     1       6.326   4.429  14.738  0.00  0.00    +0.000 C 
ATOM      5  N   UNL     1       5.249   5.155  14.808  0.00  0.00    +0.000 NA
ATOM      6  C   UNL     1       5.272   5.709  16.193  0.00  0.00    +0.000 C 
ATOM      7  C   UNL     1       4.275   4.917  17.003  0.00  0.00    +0.000 C 
ATOM      8  C   UNL     1       4.581   4.309  18.172  0.00  0.00    +0.000 C 
ATOM      9  C   UNL     1       5.881   4.583  18.787  0.00  0.00    +0.000 C 
ATOM     10  C   UNL     1       6.897   5.125  18.099  0.00  0.00    +0.000 C 
ATOM     11  C   UNL     1       6.738   5.529  16.673  0.00  0.00    +0.000 C 
ATOM     12  N   UNL     1       7.184   4.432  15.809  0.00  0.00    +0.000 N 
ATOM     13  H   UNL     1       7.550   3.160  13.759  0.00  0.00    +0.000 HD
ATOM     14  H   UNL     1       7.118   3.537  16.290  0.00  0.00    +0.000 HD
ENDROOT
BRANCH   8  15
ATOM     15  C   UNL     1       3.632   3.361  18.767  0.00  0.00    +0.000 C 
ATOM     16 CL   UNL     1       3.731   1.741  18.131  0.00  0.00    +0.000 Cl
ATOM     17  C   UNL     1       2.691   3.713  19.668  0.00  0.00    +0.000 C 
ATOM     18 CL   UNL     1       1.526   2.595  20.305  0.00  0.00    +0.000 Cl
ATOM     19 CL   UNL     1       2.513   5.349  20.247  0.00  0.00    +0.000 Cl
ENDBRANCH   8  15
BRANCH   1  21
ATOM     20  C   UNL     1       5.929   1.365  11.295  0.00  0.00    +0.000 C 
ATOM     21  O   UNL     1       6.698   2.435  11.846  0.00  0.00    +0.000 OA
ENDBRANCH   1  21
TORSDOF 2
ENDMDL
MODEL 3
REMARK VINA RESULT:      -7.5      0.739      1.523
REMARK  Name = 
REMARK  3 active torsions:
REMARK  status: ('A' for Active; 'I' for Inactive)
REMARK    1  A    between atoms: C_1  and  O_2
REMARK    2  A    between atoms: O_2  and  C_3
REMARK    3  A    between atoms: C_10  and  C_11
REMARK                            x       y       z     vdW  Elec       q    Type
REMARK                         _______ _______ _______ _____ _____    ______ ____
ROOT
ATOM      1  C   UNL     1       8.251   8.653  18.026  0.00  0.00    +0.000 C 
ATOM      2  O   UNL     1       8.707   8.300  19.100  0.00  0.00    +0.000 OA
ATOM      3  N   UNL     1       7.597   7.906  17.082  0.00  0.00    +0.000 N 
ATOM      4  C   UNL     1       7.229   6.600  17.117  0.00  0.00    +0.000 C 
ATOM      5  N   UNL     1       7.530   5.762  18.065  0.00  0.00    +0.000 NA
ATOM      6  C   UNL     1       6.790   4.519  17.701  0.00  0.00    +0.000 C 
ATOM      7  C   UNL     1       5.583   4.443  18.604  0.00  0.00    +0.000 C 
ATOM      8  C   UNL     1       4.319   4.292  18.147  0.00  0.00    +0.000 C 
ATOM      9  C   UNL     1       4.117   3.995  16.727  0.00  0.00    +0.000 C 
ATOM     10  C   UNL     1       5.075   4.198  15.811  0.00  0.00    +0.000 C 
ATOM     11  C   UNL     1       6.427   4.691  16.201  0.00  0.00    +0.000 C 
ATOM     12  N   UNL     1       6.464   6.150  16.069  0.00  0.00    +0.000 N 
ATOM     13  H   UNL     1       7.316   8.428  16.270  0.00  0.00    +0.000 HD
ATOM     14  H   UNL     1       5.531   6.548  16.143  0.00  0.00    +0.000 HD
ENDROOT
BRANCH   8  15
ATOM     15  C   UNL     1       3.188   4.475  19.064  0.00  0.00    +0.000 C 
ATOM     16 CL   UNL     1       2.997   6.101  19.664  0.00  0.00    +0.000 Cl
ATOM     17  C   UNL     1       2.403   3.465  19.492  0.00  0.00    +0.000 C 
ATOM     18 CL   UNL     1       1.117   3.685  20.637  0.00  0.00    +0.000 Cl
ATOM     19 CL   UNL     1       2.637   1.814  18.978  0.00  0.00    +0.000 Cl
ENDBRANCH   8  15
BRANCH   1  21
ATOM     20  C   UNL     1       9.159  10.803  18.301  0.00  0.00    +0.000 C 
ATOM     21  O   UNL     1       8.294   9.937  17.564  0.00  0.00    +0.000 OA
ENDBRANCH   1  21
TORSDOF 2
ENDMDL
MODEL 4
REMARK VINA RESULT:      -7.2      3.156      4.317
REMARK  Name = 
REMARK  3 active torsions:
REMARK  status: ('A' for Active; 'I' for Inactive)
REMARK    1  A    between atoms: C_1  and  O_2
REMARK    2  A    between atoms: O_2  and  C_3
REMARK    3  A    between atoms: C_10  and  C_11
REMARK                            x       y       z     vdW  Elec       q    Type
REMARK                         _______ _______ _______ _____ _____    ______ ____
ROOT
ATOM      1  C   UNL     1       6.853   5.141  15.452  0.00  0.00    +0.000 C 
ATOM      2  O   UNL     1       7.664   5.714  16.160  0.00  0.00    +0.000 OA
ATOM      3  N   UNL     1       5.732   4.446  15.819  0.00  0.00    +0.000 N 
ATOM      4  C   UNL     1       5.193   4.262  17.051  0.00  0.00    +0.000 C 
ATOM      5  N   UNL     1       5.726   4.660  18.168  0.00  0.00    +0.000 NA
ATOM      6  C   UNL     1       4.697   4.340  19.200  0.00  0.00    +0.000 C 
ATOM      7  C   UNL     1       4.015   5.638  19.561  0.00  0.00    +0.000 C 
ATOM      8  C   UNL     1       2.674   5.810  19.525  0.00  0.00    +0.000 C 
ATOM      9  C   UNL     1       1.821   4.638  19.312  0.00  0.00    +0.000 C 
ATOM     10  C   UNL     1       2.300   3.484  18.823  0.00  0.00    +0.000 C 
ATOM     11  C   UNL     1       3.749   3.316  18.517  0.00  0.00    +0.000 C 
ATOM     12  N   UNL     1       3.980   3.620  17.102  0.00  0.00    +0.000 N 
ATOM     13  H   UNL     1       5.220   4.057  15.046  0.00  0.00    +0.000 HD
ATOM     14  H   UNL     1       3.260   4.239  16.738  0.00  0.00    +0.000 HD
ENDROOT
BRANCH   8  15
ATOM     15  C   UNL     1       2.111   7.159  19.648  0.00  0.00    +0.000 C 
ATOM     16 CL   UNL     1       1.190   7.430  21.103  0.00  0.00    +0.000 Cl
ATOM     17  C   UNL     1       2.210   8.100  18.686  0.00  0.00    +0.000 C 
ATOM     18 CL   UNL     1       1.473   9.666  18.815  0.00  0.00    +0.000 Cl
ATOM     19 CL   UNL     1       3.046   7.818  17.181  0.00  0.00    +0.000 Cl
ENDBRANCH   8  15
BRANCH   1  21
ATOM     20  C   UNL     1       6.341   3.953  13.491  0.00  0.00    +0.000 C 
ATOM     21  O   UNL     1       6.914   5.117  14.089  0.00  0.00    +0.000 OA
ENDBRANCH   1  21
TORSDOF 2
ENDMDL
MODEL 5
REMARK VINA RESULT:      -7.0      0.855      1.666
REMARK  Name = 
REMARK  3 active torsions:
REMARK  status: ('A' for Active; 'I' for Inactive)
REMARK    1  A    between atoms: C_1  and  O_2
REMARK    2  A    between atoms: O_2  and  C_3
REMARK    3  A    between atoms: C_10  and  C_11
REMARK                            x       y       z     vdW  Elec       q    Type
REMARK                         _______ _______ _______ _____ _____    ______ ____
ROOT
ATOM      1  C   UNL     1       8.631   9.493  18.365  0.00  0.00    +0.000 C 
ATOM      2  O   UNL     1       8.904   9.283  19.535  0.00  0.00    +0.000 OA
ATOM      3  N   UNL     1       8.123   8.627  17.433  0.00  0.00    +0.000 N 
ATOM      4  C   UNL     1       7.732   7.334  17.575  0.00  0.00    +0.000 C 
ATOM      5  N   UNL     1       7.864   6.628  18.659  0.00  0.00    +0.000 NA
ATOM      6  C   UNL     1       7.171   5.345  18.345  0.00  0.00    +0.000 C 
ATOM      7  C   UNL     1       5.834   5.382  19.044  0.00  0.00    +0.000 C 
ATOM      8  C   UNL     1       4.657   5.168  18.414  0.00  0.00    +0.000 C 
ATOM      9  C   UNL     1       4.679   4.688  17.030  0.00  0.00    +0.000 C 
ATOM     10  C   UNL     1       5.775   4.775  16.261  0.00  0.00    +0.000 C 
ATOM     11  C   UNL     1       7.056   5.319  16.796  0.00  0.00    +0.000 C 
ATOM     12  N   UNL     1       7.138   6.749  16.485  0.00  0.00    +0.000 N 
ATOM     13  H   UNL     1       7.985   9.037  16.526  0.00  0.00    +0.000 HD
ATOM     14  H   UNL     1       6.211   7.150  16.356  0.00  0.00    +0.000 HD
ENDROOT
BRANCH   8  15
ATOM     15  C   UNL     1       3.397   5.464  19.106  0.00  0.00    +0.000 C 
ATOM     16 CL   UNL     1       2.808   7.089  18.876  0.00  0.00    +0.000 Cl
ATOM     17  C   UNL     1       2.776   4.594  19.930  0.00  0.00    +0.000 C 
ATOM     18 CL   UNL     1       1.328   4.987  20.802  0.00  0.00    +0.000 Cl
ATOM     19 CL   UNL     1       3.400   2.997  20.249  0.00  0.00    +0.000 Cl
ENDBRANCH   8  15
BRANCH   1  21
ATOM     20  C   UNL     1       9.152  11.768  18.629  0.00  0.00    +0.000 C 
ATOM     21  O   UNL     1       8.769  10.706  17.755  0.00  0.00    +0.000 OA
ENDBRANCH   1  21
TORSDOF 2
ENDMDL
MODEL 6
REMARK VINA RESULT:      -7.0      3.324      4.602
REMARK  Name = 
REMARK  3 active torsions:
REMARK  status: ('A' for Active; 'I' for Inactive)
REMARK    1  A    between atoms: C_1  and  O_2
REMARK    2  A    between atoms: O_2  and  C_3
REMARK    3  A    between atoms: C_10  and  C_11
REMARK                            x       y       z     vdW  Elec       q    Type
REMARK                         _______ _______ _______ _____ _____    ______ ____
ROOT
ATOM      1  C   UNL     1       6.851   4.761  14.777  0.00  0.00    +0.000 C 
ATOM      2  O   UNL     1       7.699   5.424  15.350  0.00  0.00    +0.000 OA
ATOM      3  N   UNL     1       5.744   4.146  15.298  0.00  0.00    +0.000 N 
ATOM      4  C   UNL     1       5.264   4.161  16.568  0.00  0.00    +0.000 C 
ATOM      5  N   UNL     1       5.854   4.718  17.585  0.00  0.00    +0.000 NA
ATOM      6  C   UNL     1       4.873   4.574  18.700  0.00  0.00    +0.000 C 
ATOM      7  C   UNL     1       4.218   5.921  18.889  0.00  0.00    +0.000 C 
ATOM      8  C   UNL     1       2.879   6.104  18.889  0.00  0.00    +0.000 C 
ATOM      9  C   UNL     1       2.009   4.926  18.900  0.00  0.00    +0.000 C 
ATOM     10  C   UNL     1       2.456   3.705  18.572  0.00  0.00    +0.000 C 
ATOM     11  C   UNL     1       3.887   3.471  18.228  0.00  0.00    +0.000 C 
ATOM     12  N   UNL     1       4.052   3.551  16.774  0.00  0.00    +0.000 N 
ATOM     13  H   UNL     1       5.193   3.651  14.619  0.00  0.00    +0.000 HD
ATOM     14  H   UNL     1       3.319   4.118  16.353  0.00  0.00    +0.000 HD
ENDROOT
BRANCH   8  15
ATOM     15  C   UNL     1       2.331   7.465  18.831  0.00  0.00    +0.000 C 
ATOM     16 CL   UNL     1       2.758   8.356  17.394  0.00  0.00    +0.000 Cl
ATOM     17  C   UNL     1       1.630   8.031  19.835  0.00  0.00    +0.000 C 
ATOM     18 CL   UNL     1       1.055   9.668  19.782  0.00  0.00    +0.000 Cl
ATOM     19 CL   UNL     1       1.274   7.189  21.321  0.00  0.00    +0.000 Cl
ENDBRANCH   8  15
BRANCH   1  21
ATOM     20  C   UNL     1       5.873   3.576  13.000  0.00  0.00    +0.000 C 
ATOM     21  O   UNL     1       6.846   4.527  13.432  0.00  0.00    +0.000 OA
ENDBRANCH   1  21
TORSDOF 2
ENDMDL
MODEL 7
REMARK VINA RESULT:      -6.9      3.505      5.127
REMARK  Name = 
REMARK  3 active torsions:
REMARK  status: ('A' for Active; 'I' for Inactive)
REMARK    1  A    between atoms: C_1  and  O_2
REMARK    2  A    between atoms: O_2  and  C_3
REMARK    3  A    between atoms: C_10  and  C_11
REMARK                            x       y       z     vdW  Elec       q    Type
REMARK                         _______ _______ _______ _____ _____    ______ ____
ROOT
ATOM      1  C   UNL     1       5.906   3.612  12.983  0.00  0.00    +0.000 C 
ATOM      2  O   UNL     1       4.971   4.252  12.534  0.00  0.00    +0.000 OA
ATOM      3  N   UNL     1       6.607   3.814  14.143  0.00  0.00    +0.000 N 
ATOM      4  C   UNL     1       6.409   4.732  15.124  0.00  0.00    +0.000 C 
ATOM      5  N   UNL     1       5.529   5.689  15.087  0.00  0.00    +0.000 NA
ATOM      6  C   UNL     1       5.621   6.322  16.435  0.00  0.00    +0.000 C 
ATOM      7  C   UNL     1       4.433   5.840  17.232  0.00  0.00    +0.000 C 
ATOM      8  C   UNL     1       4.537   5.265  18.451  0.00  0.00    +0.000 C 
ATOM      9  C   UNL     1       5.838   5.276  19.124  0.00  0.00    +0.000 C 
ATOM     10  C   UNL     1       6.981   5.519  18.465  0.00  0.00    +0.000 C 
ATOM     11  C   UNL     1       6.982   5.845  17.011  0.00  0.00    +0.000 C 
ATOM     12  N   UNL     1       7.196   4.615  16.242  0.00  0.00    +0.000 N 
ATOM     13  H   UNL     1       7.344   3.149  14.297  0.00  0.00    +0.000 HD
ATOM     14  H   UNL     1       6.903   3.797  16.771  0.00  0.00    +0.000 HD
ENDROOT
BRANCH   8  15
ATOM     15  C   UNL     1       3.369   4.605  19.045  0.00  0.00    +0.000 C 
ATOM     16 CL   UNL     1       2.515   5.566  20.223  0.00  0.00    +0.000 Cl
ATOM     17  C   UNL     1       3.019   3.328  18.783  0.00  0.00    +0.000 C 
ATOM     18 CL   UNL     1       1.680   2.536  19.553  0.00  0.00    +0.000 Cl
ATOM     19 CL   UNL     1       3.917   2.318  17.680  0.00  0.00    +0.000 Cl
ENDBRANCH   8  15
BRANCH   1  21
ATOM     20  C   UNL     1       5.592   1.916  11.389  0.00  0.00    +0.000 C 
ATOM     21  O   UNL     1       6.430   2.503  12.385  0.00  0.00    +0.000 OA
ENDBRANCH   1  21
TORSDOF 2
ENDMDL
MODEL 8
REMARK VINA RESULT:      -6.5      4.885      6.702
REMARK  Name = 
REMARK  3 active torsions:
REMARK  status: ('A' for Active; 'I' for Inactive)
REMARK    1  A    between atoms: C_1  and  O_2
REMARK    2  A    between atoms: O_2  and  C_3
REMARK    3  A    between atoms: C_10  and  C_11
REMARK                            x       y       z     vdW  Elec       q    Type
REMARK                         _______ _______ _______ _____ _____    ______ ____
ROOT
ATOM      1  C   UNL     1       5.983  -0.078  21.324  0.00  0.00    +0.000 C 
ATOM      2  O   UNL     1       6.005   0.650  22.301  0.00  0.00    +0.000 OA
ATOM      3  N   UNL     1       5.328   0.100  20.134  0.00  0.00    +0.000 N 
ATOM      4  C   UNL     1       4.587   1.154  19.704  0.00  0.00    +0.000 C 
ATOM      5  N   UNL     1       4.279   2.194  20.422  0.00  0.00    +0.000 NA
ATOM      6  C   UNL     1       3.583   3.103  19.466  0.00  0.00    +0.000 C 
ATOM      7  C   UNL     1       4.565   4.187  19.092  0.00  0.00    +0.000 C 
ATOM      8  C   UNL     1       4.878   4.500  17.814  0.00  0.00    +0.000 C 
ATOM      9  C   UNL     1       4.094   3.900  16.732  0.00  0.00    +0.000 C 
ATOM     10  C   UNL     1       3.323   2.819  16.922  0.00  0.00    +0.000 C 
ATOM     11  C   UNL     1       3.180   2.198  18.270  0.00  0.00    +0.000 C 
ATOM     12  N   UNL     1       4.153   1.109  18.403  0.00  0.00    +0.000 N 
ATOM     13  H   UNL     1       5.462  -0.648  19.477  0.00  0.00    +0.000 HD
ATOM     14  H   UNL     1       4.947   1.249  17.782  0.00  0.00    +0.000 HD
ENDROOT
BRANCH   8  15
ATOM     15  C   UNL     1       6.016   5.386  17.541  0.00  0.00    +0.000 C 
ATOM     16 CL   UNL     1       7.561   4.582  17.472  0.00  0.00    +0.000 Cl
ATOM     17  C   UNL     1       5.909   6.728  17.438  0.00  0.00    +0.000 C 
ATOM     18 CL   UNL     1       7.274   7.770  17.192  0.00  0.00    +0.000 Cl
ATOM     19 CL   UNL     1       4.385   7.561  17.600  0.00  0.00    +0.000 Cl
ENDBRANCH   8  15
BRANCH   1  21
ATOM     20  C   UNL     1       7.380  -1.619  22.417  0.00  0.00    +0.000 C 
ATOM     21  O   UNL     1       6.670  -1.254  21.232  0.00  0.00    +0.000 OA
ENDBRANCH   1  21
TORSDOF 2
ENDMDL
MODEL 9
REMARK VINA RESULT:      -6.5      1.364      1.914
REMARK  Name = 
REMARK  3 active torsions:
REMARK  status: ('A' for Active; 'I' for Inactive)
REMARK    1  A    between atoms: C_1  and  O_2
REMARK    2  A    between atoms: O_2  and  C_3
REMARK    3  A    between atoms: C_10  and  C_11
REMARK                            x       y       z     vdW  Elec       q    Type
REMARK                         _______ _______ _______ _____ _____    ______ ____
ROOT
ATOM      1  C   UNL     1       7.805   7.290  17.828  0.00  0.00    +0.000 C 
ATOM      2  O   UNL     1       8.297   6.960  18.894  0.00  0.00    +0.000 OA
ATOM      3  N   UNL     1       6.843   6.652  17.092  0.00  0.00    +0.000 N 
ATOM      4  C   UNL     1       6.139   5.526  17.379  0.00  0.00    +0.000 C 
ATOM      5  N   UNL     1       6.333   4.767  18.417  0.00  0.00    +0.000 NA
ATOM      6  C   UNL     1       5.237   3.758  18.341  0.00  0.00    +0.000 C 
ATOM      7  C   UNL     1       4.198   4.156  19.361  0.00  0.00    +0.000 C 
ATOM      8  C   UNL     1       2.889   4.324  19.066  0.00  0.00    +0.000 C 
ATOM      9  C   UNL     1       2.411   3.918  17.742  0.00  0.00    +0.000 C 
ATOM     10  C   UNL     1       3.246   3.711  16.713  0.00  0.00    +0.000 C 
ATOM     11  C   UNL     1       4.722   3.833  16.877  0.00  0.00    +0.000 C 
ATOM     12  N   UNL     1       5.138   5.188  16.503  0.00  0.00    +0.000 N 
ATOM     13  H   UNL     1       6.601   7.123  16.238  0.00  0.00    +0.000 HD
ATOM     14  H   UNL     1       4.370   5.848  16.604  0.00  0.00    +0.000 HD
ENDROOT
BRANCH   8  15
ATOM     15  C   UNL     1       1.996   4.947  20.049  0.00  0.00    +0.000 C 
ATOM     16 CL   UNL     1       1.121   3.819  21.050  0.00  0.00    +0.000 Cl
ATOM     17  C   UNL     1       1.786   6.278  20.129  0.00  0.00    +0.000 C 
ATOM     18 CL   UNL     1       0.669   6.994  21.247  0.00  0.00    +0.000 Cl
ATOM     19 CL   UNL     1       2.580   7.417  19.073  0.00  0.00    +0.000 Cl
ENDBRANCH   8  15
BRANCH   1  21
ATOM     20  C   UNL     1       8.376   9.563  18.000  0.00  0.00    +0.000 C 
ATOM     21  O   UNL     1       8.131   8.434  17.159  0.00  0.00    +0.000 OA
ENDBRANCH   1  21
TORSDOF 2
ENDMDL
