MODEL 1
REMARK VINA RESULT:      -8.9      0.000      0.000
REMARK  Name = 
REMARK  7 active torsions:
REMARK  status: ('A' for Active; 'I' for Inactive)
REMARK    1  A    between atoms: C_1  and  O_2
REMARK    2  A    between atoms: O_2  and  C_3
REMARK    3  A    between atoms: C_3  and  C_4
REMARK    4  A    between atoms: C_9  and  O_10
REMARK    5  A    between atoms: O_10  and  C_11
REMARK    6  A    between atoms: C_11  and  C_12
REMARK    7  A    between atoms: N_22  and  C_23
REMARK                            x       y       z     vdW  Elec       q    Type
REMARK                         _______ _______ _______ _____ _____    ______ ____
ROOT
ATOM      1  C   UNL     1       4.527   4.471  18.050  0.00  0.00    +0.000 A 
ATOM      2  C   UNL     1       3.999   3.254  17.580  0.00  0.00    +0.000 A 
ATOM      3  C   UNL     1       2.700   2.861  17.890  0.00  0.00    +0.000 A 
ATOM      4  F   UNL     1       2.219   1.719  17.382  0.00  0.00    +0.000 F 
ATOM      5  C   UNL     1       1.884   3.643  18.686  0.00  0.00    +0.000 A 
ATOM      6  C   UNL     1       2.382   4.838  19.192  0.00  0.00    +0.000 A 
ATOM      7  C   UNL     1       3.706   5.217  18.922  0.00  0.00    +0.000 A 
ENDROOT
BRANCH   1   8
ATOM      8  C   UNL     1       5.942   4.946  17.631  0.00  0.00    +0.000 C 
ATOM      9  C   UNL     1       6.464   4.164  16.395  0.00  0.00    +0.000 C 
ATOM     10  C   UNL     1       5.672   4.534  15.146  0.00  0.00    +0.000 C 
ATOM     11  O   UNL     1       5.793   5.932  14.889  0.00  0.00    +0.000 OA
ATOM     12  C   UNL     1       5.258   6.728  15.945  0.00  0.00    +0.000 C 
ATOM     13  C   UNL     1       5.996   6.449  17.251  0.00  0.00    +0.000 C 
BRANCH   8  15
ATOM     14  C   UNL     1       7.678   5.653  19.212  0.00  0.00    +0.000 C 
ATOM     15  O   UNL     1       6.731   4.676  18.806  0.00  0.00    +0.000 OA
ENDBRANCH   8  15
ENDBRANCH   1   8
BRANCH   6  16
ATOM     16  O   UNL     1       1.652   5.717  19.945  0.00  0.00    +0.000 OA
BRANCH  16  17
ATOM     17  C   UNL     1       2.394   6.842  20.435  0.00  0.00    +0.000 C 
BRANCH  17  18
ATOM     18  C   UNL     1       1.562   8.098  20.352  0.00  0.00    +0.000 A 
ATOM     19  C   UNL     1       1.328   8.747  19.139  0.00  0.00    +0.000 A 
ATOM     20  C   UNL     1       0.535   9.900  19.081  0.00  0.00    +0.000 A 
ATOM     21  C   UNL     1      -0.031  10.458  20.239  0.00  0.00    +0.000 A 
ATOM     22  C   UNL     1       0.256   9.819  21.462  0.00  0.00    +0.000 A 
ATOM     23  C   UNL     1       1.037   8.658  21.522  0.00  0.00    +0.000 A 
ATOM     24  C   UNL     1      -0.281  10.386  22.725  0.00  0.00    +0.000 A 
ATOM     25  O   UNL     1      -0.055   9.873  23.817  0.00  0.00    +0.000 OA
ATOM     26  C   UNL     1      -1.102  11.606  22.630  0.00  0.00    +0.000 A 
ATOM     27  C   UNL     1      -1.329  12.116  21.418  0.00  0.00    +0.000 A 
ATOM     28  N   UNL     1      -0.850  11.612  20.225  0.00  0.00    +0.000 N 
ATOM     29  C   UNL     1      -1.214  12.189  18.932  0.00  0.00    +0.000 C 
ENDBRANCH  17  18
ENDBRANCH  16  17
ENDBRANCH   6  16
TORSDOF 5
ENDMDL
MODEL 2
REMARK VINA RESULT:      -8.7      0.908      1.983
REMARK  Name = 
REMARK  7 active torsions:
REMARK  status: ('A' for Active; 'I' for Inactive)
REMARK    1  A    between atoms: C_1  and  O_2
REMARK    2  A    between atoms: O_2  and  C_3
REMARK    3  A    between atoms: C_3  and  C_4
REMARK    4  A    between atoms: C_9  and  O_10
REMARK    5  A    between atoms: O_10  and  C_11
REMARK    6  A    between atoms: C_11  and  C_12
REMARK    7  A    between atoms: N_22  and  C_23
REMARK                            x       y       z     vdW  Elec       q    Type
REMARK                         _______ _______ _______ _____ _____    ______ ____
ROOT
ATOM      1  C   UNL     1       4.483   4.639  17.054  0.00  0.00    +0.000 A 
ATOM      2  C   UNL     1       4.136   3.278  17.153  0.00  0.00    +0.000 A 
ATOM      3  C   UNL     1       3.031   2.865  17.892  0.00  0.00    +0.000 A 
ATOM      4  F   UNL     1       2.707   1.566  17.920  0.00  0.00    +0.000 F 
ATOM      5  C   UNL     1       2.242   3.773  18.572  0.00  0.00    +0.000 A 
ATOM      6  C   UNL     1       2.572   5.123  18.520  0.00  0.00    +0.000 A 
ATOM      7  C   UNL     1       3.711   5.541  17.816  0.00  0.00    +0.000 A 
ENDROOT
BRANCH   1   8
ATOM      8  C   UNL     1       5.661   5.103  16.160  0.00  0.00    +0.000 C 
ATOM      9  C   UNL     1       5.937   6.622  16.321  0.00  0.00    +0.000 C 
ATOM     10  C   UNL     1       6.507   6.926  17.703  0.00  0.00    +0.000 C 
ATOM     11  O   UNL     1       7.730   6.216  17.892  0.00  0.00    +0.000 OA
ATOM     12  C   UNL     1       7.551   4.801  17.841  0.00  0.00    +0.000 C 
ATOM     13  C   UNL     1       6.996   4.381  16.484  0.00  0.00    +0.000 C 
BRANCH   8  15
ATOM     14  C   UNL     1       6.058   4.014  13.999  0.00  0.00    +0.000 C 
ATOM     15  O   UNL     1       5.202   4.781  14.833  0.00  0.00    +0.000 OA
ENDBRANCH   8  15
ENDBRANCH   1   8
BRANCH   6  16
ATOM     16  O   UNL     1       1.836   6.116  19.109  0.00  0.00    +0.000 OA
BRANCH  16  17
ATOM     17  C   UNL     1       2.545   7.346  19.304  0.00  0.00    +0.000 C 
BRANCH  17  18
ATOM     18  C   UNL     1       1.578   8.480  19.539  0.00  0.00    +0.000 A 
ATOM     19  C   UNL     1       1.054   9.232  18.486  0.00  0.00    +0.000 A 
ATOM     20  C   UNL     1       0.142  10.266  18.725  0.00  0.00    +0.000 A 
ATOM     21  C   UNL     1      -0.261  10.601  20.028  0.00  0.00    +0.000 A 
ATOM     22  C   UNL     1       0.314   9.865  21.083  0.00  0.00    +0.000 A 
ATOM     23  C   UNL     1       1.217   8.821  20.848  0.00  0.00    +0.000 A 
ATOM     24  C   UNL     1      -0.042  10.200  22.486  0.00  0.00    +0.000 A 
ATOM     25  O   UNL     1       0.435   9.596  23.441  0.00  0.00    +0.000 OA
ATOM     26  C   UNL     1      -0.997  11.302  22.701  0.00  0.00    +0.000 A 
ATOM     27  C   UNL     1      -1.498  11.917  21.629  0.00  0.00    +0.000 A 
ATOM     28  N   UNL     1      -1.192  11.628  20.314  0.00  0.00    +0.000 N 
ATOM     29  C   UNL     1      -1.849  12.302  19.194  0.00  0.00    +0.000 C 
ENDBRANCH  17  18
ENDBRANCH  16  17
ENDBRANCH   6  16
TORSDOF 5
ENDMDL
MODEL 3
REMARK VINA RESULT:      -8.6      1.195      1.246
REMARK  Name = 
REMARK  7 active torsions:
REMARK  status: ('A' for Active; 'I' for Inactive)
REMARK    1  A    between atoms: C_1  and  O_2
REMARK    2  A    between atoms: O_2  and  C_3
REMARK    3  A    between atoms: C_3  and  C_4
REMARK    4  A    between atoms: C_9  and  O_10
REMARK    5  A    between atoms: O_10  and  C_11
REMARK    6  A    between atoms: C_11  and  C_12
REMARK    7  A    between atoms: N_22  and  C_23
REMARK                            x       y       z     vdW  Elec       q    Type
REMARK                         _______ _______ _______ _____ _____    ______ ____
ROOT
ATOM      1  C   UNL     1       5.186   5.171  18.583  0.00  0.00    +0.000 A 
ATOM      2  C   UNL     1       4.976   3.833  18.963  0.00  0.00    +0.000 A 
ATOM      3  C   UNL     1       3.829   3.446  19.650  0.00  0.00    +0.000 A 
ATOM      4  F   UNL     1       3.646   2.154  19.949  0.00  0.00    +0.000 F 
ATOM      5  C   UNL     1       2.858   4.365  20.001  0.00  0.00    +0.000 A 
ATOM      6  C   UNL     1       3.045   5.702  19.667  0.00  0.00    +0.000 A 
ATOM      7  C   UNL     1       4.221   6.105  19.016  0.00  0.00    +0.000 A 
ENDROOT
BRANCH   1   8
ATOM      8  C   UNL     1       6.421   5.582  17.743  0.00  0.00    +0.000 C 
ATOM      9  C   UNL     1       6.893   4.428  16.817  0.00  0.00    +0.000 C 
ATOM     10  C   UNL     1       5.880   4.177  15.706  0.00  0.00    +0.000 C 
ATOM     11  O   UNL     1       5.716   5.356  14.920  0.00  0.00    +0.000 OA
ATOM     12  C   UNL     1       5.205   6.450  15.681  0.00  0.00    +0.000 C 
ATOM     13  C   UNL     1       6.157   6.801  16.820  0.00  0.00    +0.000 C 
BRANCH   8  15
ATOM     14  C   UNL     1       8.149   7.095  18.605  0.00  0.00    +0.000 C 
ATOM     15  O   UNL     1       7.404   5.894  18.750  0.00  0.00    +0.000 OA
ENDBRANCH   8  15
ENDBRANCH   1   8
BRANCH   6  16
ATOM     16  O   UNL     1       2.131   6.690  19.915  0.00  0.00    +0.000 OA
BRANCH  16  17
ATOM     17  C   UNL     1       2.236   7.829  19.051  0.00  0.00    +0.000 C 
BRANCH  17  18
ATOM     18  C   UNL     1       1.244   8.891  19.457  0.00  0.00    +0.000 A 
ATOM     19  C   UNL     1       0.599   9.696  18.516  0.00  0.00    +0.000 A 
ATOM     20  C   UNL     1      -0.334  10.661  18.913  0.00  0.00    +0.000 A 
ATOM     21  C   UNL     1      -0.636  10.873  20.268  0.00  0.00    +0.000 A 
ATOM     22  C   UNL     1       0.060  10.087  21.208  0.00  0.00    +0.000 A 
ATOM     23  C   UNL     1       0.984   9.112  20.815  0.00  0.00    +0.000 A 
ATOM     24  C   UNL     1      -0.188  10.294  22.658  0.00  0.00    +0.000 A 
ATOM     25  O   UNL     1       0.397   9.642  23.518  0.00  0.00    +0.000 OA
ATOM     26  C   UNL     1      -1.167  11.326  23.042  0.00  0.00    +0.000 A 
ATOM     27  C   UNL     1      -1.785  11.997  22.068  0.00  0.00    +0.000 A 
ATOM     28  N   UNL     1      -1.583  11.826  20.714  0.00  0.00    +0.000 N 
ATOM     29  C   UNL     1      -2.363  12.551  19.710  0.00  0.00    +0.000 C 
ENDBRANCH  17  18
ENDBRANCH  16  17
ENDBRANCH   6  16
TORSDOF 5
ENDMDL
MODEL 4
REMARK VINA RESULT:      -8.5      1.267      2.007
REMARK  Name = 
REMARK  7 active torsions:
REMARK  status: ('A' for Active; 'I' for Inactive)
REMARK    1  A    between atoms: C_1  and  O_2
REMARK    2  A    between atoms: O_2  and  C_3
REMARK    3  A    between atoms: C_3  and  C_4
REMARK    4  A    between atoms: C_9  and  O_10
REMARK    5  A    between atoms: O_10  and  C_11
REMARK    6  A    between atoms: C_11  and  C_12
REMARK    7  A    between atoms: N_22  and  C_23
REMARK                            x       y       z     vdW  Elec       q    Type
REMARK                         _______ _______ _______ _____ _____    ______ ____
ROOT
ATOM      1  C   UNL     1       4.778   4.696  18.167  0.00  0.00    +0.000 A 
ATOM      2  C   UNL     1       4.478   3.424  18.689  0.00  0.00    +0.000 A 
ATOM      3  C   UNL     1       3.467   3.248  19.629  0.00  0.00    +0.000 A 
ATOM      4  F   UNL     1       3.181   2.014  20.064  0.00  0.00    +0.000 F 
ATOM      5  C   UNL     1       2.730   4.318  20.100  0.00  0.00    +0.000 A 
ATOM      6  C   UNL     1       3.018   5.593  19.628  0.00  0.00    +0.000 A 
ATOM      7  C   UNL     1       4.067   5.784  18.715  0.00  0.00    +0.000 A 
ENDROOT
BRANCH   1   8
ATOM      8  C   UNL     1       5.845   4.876  17.057  0.00  0.00    +0.000 C 
ATOM      9  C   UNL     1       5.781   6.293  16.427  0.00  0.00    +0.000 C 
ATOM     10  C   UNL     1       6.244   7.351  17.422  0.00  0.00    +0.000 C 
ATOM     11  O   UNL     1       7.588   7.087  17.823  0.00  0.00    +0.000 OA
ATOM     12  C   UNL     1       7.722   5.832  18.488  0.00  0.00    +0.000 C 
ATOM     13  C   UNL     1       7.298   4.692  17.569  0.00  0.00    +0.000 C 
BRANCH   8  15
ATOM     14  C   UNL     1       5.971   3.985  14.775  0.00  0.00    +0.000 C 
ATOM     15  O   UNL     1       5.493   3.852  16.106  0.00  0.00    +0.000 OA
ENDBRANCH   8  15
ENDBRANCH   1   8
BRANCH   6  16
ATOM     16  O   UNL     1       2.323   6.718  19.981  0.00  0.00    +0.000 OA
BRANCH  16  17
ATOM     17  C   UNL     1       2.324   7.755  18.991  0.00  0.00    +0.000 C 
BRANCH  17  18
ATOM     18  C   UNL     1       1.338   8.836  19.359  0.00  0.00    +0.000 A 
ATOM     19  C   UNL     1       0.713   9.624  18.391  0.00  0.00    +0.000 A 
ATOM     20  C   UNL     1      -0.215  10.608  18.754  0.00  0.00    +0.000 A 
ATOM     21  C   UNL     1      -0.532  10.855  20.099  0.00  0.00    +0.000 A 
ATOM     22  C   UNL     1       0.143  10.084  21.066  0.00  0.00    +0.000 A 
ATOM     23  C   UNL     1       1.063   9.091  20.708  0.00  0.00    +0.000 A 
ATOM     24  C   UNL     1      -0.121  10.328  22.508  0.00  0.00    +0.000 A 
ATOM     25  O   UNL     1       0.446   9.690  23.390  0.00  0.00    +0.000 OA
ATOM     26  C   UNL     1      -1.095  11.378  22.854  0.00  0.00    +0.000 A 
ATOM     27  C   UNL     1      -1.693  12.032  21.857  0.00  0.00    +0.000 A 
ATOM     28  N   UNL     1      -1.475  11.827  20.509  0.00  0.00    +0.000 N 
ATOM     29  C   UNL     1      -2.235  12.536  19.479  0.00  0.00    +0.000 C 
ENDBRANCH  17  18
ENDBRANCH  16  17
ENDBRANCH   6  16
TORSDOF 5
ENDMDL
MODEL 5
REMARK VINA RESULT:      -8.5      1.416      2.073
REMARK  Name = 
REMARK  7 active torsions:
REMARK  status: ('A' for Active; 'I' for Inactive)
REMARK    1  A    between atoms: C_1  and  O_2
REMARK    2  A    between atoms: O_2  and  C_3
REMARK    3  A    between atoms: C_3  and  C_4
REMARK    4  A    between atoms: C_9  and  O_10
REMARK    5  A    between atoms: O_10  and  C_11
REMARK    6  A    between atoms: C_11  and  C_12
REMARK    7  A    between atoms: N_22  and  C_23
REMARK                            x       y       z     vdW  Elec       q    Type
REMARK                         _______ _______ _______ _____ _____    ______ ____
ROOT
ATOM      1  C   UNL     1       4.586   4.673  18.594  0.00  0.00    +0.000 A 
ATOM      2  C   UNL     1       4.056   3.373  18.505  0.00  0.00    +0.000 A 
ATOM      3  C   UNL     1       2.804   3.064  19.029  0.00  0.00    +0.000 A 
ATOM      4  F   UNL     1       2.315   1.827  18.880  0.00  0.00    +0.000 F 
ATOM      5  C   UNL     1       2.040   4.020  19.672  0.00  0.00    +0.000 A 
ATOM      6  C   UNL     1       2.544   5.308  19.804  0.00  0.00    +0.000 A 
ATOM      7  C   UNL     1       3.825   5.614  19.320  0.00  0.00    +0.000 A 
ENDROOT
BRANCH   1   8
ATOM      8  C   UNL     1       5.941   5.033  17.934  0.00  0.00    +0.000 C 
ATOM      9  C   UNL     1       6.195   4.192  16.654  0.00  0.00    +0.000 C 
ATOM     10  C   UNL     1       5.234   4.594  15.541  0.00  0.00    +0.000 C 
ATOM     11  O   UNL     1       5.408   5.974  15.223  0.00  0.00    +0.000 OA
ATOM     12  C   UNL     1       5.114   6.828  16.328  0.00  0.00    +0.000 C 
ATOM     13  C   UNL     1       6.037   6.521  17.503  0.00  0.00    +0.000 C 
BRANCH   8  15
ATOM     14  C   UNL     1       7.832   5.732  19.331  0.00  0.00    +0.000 C 
ATOM     15  O   UNL     1       6.894   4.729  18.971  0.00  0.00    +0.000 OA
ENDBRANCH   8  15
ENDBRANCH   1   8
BRANCH   6  16
ATOM     16  O   UNL     1       1.859   6.347  20.374  0.00  0.00    +0.000 OA
BRANCH  16  17
ATOM     17  C   UNL     1       2.149   7.633  19.811  0.00  0.00    +0.000 C 
BRANCH  17  18
ATOM     18  C   UNL     1       1.206   8.674  20.362  0.00  0.00    +0.000 A 
ATOM     19  C   UNL     1       1.038   8.863  21.735  0.00  0.00    +0.000 A 
ATOM     20  C   UNL     1       0.173   9.849  22.225  0.00  0.00    +0.000 A 
ATOM     21  C   UNL     1      -0.573  10.665  21.359  0.00  0.00    +0.000 A 
ATOM     22  C   UNL     1      -0.429  10.428  19.977  0.00  0.00    +0.000 A 
ATOM     23  C   UNL     1       0.444   9.452  19.482  0.00  0.00    +0.000 A 
ATOM     24  C   UNL     1      -1.223  11.232  19.013  0.00  0.00    +0.000 A 
ATOM     25  O   UNL     1      -1.141  11.061  17.800  0.00  0.00    +0.000 OA
ATOM     26  C   UNL     1      -2.132  12.253  19.562  0.00  0.00    +0.000 A 
ATOM     27  C   UNL     1      -2.173  12.408  20.887  0.00  0.00    +0.000 A 
ATOM     28  N   UNL     1      -1.446  11.683  21.809  0.00  0.00    +0.000 N 
ATOM     29  C   UNL     1      -1.493  11.973  23.242  0.00  0.00    +0.000 C 
ENDBRANCH  17  18
ENDBRANCH  16  17
ENDBRANCH   6  16
TORSDOF 5
ENDMDL
MODEL 6
REMARK VINA RESULT:      -8.5      2.193      3.959
REMARK  Name = 
REMARK  7 active torsions:
REMARK  status: ('A' for Active; 'I' for Inactive)
REMARK    1  A    between atoms: C_1  and  O_2
REMARK    2  A    between atoms: O_2  and  C_3
REMARK    3  A    between atoms: C_3  and  C_4
REMARK    4  A    between atoms: C_9  and  O_10
REMARK    5  A    between atoms: O_10  and  C_11
REMARK    6  A    between atoms: C_11  and  C_12
REMARK    7  A    between atoms: N_22  and  C_23
REMARK                            x       y       z     vdW  Elec       q    Type
REMARK                         _______ _______ _______ _____ _____    ______ ____
ROOT
ATOM      1  C   UNL     1       3.900   3.988  18.265  0.00  0.00    +0.000 A 
ATOM      2  C   UNL     1       4.577   3.627  17.085  0.00  0.00    +0.000 A 
ATOM      3  C   UNL     1       5.022   4.589  16.183  0.00  0.00    +0.000 A 
ATOM      4  F   UNL     1       5.705   4.205  15.097  0.00  0.00    +0.000 F 
ATOM      5  C   UNL     1       4.801   5.935  16.402  0.00  0.00    +0.000 A 
ATOM      6  C   UNL     1       4.111   6.328  17.543  0.00  0.00    +0.000 A 
ATOM      7  C   UNL     1       3.619   5.361  18.432  0.00  0.00    +0.000 A 
ENDROOT
BRANCH   1   8
ATOM      8  C   UNL     1       3.483   2.922  19.309  0.00  0.00    +0.000 C 
ATOM      9  C   UNL     1       2.796   3.566  20.543  0.00  0.00    +0.000 C 
ATOM     10  C   UNL     1       1.430   4.130  20.169  0.00  0.00    +0.000 C 
ATOM     11  O   UNL     1       0.593   3.088  19.672  0.00  0.00    +0.000 OA
ATOM     12  C   UNL     1       1.113   2.492  18.484  0.00  0.00    +0.000 C 
ATOM     13  C   UNL     1       2.482   1.876  18.750  0.00  0.00    +0.000 C 
BRANCH   8  15
ATOM     14  C   UNL     1       4.863   1.729  20.949  0.00  0.00    +0.000 C 
ATOM     15  O   UNL     1       4.739   2.307  19.658  0.00  0.00    +0.000 OA
ENDBRANCH   8  15
ENDBRANCH   1   8
BRANCH   6  16
ATOM     16  O   UNL     1       3.880   7.631  17.890  0.00  0.00    +0.000 OA
BRANCH  16  17
ATOM     17  C   UNL     1       2.598   8.135  17.493  0.00  0.00    +0.000 C 
BRANCH  17  18
ATOM     18  C   UNL     1       1.838   8.646  18.692  0.00  0.00    +0.000 A 
ATOM     19  C   UNL     1       1.845   7.968  19.912  0.00  0.00    +0.000 A 
ATOM     20  C   UNL     1       1.150   8.471  21.018  0.00  0.00    +0.000 A 
ATOM     21  C   UNL     1       0.403   9.657  20.936  0.00  0.00    +0.000 A 
ATOM     22  C   UNL     1       0.365  10.303  19.685  0.00  0.00    +0.000 A 
ATOM     23  C   UNL     1       1.069   9.810  18.579  0.00  0.00    +0.000 A 
ATOM     24  C   UNL     1      -0.442  11.540  19.525  0.00  0.00    +0.000 A 
ATOM     25  O   UNL     1      -0.515  12.136  18.455  0.00  0.00    +0.000 OA
ATOM     26  C   UNL     1      -1.170  12.035  20.707  0.00  0.00    +0.000 A 
ATOM     27  C   UNL     1      -1.047  11.358  21.849  0.00  0.00    +0.000 A 
ATOM     28  N   UNL     1      -0.302  10.210  22.032  0.00  0.00    +0.000 N 
ATOM     29  C   UNL     1      -0.158   9.574  23.342  0.00  0.00    +0.000 C 
ENDBRANCH  17  18
ENDBRANCH  16  17
ENDBRANCH   6  16
TORSDOF 5
ENDMDL
MODEL 7
REMARK VINA RESULT:      -8.4      2.696      4.579
REMARK  Name = 
REMARK  7 active torsions:
REMARK  status: ('A' for Active; 'I' for Inactive)
REMARK    1  A    between atoms: C_1  and  O_2
REMARK    2  A    between atoms: O_2  and  C_3
REMARK    3  A    between atoms: C_3  and  C_4
REMARK    4  A    between atoms: C_9  and  O_10
REMARK    5  A    between atoms: O_10  and  C_11
REMARK    6  A    between atoms: C_11  and  C_12
REMARK    7  A    between atoms: N_22  and  C_23
REMARK                            x       y       z     vdW  Elec       q    Type
REMARK                         _______ _______ _______ _____ _____    ______ ____
ROOT
ATOM      1  C   UNL     1       3.297   4.789  18.818  0.00  0.00    +0.000 A 
ATOM      2  C   UNL     1       4.161   4.907  17.713  0.00  0.00    +0.000 A 
ATOM      3  C   UNL     1       4.334   6.123  17.057  0.00  0.00    +0.000 A 
ATOM      4  F   UNL     1       5.202   6.203  16.041  0.00  0.00    +0.000 F 
ATOM      5  C   UNL     1       3.651   7.257  17.454  0.00  0.00    +0.000 A 
ATOM      6  C   UNL     1       2.768   7.171  18.524  0.00  0.00    +0.000 A 
ATOM      7  C   UNL     1       2.553   5.938  19.160  0.00  0.00    +0.000 A 
ENDROOT
BRANCH   1   8
ATOM      8  C   UNL     1       3.173   3.457  19.600  0.00  0.00    +0.000 C 
ATOM      9  C   UNL     1       2.287   3.616  20.865  0.00  0.00    +0.000 C 
ATOM     10  C   UNL     1       0.829   3.843  20.481  0.00  0.00    +0.000 C 
ATOM     11  O   UNL     1       0.348   2.735  19.721  0.00  0.00    +0.000 OA
ATOM     12  C   UNL     1       1.058   2.567  18.495  0.00  0.00    +0.000 C 
ATOM     13  C   UNL     1       2.538   2.314  18.764  0.00  0.00    +0.000 C 
BRANCH   8  15
ATOM     14  C   UNL     1       4.856   1.825  20.322  0.00  0.00    +0.000 C 
ATOM     15  O   UNL     1       4.540   3.156  19.940  0.00  0.00    +0.000 OA
ENDBRANCH   8  15
ENDBRANCH   1   8
BRANCH   6  16
ATOM     16  O   UNL     1       2.078   8.235  19.038  0.00  0.00    +0.000 OA
BRANCH  16  17
ATOM     17  C   UNL     1       1.817   9.286  18.098  0.00  0.00    +0.000 C 
BRANCH  17  18
ATOM     18  C   UNL     1       0.515   9.975  18.426  0.00  0.00    +0.000 A 
ATOM     19  C   UNL     1       0.364  10.757  19.573  0.00  0.00    +0.000 A 
ATOM     20  C   UNL     1      -0.846  11.404  19.847  0.00  0.00    +0.000 A 
ATOM     21  C   UNL     1      -1.956  11.273  18.997  0.00  0.00    +0.000 A 
ATOM     22  C   UNL     1      -1.803  10.441  17.871  0.00  0.00    +0.000 A 
ATOM     23  C   UNL     1      -0.590   9.801  17.585  0.00  0.00    +0.000 A 
ATOM     24  C   UNL     1      -2.955  10.230  16.957  0.00  0.00    +0.000 A 
ATOM     25  O   UNL     1      -2.877   9.510  15.966  0.00  0.00    +0.000 OA
ATOM     26  C   UNL     1      -4.217  10.918  17.281  0.00  0.00    +0.000 A 
ATOM     27  C   UNL     1      -4.245  11.700  18.362  0.00  0.00    +0.000 A 
ATOM     28  N   UNL     1      -3.193  11.921  19.228  0.00  0.00    +0.000 N 
ATOM     29  C   UNL     1      -3.287  12.859  20.346  0.00  0.00    +0.000 C 
ENDBRANCH  17  18
ENDBRANCH  16  17
ENDBRANCH   6  16
TORSDOF 5
ENDMDL
MODEL 8
REMARK VINA RESULT:      -8.4      1.925      2.992
REMARK  Name = 
REMARK  7 active torsions:
REMARK  status: ('A' for Active; 'I' for Inactive)
REMARK    1  A    between atoms: C_1  and  O_2
REMARK    2  A    between atoms: O_2  and  C_3
REMARK    3  A    between atoms: C_3  and  C_4
REMARK    4  A    between atoms: C_9  and  O_10
REMARK    5  A    between atoms: O_10  and  C_11
REMARK    6  A    between atoms: C_11  and  C_12
REMARK    7  A    between atoms: N_22  and  C_23
REMARK                            x       y       z     vdW  Elec       q    Type
REMARK                         _______ _______ _______ _____ _____    ______ ____
ROOT
ATOM      1  C   UNL     1       4.967   5.176  17.940  0.00  0.00    +0.000 A 
ATOM      2  C   UNL     1       4.600   4.263  18.946  0.00  0.00    +0.000 A 
ATOM      3  C   UNL     1       3.346   4.315  19.548  0.00  0.00    +0.000 A 
ATOM      4  F   UNL     1       3.019   3.397  20.466  0.00  0.00    +0.000 F 
ATOM      5  C   UNL     1       2.419   5.277  19.193  0.00  0.00    +0.000 A 
ATOM      6  C   UNL     1       2.758   6.213  18.223  0.00  0.00    +0.000 A 
ATOM      7  C   UNL     1       4.037   6.195  17.646  0.00  0.00    +0.000 A 
ENDROOT
BRANCH   1   8
ATOM      8  C   UNL     1       6.330   5.060  17.211  0.00  0.00    +0.000 C 
ATOM      9  C   UNL     1       6.720   6.391  16.513  0.00  0.00    +0.000 C 
ATOM     10  C   UNL     1       7.051   7.466  17.543  0.00  0.00    +0.000 C 
ATOM     11  O   UNL     1       8.142   7.040  18.358  0.00  0.00    +0.000 OA
ATOM     12  C   UNL     1       7.837   5.861  19.102  0.00  0.00    +0.000 C 
ATOM     13  C   UNL     1       7.504   4.707  18.162  0.00  0.00    +0.000 C 
BRANCH   8  15
ATOM     14  C   UNL     1       5.854   4.370  14.906  0.00  0.00    +0.000 C 
ATOM     15  O   UNL     1       6.096   4.006  16.258  0.00  0.00    +0.000 OA
ENDBRANCH   8  15
ENDBRANCH   1   8
BRANCH   6  16
ATOM     16  O   UNL     1       1.906   7.176  17.755  0.00  0.00    +0.000 OA
BRANCH  16  17
ATOM     17  C   UNL     1       2.337   8.522  17.997  0.00  0.00    +0.000 C 
BRANCH  17  18
ATOM     18  C   UNL     1       1.422   9.198  18.988  0.00  0.00    +0.000 A 
ATOM     19  C   UNL     1       1.304   8.751  20.306  0.00  0.00    +0.000 A 
ATOM     20  C   UNL     1       0.465   9.406  21.215  0.00  0.00    +0.000 A 
ATOM     21  C   UNL     1      -0.305  10.516  20.832  0.00  0.00    +0.000 A 
ATOM     22  C   UNL     1      -0.212  10.924  19.487  0.00  0.00    +0.000 A 
ATOM     23  C   UNL     1       0.636  10.280  18.577  0.00  0.00    +0.000 A 
ATOM     24  C   UNL     1      -1.034  12.068  19.012  0.00  0.00    +0.000 A 
ATOM     25  O   UNL     1      -0.996  12.458  17.850  0.00  0.00    +0.000 OA
ATOM     26  C   UNL     1      -1.914  12.727  19.993  0.00  0.00    +0.000 A 
ATOM     27  C   UNL     1      -1.907  12.273  21.247  0.00  0.00    +0.000 A 
ATOM     28  N   UNL     1      -1.153  11.218  21.721  0.00  0.00    +0.000 N 
ATOM     29  C   UNL     1      -1.147  10.835  23.133  0.00  0.00    +0.000 C 
ENDBRANCH  17  18
ENDBRANCH  16  17
ENDBRANCH   6  16
TORSDOF 5
ENDMDL
MODEL 9
REMARK VINA RESULT:      -8.4      2.196      3.396
REMARK  Name = 
REMARK  7 active torsions:
REMARK  status: ('A' for Active; 'I' for Inactive)
REMARK    1  A    between atoms: C_1  and  O_2
REMARK    2  A    between atoms: O_2  and  C_3
REMARK    3  A    between atoms: C_3  and  C_4
REMARK    4  A    between atoms: C_9  and  O_10
REMARK    5  A    between atoms: O_10  and  C_11
REMARK    6  A    between atoms: C_11  and  C_12
REMARK    7  A    between atoms: N_22  and  C_23
REMARK                            x       y       z     vdW  Elec       q    Type
REMARK                         _______ _______ _______ _____ _____    ______ ____
ROOT
ATOM      1  C   UNL     1       4.919   5.277  18.001  0.00  0.00    +0.000 A 
ATOM      2  C   UNL     1       4.534   4.416  19.045  0.00  0.00    +0.000 A 
ATOM      3  C   UNL     1       3.288   4.531  19.656  0.00  0.00    +0.000 A 
ATOM      4  F   UNL     1       2.942   3.660  20.612  0.00  0.00    +0.000 F 
ATOM      5  C   UNL     1       2.389   5.508  19.273  0.00  0.00    +0.000 A 
ATOM      6  C   UNL     1       2.747   6.395  18.264  0.00  0.00    +0.000 A 
ATOM      7  C   UNL     1       4.018   6.313  17.677  0.00  0.00    +0.000 A 
ENDROOT
BRANCH   1   8
ATOM      8  C   UNL     1       6.270   5.090  17.265  0.00  0.00    +0.000 C 
ATOM      9  C   UNL     1       6.720   6.396  16.556  0.00  0.00    +0.000 C 
ATOM     10  C   UNL     1       7.110   7.460  17.575  0.00  0.00    +0.000 C 
ATOM     11  O   UNL     1       8.184   6.986  18.387  0.00  0.00    +0.000 OA
ATOM     12  C   UNL     1       7.827   5.829  19.141  0.00  0.00    +0.000 C 
ATOM     13  C   UNL     1       7.432   4.686  18.211  0.00  0.00    +0.000 C 
BRANCH   8  15
ATOM     14  C   UNL     1       6.323   4.256  14.959  0.00  0.00    +0.000 C 
ATOM     15  O   UNL     1       5.978   4.043  16.320  0.00  0.00    +0.000 OA
ENDBRANCH   8  15
ENDBRANCH   1   8
BRANCH   6  16
ATOM     16  O   UNL     1       1.921   7.366  17.767  0.00  0.00    +0.000 OA
BRANCH  16  17
ATOM     17  C   UNL     1       2.325   8.707  18.076  0.00  0.00    +0.000 C 
BRANCH  17  18
ATOM     18  C   UNL     1       1.139   9.522  18.531  0.00  0.00    +0.000 A 
ATOM     19  C   UNL     1       1.126  10.179  19.763  0.00  0.00    +0.000 A 
ATOM     20  C   UNL     1       0.025  10.947  20.157  0.00  0.00    +0.000 A 
ATOM     21  C   UNL     1      -1.114  11.066  19.343  0.00  0.00    +0.000 A 
ATOM     22  C   UNL     1      -1.105  10.358  18.125  0.00  0.00    +0.000 A 
ATOM     23  C   UNL     1       0.000   9.598  17.722  0.00  0.00    +0.000 A 
ATOM     24  C   UNL     1      -2.297  10.411  17.241  0.00  0.00    +0.000 A 
ATOM     25  O   UNL     1      -2.344   9.807  16.174  0.00  0.00    +0.000 OA
ATOM     26  C   UNL     1      -3.443  11.221  17.691  0.00  0.00    +0.000 A 
ATOM     27  C   UNL     1      -3.336  11.869  18.852  0.00  0.00    +0.000 A 
ATOM     28  N   UNL     1      -2.242  11.844  19.694  0.00  0.00    +0.000 N 
ATOM     29  C   UNL     1      -2.178  12.650  20.913  0.00  0.00    +0.000 C 
ENDBRANCH  17  18
ENDBRANCH  16  17
ENDBRANCH   6  16
TORSDOF 5
ENDMDL
