MODEL 1
REMARK VINA RESULT:      -7.9      0.000      0.000
REMARK  Name = 
REMARK  4 active torsions:
REMARK  status: ('A' for Active; 'I' for Inactive)
REMARK    1  A    between atoms: N_6  and  C_7
REMARK    2  A    between atoms: C_7  and  N_8
REMARK    3  A    between atoms: N_8  and  C_17
REMARK    4  A    between atoms: C_9  and  C_11
REMARK                            x       y       z     vdW  Elec       q    Type
REMARK                         _______ _______ _______ _____ _____    ______ ____
ROOT
ATOM      1  N   UNL     1       4.576   4.265  17.947  0.00  0.00    +0.000 N 
ATOM      2  C   UNL     1       3.776   3.107  18.117  0.00  0.00    +0.000 C 
ATOM      3  O   UNL     1       3.818   2.133  17.357  0.00  0.00    +0.000 OA
ENDROOT
BRANCH   1   4
ATOM      4  C   UNL     1       5.423   4.410  16.766  0.00  0.00    +0.000 A 
ATOM      5  C   UNL     1       6.797   4.705  16.863  0.00  0.00    +0.000 A 
ATOM      6  C   UNL     1       7.592   4.929  15.733  0.00  0.00    +0.000 A 
ATOM      7  C   UNL     1       7.029   4.839  14.472  0.00  0.00    +0.000 A 
ATOM      8  F   UNL     1       7.777   5.085  13.388  0.00  0.00    +0.000 F 
ATOM      9  C   UNL     1       5.697   4.492  14.327  0.00  0.00    +0.000 A 
ATOM     10  C   UNL     1       4.907   4.259  15.462  0.00  0.00    +0.000 A 
ENDBRANCH   1   4
BRANCH   2  11
ATOM     11  C   UNL     1       2.822   2.910  19.254  0.00  0.00    +0.000 A 
ATOM     12  C   UNL     1       3.394   2.629  20.514  0.00  0.00    +0.000 A 
ATOM     13  C   UNL     1       2.611   2.603  21.672  0.00  0.00    +0.000 A 
ATOM     14  C   UNL     1       1.239   2.824  21.586  0.00  0.00    +0.000 A 
ATOM     15  C   UNL     1       0.660   3.087  20.351  0.00  0.00    +0.000 A 
ATOM     16  C   UNL     1       1.450   3.154  19.206  0.00  0.00    +0.000 A 
ENDBRANCH   2  11
BRANCH   1  17
ATOM     17  C   UNL     1       4.570   5.371  18.904  0.00  0.00    +0.000 C 
BRANCH  17  23
ATOM     18  O   UNL     1       2.249   6.205  20.414  0.00  0.00    +0.000 OA
ATOM     19  C   UNL     1       2.553   6.746  19.366  0.00  0.00    +0.000 C 
ATOM     20  C   UNL     1       1.744   7.795  18.646  0.00  0.00    +0.000 C 
ATOM     21  C   UNL     1       2.778   8.449  17.739  0.00  0.00    +0.000 C 
ATOM     22  C   UNL     1       3.765   7.333  17.435  0.00  0.00    +0.000 C 
ATOM     23  N   UNL     1       3.673   6.475  18.596  0.00  0.00    +0.000 N 
ENDBRANCH  17  23
ENDBRANCH   1  17
TORSDOF 4
ENDMDL
MODEL 2
REMARK VINA RESULT:      -7.7      0.131      1.008
REMARK  Name = 
REMARK  4 active torsions:
REMARK  status: ('A' for Active; 'I' for Inactive)
REMARK    1  A    between atoms: N_6  and  C_7
REMARK    2  A    between atoms: C_7  and  N_8
REMARK    3  A    between atoms: N_8  and  C_17
REMARK    4  A    between atoms: C_9  and  C_11
REMARK                            x       y       z     vdW  Elec       q    Type
REMARK                         _______ _______ _______ _____ _____    ______ ____
ROOT
ATOM      1  N   UNL     1       4.510   4.378  17.948  0.00  0.00    +0.000 N 
ATOM      2  C   UNL     1       3.742   3.197  18.108  0.00  0.00    +0.000 C 
ATOM      3  O   UNL     1       3.800   2.237  17.332  0.00  0.00    +0.000 OA
ENDROOT
BRANCH   1   4
ATOM      4  C   UNL     1       5.340   4.563  16.761  0.00  0.00    +0.000 A 
ATOM      5  C   UNL     1       4.809   4.486  15.458  0.00  0.00    +0.000 A 
ATOM      6  C   UNL     1       5.618   4.577  14.319  0.00  0.00    +0.000 A 
ATOM      7  C   UNL     1       6.981   4.771  14.461  0.00  0.00    +0.000 A 
ATOM      8  F   UNL     1       7.763   4.826  13.375  0.00  0.00    +0.000 F 
ATOM      9  C   UNL     1       7.537   4.913  15.720  0.00  0.00    +0.000 A 
ATOM     10  C   UNL     1       6.722   4.831  16.858  0.00  0.00    +0.000 A 
ENDBRANCH   1   4
BRANCH   2  11
ATOM     11  C   UNL     1       2.806   2.958  19.252  0.00  0.00    +0.000 A 
ATOM     12  C   UNL     1       3.398   2.628  20.491  0.00  0.00    +0.000 A 
ATOM     13  C   UNL     1       2.634   2.557  21.659  0.00  0.00    +0.000 A 
ATOM     14  C   UNL     1       1.261   2.783  21.605  0.00  0.00    +0.000 A 
ATOM     15  C   UNL     1       0.663   3.094  20.391  0.00  0.00    +0.000 A 
ATOM     16  C   UNL     1       1.434   3.205  19.236  0.00  0.00    +0.000 A 
ENDBRANCH   2  11
BRANCH   1  17
ATOM     17  C   UNL     1       4.487   5.468  18.924  0.00  0.00    +0.000 C 
BRANCH  17  23
ATOM     18  O   UNL     1       2.187   6.290  20.473  0.00  0.00    +0.000 OA
ATOM     19  C   UNL     1       2.470   6.832  19.419  0.00  0.00    +0.000 C 
ATOM     20  C   UNL     1       1.643   7.874  18.713  0.00  0.00    +0.000 C 
ATOM     21  C   UNL     1       2.656   8.533  17.786  0.00  0.00    +0.000 C 
ATOM     22  C   UNL     1       3.644   7.423  17.466  0.00  0.00    +0.000 C 
ATOM     23  N   UNL     1       3.578   6.566  18.630  0.00  0.00    +0.000 N 
ENDBRANCH  17  23
ENDBRANCH   1  17
TORSDOF 4
ENDMDL
MODEL 3
REMARK VINA RESULT:      -7.6      0.225      1.025
REMARK  Name = 
REMARK  4 active torsions:
REMARK  status: ('A' for Active; 'I' for Inactive)
REMARK    1  A    between atoms: N_6  and  C_7
REMARK    2  A    between atoms: C_7  and  N_8
REMARK    3  A    between atoms: N_8  and  C_17
REMARK    4  A    between atoms: C_9  and  C_11
REMARK                            x       y       z     vdW  Elec       q    Type
REMARK                         _______ _______ _______ _____ _____    ______ ____
ROOT
ATOM      1  N   UNL     1       4.671   4.431  17.892  0.00  0.00    +0.000 N 
ATOM      2  C   UNL     1       3.887   3.288  18.192  0.00  0.00    +0.000 C 
ATOM      3  O   UNL     1       3.885   2.263  17.501  0.00  0.00    +0.000 OA
ENDROOT
BRANCH   1   4
ATOM      4  C   UNL     1       5.441   4.492  16.653  0.00  0.00    +0.000 A 
ATOM      5  C   UNL     1       6.816   4.798  16.642  0.00  0.00    +0.000 A 
ATOM      6  C   UNL     1       7.536   4.942  15.450  0.00  0.00    +0.000 A 
ATOM      7  C   UNL     1       6.896   4.758  14.237  0.00  0.00    +0.000 A 
ATOM      8  F   UNL     1       7.573   4.927  13.094  0.00  0.00    +0.000 F 
ATOM      9  C   UNL     1       5.561   4.397  14.202  0.00  0.00    +0.000 A 
ATOM     10  C   UNL     1       4.846   4.244  15.398  0.00  0.00    +0.000 A 
ENDBRANCH   1   4
BRANCH   2  11
ATOM     11  C   UNL     1       3.008   3.172  19.399  0.00  0.00    +0.000 A 
ATOM     12  C   UNL     1       1.622   3.336  19.186  0.00  0.00    +0.000 A 
ATOM     13  C   UNL     1       0.700   3.075  20.203  0.00  0.00    +0.000 A 
ATOM     14  C   UNL     1       1.147   2.676  21.460  0.00  0.00    +0.000 A 
ATOM     15  C   UNL     1       2.509   2.524  21.688  0.00  0.00    +0.000 A 
ATOM     16  C   UNL     1       3.423   2.745  20.660  0.00  0.00    +0.000 A 
ENDBRANCH   2  11
BRANCH   1  17
ATOM     17  C   UNL     1       4.721   5.601  18.768  0.00  0.00    +0.000 C 
BRANCH  17  23
ATOM     18  O   UNL     1       2.443   6.324  20.397  0.00  0.00    +0.000 OA
ATOM     19  C   UNL     1       2.654   6.863  19.324  0.00  0.00    +0.000 C 
ATOM     20  C   UNL     1       1.745   7.848  18.636  0.00  0.00    +0.000 C 
ATOM     21  C   UNL     1       2.684   8.544  17.660  0.00  0.00    +0.000 C 
ATOM     22  C   UNL     1       3.717   7.483  17.317  0.00  0.00    +0.000 C 
ATOM     23  N   UNL     1       3.743   6.644  18.495  0.00  0.00    +0.000 N 
ENDBRANCH  17  23
ENDBRANCH   1  17
TORSDOF 4
ENDMDL
MODEL 4
REMARK VINA RESULT:      -7.6      3.069      6.401
REMARK  Name = 
REMARK  4 active torsions:
REMARK  status: ('A' for Active; 'I' for Inactive)
REMARK    1  A    between atoms: N_6  and  C_7
REMARK    2  A    between atoms: C_7  and  N_8
REMARK    3  A    between atoms: N_8  and  C_17
REMARK    4  A    between atoms: C_9  and  C_11
REMARK                            x       y       z     vdW  Elec       q    Type
REMARK                         _______ _______ _______ _____ _____    ______ ____
ROOT
ATOM      1  N   UNL     1       3.344   6.594  18.773  0.00  0.00    +0.000 N 
ATOM      2  C   UNL     1       4.153   6.741  17.617  0.00  0.00    +0.000 C 
ATOM      3  O   UNL     1       4.133   7.744  16.895  0.00  0.00    +0.000 OA
ENDROOT
BRANCH   1   4
ATOM      4  C   UNL     1       2.339   7.601  19.102  0.00  0.00    +0.000 A 
ATOM      5  C   UNL     1       1.853   8.514  18.145  0.00  0.00    +0.000 A 
ATOM      6  C   UNL     1       0.955   9.534  18.480  0.00  0.00    +0.000 A 
ATOM      7  C   UNL     1       0.504   9.649  19.783  0.00  0.00    +0.000 A 
ATOM      8  F   UNL     1      -0.330  10.644  20.114  0.00  0.00    +0.000 F 
ATOM      9  C   UNL     1       0.908   8.738  20.743  0.00  0.00    +0.000 A 
ATOM     10  C   UNL     1       1.800   7.711  20.401  0.00  0.00    +0.000 A 
ENDBRANCH   1   4
BRANCH   2  11
ATOM     11  C   UNL     1       5.152   5.723  17.162  0.00  0.00    +0.000 A 
ATOM     12  C   UNL     1       4.813   4.979  16.012  0.00  0.00    +0.000 A 
ATOM     13  C   UNL     1       5.742   4.132  15.401  0.00  0.00    +0.000 A 
ATOM     14  C   UNL     1       7.015   3.989  15.947  0.00  0.00    +0.000 A 
ATOM     15  C   UNL     1       7.358   4.704  17.087  0.00  0.00    +0.000 A 
ATOM     16  C   UNL     1       6.443   5.579  17.669  0.00  0.00    +0.000 A 
ENDBRANCH   2  11
BRANCH   1  17
ATOM     17  C   UNL     1       3.444   5.435  19.659  0.00  0.00    +0.000 C 
BRANCH  17  23
ATOM     18  O   UNL     1       4.980   2.985  19.671  0.00  0.00    +0.000 OA
ATOM     19  C   UNL     1       3.908   3.059  19.096  0.00  0.00    +0.000 C 
ATOM     20  C   UNL     1       3.294   1.991  18.230  0.00  0.00    +0.000 C 
ATOM     21  C   UNL     1       1.823   2.384  18.207  0.00  0.00    +0.000 C 
ATOM     22  C   UNL     1       1.840   3.898  18.346  0.00  0.00    +0.000 C 
ATOM     23  N   UNL     1       3.060   4.155  19.079  0.00  0.00    +0.000 N 
ENDBRANCH  17  23
ENDBRANCH   1  17
TORSDOF 4
ENDMDL
MODEL 5
REMARK VINA RESULT:      -7.5      0.949      1.258
REMARK  Name = 
REMARK  4 active torsions:
REMARK  status: ('A' for Active; 'I' for Inactive)
REMARK    1  A    between atoms: N_6  and  C_7
REMARK    2  A    between atoms: C_7  and  N_8
REMARK    3  A    between atoms: N_8  and  C_17
REMARK    4  A    between atoms: C_9  and  C_11
REMARK                            x       y       z     vdW  Elec       q    Type
REMARK                         _______ _______ _______ _____ _____    ______ ____
ROOT
ATOM      1  N   UNL     1       4.600   4.236  17.860  0.00  0.00    +0.000 N 
ATOM      2  C   UNL     1       3.771   3.101  18.051  0.00  0.00    +0.000 C 
ATOM      3  O   UNL     1       3.763   2.128  17.290  0.00  0.00    +0.000 OA
ENDROOT
BRANCH   1   4
ATOM      4  C   UNL     1       5.418   4.357  16.656  0.00  0.00    +0.000 A 
ATOM      5  C   UNL     1       6.788   4.681  16.712  0.00  0.00    +0.000 A 
ATOM      6  C   UNL     1       7.552   4.883  15.557  0.00  0.00    +0.000 A 
ATOM      7  C   UNL     1       6.963   4.740  14.312  0.00  0.00    +0.000 A 
ATOM      8  F   UNL     1       7.682   4.964  13.205  0.00  0.00    +0.000 F 
ATOM      9  C   UNL     1       5.636   4.363  14.209  0.00  0.00    +0.000 A 
ATOM     10  C   UNL     1       4.876   4.153  15.369  0.00  0.00    +0.000 A 
ENDBRANCH   1   4
BRANCH   2  11
ATOM     11  C   UNL     1       2.844   2.931  19.214  0.00  0.00    +0.000 A 
ATOM     12  C   UNL     1       3.436   2.567  20.443  0.00  0.00    +0.000 A 
ATOM     13  C   UNL     1       2.692   2.554  21.626  0.00  0.00    +0.000 A 
ATOM     14  C   UNL     1       1.336   2.873  21.597  0.00  0.00    +0.000 A 
ATOM     15  C   UNL     1       0.738   3.219  20.393  0.00  0.00    +0.000 A 
ATOM     16  C   UNL     1       1.491   3.272  19.223  0.00  0.00    +0.000 A 
ENDBRANCH   2  11
BRANCH   1  17
ATOM     17  C   UNL     1       4.653   5.340  18.817  0.00  0.00    +0.000 C 
BRANCH  17  23
ATOM     18  O   UNL     1       4.525   7.304  16.699  0.00  0.00    +0.000 OA
ATOM     19  C   UNL     1       3.724   7.307  17.617  0.00  0.00    +0.000 C 
ATOM     20  C   UNL     1       2.670   8.354  17.866  0.00  0.00    +0.000 C 
ATOM     21  C   UNL     1       1.686   7.628  18.774  0.00  0.00    +0.000 C 
ATOM     22  C   UNL     1       2.550   6.644  19.547  0.00  0.00    +0.000 C 
ATOM     23  N   UNL     1       3.650   6.381  18.645  0.00  0.00    +0.000 N 
ENDBRANCH  17  23
ENDBRANCH   1  17
TORSDOF 4
ENDMDL
MODEL 6
REMARK VINA RESULT:      -7.5      0.996      1.634
REMARK  Name = 
REMARK  4 active torsions:
REMARK  status: ('A' for Active; 'I' for Inactive)
REMARK    1  A    between atoms: N_6  and  C_7
REMARK    2  A    between atoms: C_7  and  N_8
REMARK    3  A    between atoms: N_8  and  C_17
REMARK    4  A    between atoms: C_9  and  C_11
REMARK                            x       y       z     vdW  Elec       q    Type
REMARK                         _______ _______ _______ _____ _____    ______ ____
ROOT
ATOM      1  N   UNL     1       4.706   4.379  17.859  0.00  0.00    +0.000 N 
ATOM      2  C   UNL     1       3.906   3.254  18.179  0.00  0.00    +0.000 C 
ATOM      3  O   UNL     1       3.869   2.227  17.491  0.00  0.00    +0.000 OA
ENDROOT
BRANCH   1   4
ATOM      4  C   UNL     1       5.453   4.421  16.605  0.00  0.00    +0.000 A 
ATOM      5  C   UNL     1       6.823   4.748  16.560  0.00  0.00    +0.000 A 
ATOM      6  C   UNL     1       7.518   4.873  15.352  0.00  0.00    +0.000 A 
ATOM      7  C   UNL     1       6.859   4.650  14.156  0.00  0.00    +0.000 A 
ATOM      8  F   UNL     1       7.512   4.801  12.997  0.00  0.00    +0.000 F 
ATOM      9  C   UNL     1       5.529   4.269  14.155  0.00  0.00    +0.000 A 
ATOM     10  C   UNL     1       4.838   4.134  15.368  0.00  0.00    +0.000 A 
ENDBRANCH   1   4
BRANCH   2  11
ATOM     11  C   UNL     1       3.049   3.159  19.403  0.00  0.00    +0.000 A 
ATOM     12  C   UNL     1       1.672   3.419  19.230  0.00  0.00    +0.000 A 
ATOM     13  C   UNL     1       0.758   3.188  20.262  0.00  0.00    +0.000 A 
ATOM     14  C   UNL     1       1.208   2.723  21.495  0.00  0.00    +0.000 A 
ATOM     15  C   UNL     1       2.562   2.476  21.684  0.00  0.00    +0.000 A 
ATOM     16  C   UNL     1       3.464   2.668  20.641  0.00  0.00    +0.000 A 
ENDBRANCH   2  11
BRANCH   1  17
ATOM     17  C   UNL     1       4.798   5.550  18.731  0.00  0.00    +0.000 C 
BRANCH  17  23
ATOM     18  O   UNL     1       4.443   7.411  16.546  0.00  0.00    +0.000 OA
ATOM     19  C   UNL     1       3.704   7.421  17.515  0.00  0.00    +0.000 C 
ATOM     20  C   UNL     1       2.621   8.431  17.791  0.00  0.00    +0.000 C 
ATOM     21  C   UNL     1       1.733   7.705  18.792  0.00  0.00    +0.000 C 
ATOM     22  C   UNL     1       2.690   6.794  19.545  0.00  0.00    +0.000 C 
ATOM     23  N   UNL     1       3.740   6.539  18.584  0.00  0.00    +0.000 N 
ENDBRANCH  17  23
ENDBRANCH   1  17
TORSDOF 4
ENDMDL
MODEL 7
REMARK VINA RESULT:      -7.5      1.792      4.399
REMARK  Name = 
REMARK  4 active torsions:
REMARK  status: ('A' for Active; 'I' for Inactive)
REMARK    1  A    between atoms: N_6  and  C_7
REMARK    2  A    between atoms: C_7  and  N_8
REMARK    3  A    between atoms: N_8  and  C_17
REMARK    4  A    between atoms: C_9  and  C_11
REMARK                            x       y       z     vdW  Elec       q    Type
REMARK                         _______ _______ _______ _____ _____    ______ ____
ROOT
ATOM      1  N   UNL     1       3.771   6.318  18.421  0.00  0.00    +0.000 N 
ATOM      2  C   UNL     1       3.065   7.516  18.145  0.00  0.00    +0.000 C 
ATOM      3  O   UNL     1       3.135   8.115  17.066  0.00  0.00    +0.000 OA
ENDROOT
BRANCH   1   4
ATOM      4  C   UNL     1       4.731   5.789  17.456  0.00  0.00    +0.000 A 
ATOM      5  C   UNL     1       6.074   6.214  17.427  0.00  0.00    +0.000 A 
ATOM      6  C   UNL     1       6.973   5.773  16.449  0.00  0.00    +0.000 A 
ATOM      7  C   UNL     1       6.549   4.874  15.485  0.00  0.00    +0.000 A 
ATOM      8  F   UNL     1       7.397   4.475  14.528  0.00  0.00    +0.000 F 
ATOM      9  C   UNL     1       5.256   4.384  15.510  0.00  0.00    +0.000 A 
ATOM     10  C   UNL     1       4.361   4.821  16.499  0.00  0.00    +0.000 A 
ENDBRANCH   1   4
BRANCH   2  11
ATOM     11  C   UNL     1       2.122   8.170  19.107  0.00  0.00    +0.000 A 
ATOM     12  C   UNL     1       1.380   9.265  18.615  0.00  0.00    +0.000 A 
ATOM     13  C   UNL     1       0.349   9.835  19.367  0.00  0.00    +0.000 A 
ATOM     14  C   UNL     1       0.063   9.341  20.638  0.00  0.00    +0.000 A 
ATOM     15  C   UNL     1       0.795   8.273  21.141  0.00  0.00    +0.000 A 
ATOM     16  C   UNL     1       1.793   7.681  20.371  0.00  0.00    +0.000 A 
ENDBRANCH   2  11
BRANCH   1  17
ATOM     17  C   UNL     1       3.609   5.582  19.674  0.00  0.00    +0.000 C 
BRANCH  17  23
ATOM     18  O   UNL     1       4.795   2.946  19.777  0.00  0.00    +0.000 OA
ATOM     19  C   UNL     1       3.602   3.099  19.581  0.00  0.00    +0.000 C 
ATOM     20  C   UNL     1       2.615   2.010  19.246  0.00  0.00    +0.000 C 
ATOM     21  C   UNL     1       1.280   2.647  19.608  0.00  0.00    +0.000 C 
ATOM     22  C   UNL     1       1.497   4.132  19.364  0.00  0.00    +0.000 C 
ATOM     23  N   UNL     1       2.917   4.304  19.577  0.00  0.00    +0.000 N 
ENDBRANCH  17  23
ENDBRANCH   1  17
TORSDOF 4
ENDMDL
MODEL 8
REMARK VINA RESULT:      -7.4      2.941      6.418
REMARK  Name = 
REMARK  4 active torsions:
REMARK  status: ('A' for Active; 'I' for Inactive)
REMARK    1  A    between atoms: N_6  and  C_7
REMARK    2  A    between atoms: C_7  and  N_8
REMARK    3  A    between atoms: N_8  and  C_17
REMARK    4  A    between atoms: C_9  and  C_11
REMARK                            x       y       z     vdW  Elec       q    Type
REMARK                         _______ _______ _______ _____ _____    ______ ____
ROOT
ATOM      1  N   UNL     1       3.186   6.337  17.997  0.00  0.00    +0.000 N 
ATOM      2  C   UNL     1       4.474   6.668  17.503  0.00  0.00    +0.000 C 
ATOM      3  O   UNL     1       5.010   7.766  17.683  0.00  0.00    +0.000 OA
ENDROOT
BRANCH   1   4
ATOM      4  C   UNL     1       2.368   7.350  18.658  0.00  0.00    +0.000 A 
ATOM      5  C   UNL     1       1.791   8.423  17.951  0.00  0.00    +0.000 A 
ATOM      6  C   UNL     1       1.079   9.442  18.596  0.00  0.00    +0.000 A 
ATOM      7  C   UNL     1       0.908   9.394  19.968  0.00  0.00    +0.000 A 
ATOM      8  F   UNL     1       0.256  10.383  20.593  0.00  0.00    +0.000 F 
ATOM      9  C   UNL     1       1.405   8.328  20.695  0.00  0.00    +0.000 A 
ATOM     10  C   UNL     1       2.110   7.304  20.044  0.00  0.00    +0.000 A 
ENDBRANCH   1   4
BRANCH   2  11
ATOM     11  C   UNL     1       5.348   5.716  16.747  0.00  0.00    +0.000 A 
ATOM     12  C   UNL     1       5.065   5.558  15.373  0.00  0.00    +0.000 A 
ATOM     13  C   UNL     1       5.922   4.834  14.539  0.00  0.00    +0.000 A 
ATOM     14  C   UNL     1       7.059   4.230  15.069  0.00  0.00    +0.000 A 
ATOM     15  C   UNL     1       7.342   4.366  16.422  0.00  0.00    +0.000 A 
ATOM     16  C   UNL     1       6.509   5.122  17.242  0.00  0.00    +0.000 A 
ENDBRANCH   2  11
BRANCH   1  17
ATOM     17  C   UNL     1       2.605   5.004  17.844  0.00  0.00    +0.000 C 
BRANCH  17  23
ATOM     18  O   UNL     1       4.591   3.773  19.548  0.00  0.00    +0.000 OA
ATOM     19  C   UNL     1       3.400   3.669  19.783  0.00  0.00    +0.000 C 
ATOM     20  C   UNL     1       2.783   2.818  20.863  0.00  0.00    +0.000 C 
ATOM     21  C   UNL     1       1.402   3.437  21.028  0.00  0.00    +0.000 C 
ATOM     22  C   UNL     1       1.070   3.980  19.647  0.00  0.00    +0.000 C 
ATOM     23  N   UNL     1       2.368   4.267  19.077  0.00  0.00    +0.000 N 
ENDBRANCH  17  23
ENDBRANCH   1  17
TORSDOF 4
ENDMDL
MODEL 9
REMARK VINA RESULT:      -7.4      3.124      6.392
REMARK  Name = 
REMARK  4 active torsions:
REMARK  status: ('A' for Active; 'I' for Inactive)
REMARK    1  A    between atoms: N_6  and  C_7
REMARK    2  A    between atoms: C_7  and  N_8
REMARK    3  A    between atoms: N_8  and  C_17
REMARK    4  A    between atoms: C_9  and  C_11
REMARK                            x       y       z     vdW  Elec       q    Type
REMARK                         _______ _______ _______ _____ _____    ______ ____
ROOT
ATOM      1  N   UNL     1       3.318   6.823  18.657  0.00  0.00    +0.000 N 
ATOM      2  C   UNL     1       4.047   7.034  17.459  0.00  0.00    +0.000 C 
ATOM      3  O   UNL     1       3.917   8.039  16.751  0.00  0.00    +0.000 OA
ENDROOT
BRANCH   1   4
ATOM      4  C   UNL     1       2.267   7.755  19.054  0.00  0.00    +0.000 A 
ATOM      5  C   UNL     1       1.712   8.685  18.153  0.00  0.00    +0.000 A 
ATOM      6  C   UNL     1       0.767   9.637  18.554  0.00  0.00    +0.000 A 
ATOM      7  C   UNL     1       0.338   9.664  19.870  0.00  0.00    +0.000 A 
ATOM      8  F   UNL     1      -0.541  10.593  20.266  0.00  0.00    +0.000 F 
ATOM      9  C   UNL     1       0.812   8.732  20.775  0.00  0.00    +0.000 A 
ATOM     10  C   UNL     1       1.751   7.773  20.367  0.00  0.00    +0.000 A 
ENDBRANCH   1   4
BRANCH   2  11
ATOM     11  C   UNL     1       5.086   6.090  16.936  0.00  0.00    +0.000 A 
ATOM     12  C   UNL     1       6.340   6.113  17.584  0.00  0.00    +0.000 A 
ATOM     13  C   UNL     1       7.318   5.157  17.295  0.00  0.00    +0.000 A 
ATOM     14  C   UNL     1       7.072   4.182  16.331  0.00  0.00    +0.000 A 
ATOM     15  C   UNL     1       5.848   4.157  15.676  0.00  0.00    +0.000 A 
ATOM     16  C   UNL     1       4.860   5.085  15.996  0.00  0.00    +0.000 A 
ENDBRANCH   2  11
BRANCH   1  17
ATOM     17  C   UNL     1       3.547   5.666  19.522  0.00  0.00    +0.000 C 
BRANCH  17  23
ATOM     18  O   UNL     1       5.099   3.226  19.482  0.00  0.00    +0.000 OA
ATOM     19  C   UNL     1       3.996   3.286  18.967  0.00  0.00    +0.000 C 
ATOM     20  C   UNL     1       3.342   2.202  18.151  0.00  0.00    +0.000 C 
ATOM     21  C   UNL     1       1.869   2.585  18.204  0.00  0.00    +0.000 C 
ATOM     22  C   UNL     1       1.884   4.102  18.321  0.00  0.00    +0.000 C 
ATOM     23  N   UNL     1       3.141   4.376  18.982  0.00  0.00    +0.000 N 
ENDBRANCH  17  23
ENDBRANCH   1  17
TORSDOF 4
ENDMDL
