MODEL 1
REMARK VINA RESULT:      -8.1      0.000      0.000
REMARK  Name = 
REMARK  12 active torsions:
REMARK  status: ('A' for Active; 'I' for Inactive)
REMARK    1  A    between atoms: C_1  and  C_2
REMARK    2  A    between atoms: C_2  and  O_3
REMARK    3  A    between atoms: C_2  and  C_23
REMARK    4  A    between atoms: O_3  and  C_4
REMARK    5  A    between atoms: C_4  and  C_6
REMARK    6  A    between atoms: C_11  and  N_12
REMARK    7  A    between atoms: N_12  and  S_13
REMARK    8  A    between atoms: S_13  and  C_16
REMARK    9  A    between atoms: C_20  and  N_21
REMARK   10  A    between atoms: N_25  and  C_26
REMARK   11  A    between atoms: N_25  and  C_27
REMARK   12  A    between atoms: C_27  and  C_28
REMARK                            x       y       z     vdW  Elec       q    Type
REMARK                         _______ _______ _______ _____ _____    ______ ____
ROOT
ATOM      1  C   UNL     1      -2.060  10.944  18.295  0.00  0.00    +0.000 A 
ATOM      2  C   UNL     1      -1.717  10.151  17.178  0.00  0.00    +0.000 A 
ATOM      3  C   UNL     1      -2.576  10.060  16.082  0.00  0.00    +0.000 A 
ATOM      4  C   UNL     1      -3.798  10.723  16.101  0.00  0.00    +0.000 A 
ATOM      5  C   UNL     1      -4.148  11.497  17.208  0.00  0.00    +0.000 A 
ATOM      6  C   UNL     1      -3.272  11.646  18.293  0.00  0.00    +0.000 A 
ENDROOT
BRANCH   1   7
ATOM      7  C   UNL     1      -1.141  10.887  19.455  0.00  0.00    +0.000 C 
ATOM      8  O   UNL     1      -0.993  11.761  20.282  0.00  0.00    +0.000 OA
BRANCH   7   9
ATOM      9  O   UNL     1      -0.375   9.782  19.278  0.00  0.00    +0.000 OA
BRANCH   9  11
ATOM     10  C   UNL     1       1.497  11.324  18.730  0.00  0.00    +0.000 C 
ATOM     11  C   UNL     1       1.055   9.924  19.151  0.00  0.00    +0.000 C 
BRANCH  11  12
ATOM     12  C   UNL     1       1.814   8.815  18.350  0.00  0.00    +0.000 C 
ATOM     13  O   UNL     1       2.117   8.975  17.167  0.00  0.00    +0.000 OA
ATOM     14  N   UNL     1       2.120   7.614  18.992  0.00  0.00    +0.000 N 
ATOM     15  C   UNL     1       1.876   7.330  20.398  0.00  0.00    +0.000 C 
BRANCH  14  16
ATOM     16  C   UNL     1       2.593   6.498  18.165  0.00  0.00    +0.000 C 
BRANCH  16  17
ATOM     17  C   UNL     1       4.095   6.295  18.221  0.00  0.00    +0.000 A 
ATOM     18  C   UNL     1       4.670   5.456  19.187  0.00  0.00    +0.000 A 
ATOM     19  C   UNL     1       6.052   5.242  19.213  0.00  0.00    +0.000 A 
ATOM     20  C   UNL     1       6.877   5.869  18.282  0.00  0.00    +0.000 A 
ATOM     21  C   UNL     1       6.318   6.708  17.319  0.00  0.00    +0.000 A 
ATOM     22  C   UNL     1       4.938   6.923  17.291  0.00  0.00    +0.000 A 
ENDBRANCH  16  17
ENDBRANCH  14  16
ENDBRANCH  11  12
ENDBRANCH   9  11
ENDBRANCH   7   9
ENDBRANCH   1   7
BRANCH   6  23
ATOM     23  N   UNL     1      -3.594  12.647  19.268  0.00  0.00    +0.000 N 
ATOM     24  H   UNL     1      -3.278  13.599  19.089  0.00  0.00    +0.000 HD
BRANCH  23  25
ATOM     25  S   UNL     1      -5.198  12.649  19.856  0.00  0.00    +0.000 S 
ATOM     26  O   UNL     1      -5.797  13.877  19.380  0.00  0.00    +0.000 OA
ATOM     27  O   UNL     1      -5.802  11.360  19.592  0.00  0.00    +0.000 OA
BRANCH  25  28
ATOM     28  C   UNL     1      -4.959  12.819  21.612  0.00  0.00    +0.000 A 
ATOM     29  C   UNL     1      -3.703  12.553  22.160  0.00  0.00    +0.000 A 
ATOM     30  C   UNL     1      -3.555  12.555  23.545  0.00  0.00    +0.000 A 
ATOM     31  C   UNL     1      -4.660  12.801  24.367  0.00  0.00    +0.000 A 
ATOM     32  C   UNL     1      -5.921  13.060  23.821  0.00  0.00    +0.000 A 
ATOM     33  C   UNL     1      -6.044  13.153  22.434  0.00  0.00    +0.000 A 
BRANCH  32  34
ATOM     34  N   UNL     1      -6.989  13.409  24.651  0.00  0.00    +0.000 N 
ATOM     35  H   UNL     1      -7.820  12.839  24.528  0.00  0.00    +0.000 HD
ATOM     36  H   UNL     1      -7.200  14.403  24.675  0.00  0.00    +0.000 HD
ENDBRANCH  32  34
ENDBRANCH  25  28
ENDBRANCH  23  25
ENDBRANCH   6  23
TORSDOF 10
ENDMDL
MODEL 2
REMARK VINA RESULT:      -8.0      4.262     10.651
REMARK  Name = 
REMARK  12 active torsions:
REMARK  status: ('A' for Active; 'I' for Inactive)
REMARK    1  A    between atoms: C_1  and  C_2
REMARK    2  A    between atoms: C_2  and  O_3
REMARK    3  A    between atoms: C_2  and  C_23
REMARK    4  A    between atoms: O_3  and  C_4
REMARK    5  A    between atoms: C_4  and  C_6
REMARK    6  A    between atoms: C_11  and  N_12
REMARK    7  A    between atoms: N_12  and  S_13
REMARK    8  A    between atoms: S_13  and  C_16
REMARK    9  A    between atoms: C_20  and  N_21
REMARK   10  A    between atoms: N_25  and  C_26
REMARK   11  A    between atoms: N_25  and  C_27
REMARK   12  A    between atoms: C_27  and  C_28
REMARK                            x       y       z     vdW  Elec       q    Type
REMARK                         _______ _______ _______ _____ _____    ______ ____
ROOT
ATOM      1  C   UNL     1       2.216   5.698  19.234  0.00  0.00    +0.000 A 
ATOM      2  C   UNL     1       1.601   5.328  20.451  0.00  0.00    +0.000 A 
ATOM      3  C   UNL     1       1.150   4.023  20.648  0.00  0.00    +0.000 A 
ATOM      4  C   UNL     1       1.267   3.085  19.628  0.00  0.00    +0.000 A 
ATOM      5  C   UNL     1       1.860   3.450  18.418  0.00  0.00    +0.000 A 
ATOM      6  C   UNL     1       2.373   4.741  18.223  0.00  0.00    +0.000 A 
ENDROOT
BRANCH   1   7
ATOM      7  C   UNL     1       2.558   7.131  19.074  0.00  0.00    +0.000 C 
ATOM      8  O   UNL     1       3.218   7.602  18.173  0.00  0.00    +0.000 OA
BRANCH   7   9
ATOM      9  O   UNL     1       2.170   7.744  20.219  0.00  0.00    +0.000 OA
BRANCH   9  11
ATOM     10  C   UNL     1       1.612   9.890  19.094  0.00  0.00    +0.000 C 
ATOM     11  C   UNL     1       1.247   8.851  20.151  0.00  0.00    +0.000 C 
BRANCH  11  12
ATOM     12  C   UNL     1       0.841   9.525  21.504  0.00  0.00    +0.000 C 
ATOM     13  O   UNL     1       1.572   9.461  22.494  0.00  0.00    +0.000 OA
ATOM     14  N   UNL     1      -0.388  10.180  21.586  0.00  0.00    +0.000 N 
ATOM     15  C   UNL     1      -1.306  10.380  20.474  0.00  0.00    +0.000 C 
BRANCH  14  16
ATOM     16  C   UNL     1      -0.866  10.576  22.915  0.00  0.00    +0.000 C 
BRANCH  16  17
ATOM     17  C   UNL     1      -1.481  11.962  22.951  0.00  0.00    +0.000 A 
ATOM     18  C   UNL     1      -2.810  12.147  23.362  0.00  0.00    +0.000 A 
ATOM     19  C   UNL     1      -3.363  13.429  23.430  0.00  0.00    +0.000 A 
ATOM     20  C   UNL     1      -2.600  14.542  23.079  0.00  0.00    +0.000 A 
ATOM     21  C   UNL     1      -1.280  14.371  22.666  0.00  0.00    +0.000 A 
ATOM     22  C   UNL     1      -0.725  13.091  22.599  0.00  0.00    +0.000 A 
ENDBRANCH  16  17
ENDBRANCH  14  16
ENDBRANCH  11  12
ENDBRANCH   9  11
ENDBRANCH   7   9
ENDBRANCH   1   7
BRANCH   6  23
ATOM     23  N   UNL     1       3.182   4.960  17.060  0.00  0.00    +0.000 N 
ATOM     24  H   UNL     1       3.331   5.925  16.765  0.00  0.00    +0.000 HD
BRANCH  23  25
ATOM     25  S   UNL     1       4.638   4.073  16.966  0.00  0.00    +0.000 S 
ATOM     26  O   UNL     1       4.514   2.998  17.926  0.00  0.00    +0.000 OA
ATOM     27  O   UNL     1       4.947   3.815  15.576  0.00  0.00    +0.000 OA
BRANCH  25  28
ATOM     28  C   UNL     1       5.829   5.229  17.611  0.00  0.00    +0.000 A 
ATOM     29  C   UNL     1       6.085   6.409  16.912  0.00  0.00    +0.000 A 
ATOM     30  C   UNL     1       7.111   7.244  17.347  0.00  0.00    +0.000 A 
ATOM     31  C   UNL     1       7.884   6.884  18.457  0.00  0.00    +0.000 A 
ATOM     32  C   UNL     1       7.635   5.698  19.154  0.00  0.00    +0.000 A 
ATOM     33  C   UNL     1       6.544   4.914  18.775  0.00  0.00    +0.000 A 
BRANCH  32  34
ATOM     34  N   UNL     1       8.344   5.408  20.322  0.00  0.00    +0.000 N 
ATOM     35  H   UNL     1       9.021   6.116  20.588  0.00  0.00    +0.000 HD
ATOM     36  H   UNL     1       8.728   4.468  20.361  0.00  0.00    +0.000 HD
ENDBRANCH  32  34
ENDBRANCH  25  28
ENDBRANCH  23  25
ENDBRANCH   6  23
TORSDOF 10
ENDMDL
MODEL 3
REMARK VINA RESULT:      -8.0      4.275      6.130
REMARK  Name = 
REMARK  12 active torsions:
REMARK  status: ('A' for Active; 'I' for Inactive)
REMARK    1  A    between atoms: C_1  and  C_2
REMARK    2  A    between atoms: C_2  and  O_3
REMARK    3  A    between atoms: C_2  and  C_23
REMARK    4  A    between atoms: O_3  and  C_4
REMARK    5  A    between atoms: C_4  and  C_6
REMARK    6  A    between atoms: C_11  and  N_12
REMARK    7  A    between atoms: N_12  and  S_13
REMARK    8  A    between atoms: S_13  and  C_16
REMARK    9  A    between atoms: C_20  and  N_21
REMARK   10  A    between atoms: N_25  and  C_26
REMARK   11  A    between atoms: N_25  and  C_27
REMARK   12  A    between atoms: C_27  and  C_28
REMARK                            x       y       z     vdW  Elec       q    Type
REMARK                         _______ _______ _______ _____ _____    ______ ____
ROOT
ATOM      1  C   UNL     1       2.052   6.614  19.836  0.00  0.00    +0.000 A 
ATOM      2  C   UNL     1       2.334   6.257  18.499  0.00  0.00    +0.000 A 
ATOM      3  C   UNL     1       2.393   7.232  17.502  0.00  0.00    +0.000 A 
ATOM      4  C   UNL     1       2.135   8.562  17.816  0.00  0.00    +0.000 A 
ATOM      5  C   UNL     1       1.841   8.918  19.133  0.00  0.00    +0.000 A 
ATOM      6  C   UNL     1       1.835   7.960  20.157  0.00  0.00    +0.000 A 
ENDROOT
BRANCH   1   7
ATOM      7  C   UNL     1       1.896   5.500  20.799  0.00  0.00    +0.000 C 
ATOM      8  O   UNL     1       2.502   5.380  21.844  0.00  0.00    +0.000 OA
BRANCH   7   9
ATOM      9  O   UNL     1       1.121   4.572  20.186  0.00  0.00    +0.000 OA
BRANCH   9  11
ATOM     10  C   UNL     1       1.296   2.515  21.572  0.00  0.00    +0.000 C 
ATOM     11  C   UNL     1       1.518   3.185  20.218  0.00  0.00    +0.000 C 
BRANCH  11  12
ATOM     12  C   UNL     1       2.921   2.831  19.623  0.00  0.00    +0.000 C 
ATOM     13  O   UNL     1       3.877   2.564  20.354  0.00  0.00    +0.000 OA
ATOM     14  N   UNL     1       3.087   2.851  18.238  0.00  0.00    +0.000 N 
ATOM     15  C   UNL     1       2.026   3.086  17.271  0.00  0.00    +0.000 C 
BRANCH  14  16
ATOM     16  C   UNL     1       4.455   2.774  17.712  0.00  0.00    +0.000 C 
BRANCH  16  17
ATOM     17  C   UNL     1       5.075   4.130  17.435  0.00  0.00    +0.000 A 
ATOM     18  C   UNL     1       5.802   4.803  18.430  0.00  0.00    +0.000 A 
ATOM     19  C   UNL     1       6.404   6.036  18.161  0.00  0.00    +0.000 A 
ATOM     20  C   UNL     1       6.281   6.618  16.901  0.00  0.00    +0.000 A 
ATOM     21  C   UNL     1       5.559   5.961  15.906  0.00  0.00    +0.000 A 
ATOM     22  C   UNL     1       4.958   4.729  16.171  0.00  0.00    +0.000 A 
ENDBRANCH  16  17
ENDBRANCH  14  16
ENDBRANCH  11  12
ENDBRANCH   9  11
ENDBRANCH   7   9
ENDBRANCH   1   7
BRANCH   6  23
ATOM     23  N   UNL     1       1.773   8.439  21.507  0.00  0.00    +0.000 N 
ATOM     24  H   UNL     1       2.544   9.021  21.837  0.00  0.00    +0.000 HD
BRANCH  23  25
ATOM     25  S   UNL     1       0.275   9.080  22.021  0.00  0.00    +0.000 S 
ATOM     26  O   UNL     1      -0.724   8.098  21.661  0.00  0.00    +0.000 OA
ATOM     27  O   UNL     1       0.408   9.565  23.378  0.00  0.00    +0.000 OA
BRANCH  25  28
ATOM     28  C   UNL     1       0.067  10.474  20.933  0.00  0.00    +0.000 A 
ATOM     29  C   UNL     1      -0.947  10.449  19.975  0.00  0.00    +0.000 A 
ATOM     30  C   UNL     1      -1.020  11.479  19.040  0.00  0.00    +0.000 A 
ATOM     31  C   UNL     1      -0.072  12.508  19.056  0.00  0.00    +0.000 A 
ATOM     32  C   UNL     1       0.949  12.532  20.011  0.00  0.00    +0.000 A 
ATOM     33  C   UNL     1       0.961  11.552  21.004  0.00  0.00    +0.000 A 
BRANCH  32  34
ATOM     34  N   UNL     1       1.821  13.621  20.080  0.00  0.00    +0.000 N 
ATOM     35  H   UNL     1       2.799  13.384  19.947  0.00  0.00    +0.000 HD
ATOM     36  H   UNL     1       1.674  14.230  20.880  0.00  0.00    +0.000 HD
ENDBRANCH  32  34
ENDBRANCH  25  28
ENDBRANCH  23  25
ENDBRANCH   6  23
TORSDOF 10
ENDMDL
MODEL 4
REMARK VINA RESULT:      -8.0      1.651      2.421
REMARK  Name = 
REMARK  12 active torsions:
REMARK  status: ('A' for Active; 'I' for Inactive)
REMARK    1  A    between atoms: C_1  and  C_2
REMARK    2  A    between atoms: C_2  and  O_3
REMARK    3  A    between atoms: C_2  and  C_23
REMARK    4  A    between atoms: O_3  and  C_4
REMARK    5  A    between atoms: C_4  and  C_6
REMARK    6  A    between atoms: C_11  and  N_12
REMARK    7  A    between atoms: N_12  and  S_13
REMARK    8  A    between atoms: S_13  and  C_16
REMARK    9  A    between atoms: C_20  and  N_21
REMARK   10  A    between atoms: N_25  and  C_26
REMARK   11  A    between atoms: N_25  and  C_27
REMARK   12  A    between atoms: C_27  and  C_28
REMARK                            x       y       z     vdW  Elec       q    Type
REMARK                         _______ _______ _______ _____ _____    ______ ____
ROOT
ATOM      1  C   UNL     1      -2.258  10.737  17.895  0.00  0.00    +0.000 A 
ATOM      2  C   UNL     1      -2.101   9.904  16.765  0.00  0.00    +0.000 A 
ATOM      3  C   UNL     1      -3.037   9.929  15.731  0.00  0.00    +0.000 A 
ATOM      4  C   UNL     1      -4.156  10.750  15.826  0.00  0.00    +0.000 A 
ATOM      5  C   UNL     1      -4.323  11.563  16.948  0.00  0.00    +0.000 A 
ATOM      6  C   UNL     1      -3.363  11.595  17.969  0.00  0.00    +0.000 A 
ENDROOT
BRANCH   1   7
ATOM      7  C   UNL     1      -1.277  10.557  18.991  0.00  0.00    +0.000 C 
ATOM      8  O   UNL     1      -1.356  11.051  20.096  0.00  0.00    +0.000 OA
BRANCH   7   9
ATOM      9  O   UNL     1      -0.210   9.923  18.446  0.00  0.00    +0.000 OA
BRANCH   9  11
ATOM     10  C   UNL     1       2.143  10.719  18.330  0.00  0.00    +0.000 C 
ATOM     11  C   UNL     1       1.066   9.979  19.118  0.00  0.00    +0.000 C 
BRANCH  11  12
ATOM     12  C   UNL     1       1.611   8.642  19.723  0.00  0.00    +0.000 C 
ATOM     13  O   UNL     1       1.477   8.381  20.920  0.00  0.00    +0.000 OA
ATOM     14  N   UNL     1       2.286   7.753  18.886  0.00  0.00    +0.000 N 
ATOM     15  C   UNL     1       2.451   7.916  17.450  0.00  0.00    +0.000 C 
BRANCH  14  16
ATOM     16  C   UNL     1       3.010   6.641  19.512  0.00  0.00    +0.000 C 
BRANCH  16  17
ATOM     17  C   UNL     1       2.284   5.313  19.416  0.00  0.00    +0.000 A 
ATOM     18  C   UNL     1       1.587   4.795  20.518  0.00  0.00    +0.000 A 
ATOM     19  C   UNL     1       0.888   3.588  20.416  0.00  0.00    +0.000 A 
ATOM     20  C   UNL     1       0.883   2.880  19.216  0.00  0.00    +0.000 A 
ATOM     21  C   UNL     1       1.573   3.383  18.115  0.00  0.00    +0.000 A 
ATOM     22  C   UNL     1       2.272   4.588  18.214  0.00  0.00    +0.000 A 
ENDBRANCH  16  17
ENDBRANCH  14  16
ENDBRANCH  11  12
ENDBRANCH   9  11
ENDBRANCH   7   9
ENDBRANCH   1   7
BRANCH   6  23
ATOM     23  N   UNL     1      -3.481  12.630  18.954  0.00  0.00    +0.000 N 
ATOM     24  H   UNL     1      -3.215  13.575  18.679  0.00  0.00    +0.000 HD
BRANCH  23  25
ATOM     25  S   UNL     1      -4.928  12.655  19.863  0.00  0.00    +0.000 S 
ATOM     26  O   UNL     1      -5.698  13.770  19.357  0.00  0.00    +0.000 OA
ATOM     27  O   UNL     1      -5.478  11.317  19.915  0.00  0.00    +0.000 OA
BRANCH  25  28
ATOM     28  C   UNL     1      -4.349  13.099  21.486  0.00  0.00    +0.000 A 
ATOM     29  C   UNL     1      -3.245  13.943  21.611  0.00  0.00    +0.000 A 
ATOM     30  C   UNL     1      -2.713  14.179  22.877  0.00  0.00    +0.000 A 
ATOM     31  C   UNL     1      -3.271  13.555  23.999  0.00  0.00    +0.000 A 
ATOM     32  C   UNL     1      -4.373  12.703  23.875  0.00  0.00    +0.000 A 
ATOM     33  C   UNL     1      -4.962  12.547  22.619  0.00  0.00    +0.000 A 
BRANCH  32  34
ATOM     34  N   UNL     1      -4.984  12.175  25.015  0.00  0.00    +0.000 N 
ATOM     35  H   UNL     1      -5.637  11.420  24.828  0.00  0.00    +0.000 HD
ATOM     36  H   UNL     1      -5.365  12.869  25.651  0.00  0.00    +0.000 HD
ENDBRANCH  32  34
ENDBRANCH  25  28
ENDBRANCH  23  25
ENDBRANCH   6  23
TORSDOF 10
ENDMDL
MODEL 5
REMARK VINA RESULT:      -7.9      5.128      8.300
REMARK  Name = 
REMARK  12 active torsions:
REMARK  status: ('A' for Active; 'I' for Inactive)
REMARK    1  A    between atoms: C_1  and  C_2
REMARK    2  A    between atoms: C_2  and  O_3
REMARK    3  A    between atoms: C_2  and  C_23
REMARK    4  A    between atoms: O_3  and  C_4
REMARK    5  A    between atoms: C_4  and  C_6
REMARK    6  A    between atoms: C_11  and  N_12
REMARK    7  A    between atoms: N_12  and  S_13
REMARK    8  A    between atoms: S_13  and  C_16
REMARK    9  A    between atoms: C_20  and  N_21
REMARK   10  A    between atoms: N_25  and  C_26
REMARK   11  A    between atoms: N_25  and  C_27
REMARK   12  A    between atoms: C_27  and  C_28
REMARK                            x       y       z     vdW  Elec       q    Type
REMARK                         _______ _______ _______ _____ _____    ______ ____
ROOT
ATOM      1  C   UNL     1       3.286   3.449  19.346  0.00  0.00    +0.000 A 
ATOM      2  C   UNL     1       2.616   2.238  19.060  0.00  0.00    +0.000 A 
ATOM      3  C   UNL     1       1.235   2.136  19.229  0.00  0.00    +0.000 A 
ATOM      4  C   UNL     1       0.512   3.219  19.720  0.00  0.00    +0.000 A 
ATOM      5  C   UNL     1       1.172   4.412  20.018  0.00  0.00    +0.000 A 
ATOM      6  C   UNL     1       2.550   4.552  19.799  0.00  0.00    +0.000 A 
ENDROOT
BRANCH   1   7
ATOM      7  C   UNL     1       4.763   3.426  19.246  0.00  0.00    +0.000 C 
ATOM      8  O   UNL     1       5.512   2.829  19.991  0.00  0.00    +0.000 OA
BRANCH   7   9
ATOM      9  O   UNL     1       5.096   4.352  18.313  0.00  0.00    +0.000 OA
BRANCH   9  11
ATOM     10  C   UNL     1       6.861   6.045  18.756  0.00  0.00    +0.000 C 
ATOM     11  C   UNL     1       6.483   4.706  18.129  0.00  0.00    +0.000 C 
BRANCH  11  12
ATOM     12  C   UNL     1       7.071   4.558  16.687  0.00  0.00    +0.000 C 
ATOM     13  O   UNL     1       8.134   3.967  16.488  0.00  0.00    +0.000 OA
ATOM     14  N   UNL     1       6.385   5.137  15.619  0.00  0.00    +0.000 N 
ATOM     15  C   UNL     1       5.093   5.801  15.715  0.00  0.00    +0.000 C 
BRANCH  14  16
ATOM     16  C   UNL     1       7.073   5.215  14.325  0.00  0.00    +0.000 C 
BRANCH  16  17
ATOM     17  C   UNL     1       6.517   4.262  13.285  0.00  0.00    +0.000 A 
ATOM     18  C   UNL     1       7.374   3.569  12.416  0.00  0.00    +0.000 A 
ATOM     19  C   UNL     1       6.862   2.663  11.482  0.00  0.00    +0.000 A 
ATOM     20  C   UNL     1       5.488   2.445  11.396  0.00  0.00    +0.000 A 
ATOM     21  C   UNL     1       4.626   3.130  12.251  0.00  0.00    +0.000 A 
ATOM     22  C   UNL     1       5.136   4.034  13.186  0.00  0.00    +0.000 A 
ENDBRANCH  16  17
ENDBRANCH  14  16
ENDBRANCH  11  12
ENDBRANCH   9  11
ENDBRANCH   7   9
ENDBRANCH   1   7
BRANCH   6  23
ATOM     23  N   UNL     1       3.102   5.872  19.891  0.00  0.00    +0.000 N 
ATOM     24  H   UNL     1       4.075   5.956  20.185  0.00  0.00    +0.000 HD
BRANCH  23  25
ATOM     25  S   UNL     1       2.776   6.927  18.588  0.00  0.00    +0.000 S 
ATOM     26  O   UNL     1       4.044   7.522  18.227  0.00  0.00    +0.000 OA
ATOM     27  O   UNL     1       1.958   6.237  17.613  0.00  0.00    +0.000 OA
BRANCH  25  28
ATOM     28  C   UNL     1       1.795   8.194  19.364  0.00  0.00    +0.000 A 
ATOM     29  C   UNL     1       1.447   8.063  20.708  0.00  0.00    +0.000 A 
ATOM     30  C   UNL     1       0.569   8.985  21.273  0.00  0.00    +0.000 A 
ATOM     31  C   UNL     1       0.031  10.012  20.489  0.00  0.00    +0.000 A 
ATOM     32  C   UNL     1       0.373  10.142  19.139  0.00  0.00    +0.000 A 
ATOM     33  C   UNL     1       1.326   9.275  18.603  0.00  0.00    +0.000 A 
BRANCH  32  34
ATOM     34  N   UNL     1      -0.087  11.234  18.400  0.00  0.00    +0.000 N 
ATOM     35  H   UNL     1       0.648  11.817  18.012  0.00  0.00    +0.000 HD
ATOM     36  H   UNL     1      -0.815  11.777  18.856  0.00  0.00    +0.000 HD
ENDBRANCH  32  34
ENDBRANCH  25  28
ENDBRANCH  23  25
ENDBRANCH   6  23
TORSDOF 10
ENDMDL
MODEL 6
REMARK VINA RESULT:      -7.9      4.780     11.716
REMARK  Name = 
REMARK  12 active torsions:
REMARK  status: ('A' for Active; 'I' for Inactive)
REMARK    1  A    between atoms: C_1  and  C_2
REMARK    2  A    between atoms: C_2  and  O_3
REMARK    3  A    between atoms: C_2  and  C_23
REMARK    4  A    between atoms: O_3  and  C_4
REMARK    5  A    between atoms: C_4  and  C_6
REMARK    6  A    between atoms: C_11  and  N_12
REMARK    7  A    between atoms: N_12  and  S_13
REMARK    8  A    between atoms: S_13  and  C_16
REMARK    9  A    between atoms: C_20  and  N_21
REMARK   10  A    between atoms: N_25  and  C_26
REMARK   11  A    between atoms: N_25  and  C_27
REMARK   12  A    between atoms: C_27  and  C_28
REMARK                            x       y       z     vdW  Elec       q    Type
REMARK                         _______ _______ _______ _____ _____    ______ ____
ROOT
ATOM      1  C   UNL     1       4.343   4.152  18.602  0.00  0.00    +0.000 A 
ATOM      2  C   UNL     1       4.152   3.233  19.658  0.00  0.00    +0.000 A 
ATOM      3  C   UNL     1       3.813   1.906  19.389  0.00  0.00    +0.000 A 
ATOM      4  C   UNL     1       3.623   1.489  18.076  0.00  0.00    +0.000 A 
ATOM      5  C   UNL     1       3.796   2.397  17.030  0.00  0.00    +0.000 A 
ATOM      6  C   UNL     1       4.193   3.719  17.278  0.00  0.00    +0.000 A 
ENDROOT
BRANCH   1   7
ATOM      7  C   UNL     1       4.586   5.561  18.988  0.00  0.00    +0.000 C 
ATOM      8  O   UNL     1       5.395   5.938  19.809  0.00  0.00    +0.000 OA
BRANCH   7   9
ATOM      9  O   UNL     1       3.602   6.290  18.406  0.00  0.00    +0.000 OA
BRANCH   9  11
ATOM     10  C   UNL     1       1.695   6.257  20.002  0.00  0.00    +0.000 C 
ATOM     11  C   UNL     1       2.725   7.082  19.234  0.00  0.00    +0.000 C 
BRANCH  11  12
ATOM     12  C   UNL     1       2.076   8.347  18.579  0.00  0.00    +0.000 C 
ATOM     13  O   UNL     1       2.220   8.590  17.380  0.00  0.00    +0.000 OA
ATOM     14  N   UNL     1       1.349   9.223  19.386  0.00  0.00    +0.000 N 
ATOM     15  C   UNL     1       1.054   9.013  20.796  0.00  0.00    +0.000 C 
BRANCH  14  16
ATOM     16  C   UNL     1       0.973  10.523  18.819  0.00  0.00    +0.000 C 
BRANCH  16  17
ATOM     17  C   UNL     1      -0.507  10.643  18.509  0.00  0.00    +0.000 A 
ATOM     18  C   UNL     1      -1.109   9.812  17.552  0.00  0.00    +0.000 A 
ATOM     19  C   UNL     1      -2.481   9.899  17.293  0.00  0.00    +0.000 A 
ATOM     20  C   UNL     1      -3.266  10.824  17.979  0.00  0.00    +0.000 A 
ATOM     21  C   UNL     1      -2.679  11.658  18.929  0.00  0.00    +0.000 A 
ATOM     22  C   UNL     1      -1.309  11.571  19.190  0.00  0.00    +0.000 A 
ENDBRANCH  16  17
ENDBRANCH  14  16
ENDBRANCH  11  12
ENDBRANCH   9  11
ENDBRANCH   7   9
ENDBRANCH   1   7
BRANCH   6  23
ATOM     23  N   UNL     1       4.589   4.511  16.150  0.00  0.00    +0.000 N 
ATOM     24  H   UNL     1       3.978   5.282  15.878  0.00  0.00    +0.000 HD
BRANCH  23  25
ATOM     25  S   UNL     1       6.226   4.995  16.096  0.00  0.00    +0.000 S 
ATOM     26  O   UNL     1       6.221   6.436  16.219  0.00  0.00    +0.000 OA
ATOM     27  O   UNL     1       6.997   4.160  16.993  0.00  0.00    +0.000 OA
BRANCH  25  28
ATOM     28  C   UNL     1       6.681   4.605  14.419  0.00  0.00    +0.000 A 
ATOM     29  C   UNL     1       7.595   5.420  13.751  0.00  0.00    +0.000 A 
ATOM     30  C   UNL     1       7.845   5.191  12.400  0.00  0.00    +0.000 A 
ATOM     31  C   UNL     1       7.166   4.170  11.726  0.00  0.00    +0.000 A 
ATOM     32  C   UNL     1       6.244   3.356  12.391  0.00  0.00    +0.000 A 
ATOM     33  C   UNL     1       6.070   3.526  13.765  0.00  0.00    +0.000 A 
BRANCH  32  34
ATOM     34  N   UNL     1       5.657   2.274  11.731  0.00  0.00    +0.000 N 
ATOM     35  H   UNL     1       4.644   2.244  11.795  0.00  0.00    +0.000 HD
ATOM     36  H   UNL     1       6.086   1.374  11.930  0.00  0.00    +0.000 HD
ENDBRANCH  32  34
ENDBRANCH  25  28
ENDBRANCH  23  25
ENDBRANCH   6  23
TORSDOF 10
ENDMDL
MODEL 7
REMARK VINA RESULT:      -7.9      1.628      2.423
REMARK  Name = 
REMARK  12 active torsions:
REMARK  status: ('A' for Active; 'I' for Inactive)
REMARK    1  A    between atoms: C_1  and  C_2
REMARK    2  A    between atoms: C_2  and  O_3
REMARK    3  A    between atoms: C_2  and  C_23
REMARK    4  A    between atoms: O_3  and  C_4
REMARK    5  A    between atoms: C_4  and  C_6
REMARK    6  A    between atoms: C_11  and  N_12
REMARK    7  A    between atoms: N_12  and  S_13
REMARK    8  A    between atoms: S_13  and  C_16
REMARK    9  A    between atoms: C_20  and  N_21
REMARK   10  A    between atoms: N_25  and  C_26
REMARK   11  A    between atoms: N_25  and  C_27
REMARK   12  A    between atoms: C_27  and  C_28
REMARK                            x       y       z     vdW  Elec       q    Type
REMARK                         _______ _______ _______ _____ _____    ______ ____
ROOT
ATOM      1  C   UNL     1      -2.270  10.748  17.986  0.00  0.00    +0.000 A 
ATOM      2  C   UNL     1      -2.149   9.973  16.811  0.00  0.00    +0.000 A 
ATOM      3  C   UNL     1      -3.105  10.066  15.799  0.00  0.00    +0.000 A 
ATOM      4  C   UNL     1      -4.208  10.898  15.960  0.00  0.00    +0.000 A 
ATOM      5  C   UNL     1      -4.340  11.655  17.125  0.00  0.00    +0.000 A 
ATOM      6  C   UNL     1      -3.359  11.618  18.127  0.00  0.00    +0.000 A 
ENDROOT
BRANCH   1   7
ATOM      7  C   UNL     1      -1.271  10.497  19.050  0.00  0.00    +0.000 C 
ATOM      8  O   UNL     1      -1.243  11.039  20.134  0.00  0.00    +0.000 OA
BRANCH   7   9
ATOM      9  O   UNL     1      -0.309   9.719  18.493  0.00  0.00    +0.000 OA
BRANCH   9  11
ATOM     10  C   UNL     1       1.632  11.272  18.445  0.00  0.00    +0.000 C 
ATOM     11  C   UNL     1       1.069   9.918  18.871  0.00  0.00    +0.000 C 
BRANCH  11  12
ATOM     12  C   UNL     1       2.068   8.755  18.560  0.00  0.00    +0.000 C 
ATOM     13  O   UNL     1       2.675   8.703  17.489  0.00  0.00    +0.000 OA
ATOM     14  N   UNL     1       2.243   7.748  19.510  0.00  0.00    +0.000 N 
ATOM     15  C   UNL     1       1.637   7.731  20.833  0.00  0.00    +0.000 C 
BRANCH  14  16
ATOM     16  C   UNL     1       2.974   6.543  19.104  0.00  0.00    +0.000 C 
BRANCH  16  17
ATOM     17  C   UNL     1       2.185   5.262  19.292  0.00  0.00    +0.000 A 
ATOM     18  C   UNL     1       1.742   4.523  18.184  0.00  0.00    +0.000 A 
ATOM     19  C   UNL     1       1.046   3.323  18.360  0.00  0.00    +0.000 A 
ATOM     20  C   UNL     1       0.774   2.851  19.643  0.00  0.00    +0.000 A 
ATOM     21  C   UNL     1       1.206   3.578  20.751  0.00  0.00    +0.000 A 
ATOM     22  C   UNL     1       1.903   4.776  20.578  0.00  0.00    +0.000 A 
ENDBRANCH  16  17
ENDBRANCH  14  16
ENDBRANCH  11  12
ENDBRANCH   9  11
ENDBRANCH   7   9
ENDBRANCH   1   7
BRANCH   6  23
ATOM     23  N   UNL     1      -3.441  12.602  19.167  0.00  0.00    +0.000 N 
ATOM     24  H   UNL     1      -3.063  13.529  18.969  0.00  0.00    +0.000 HD
BRANCH  23  25
ATOM     25  S   UNL     1      -4.936  12.724  19.984  0.00  0.00    +0.000 S 
ATOM     26  O   UNL     1      -5.653  13.805  19.344  0.00  0.00    +0.000 OA
ATOM     27  O   UNL     1      -5.514  11.403  20.114  0.00  0.00    +0.000 OA
BRANCH  25  28
ATOM     28  C   UNL     1      -4.441  13.294  21.596  0.00  0.00    +0.000 A 
ATOM     29  C   UNL     1      -3.621  12.487  22.385  0.00  0.00    +0.000 A 
ATOM     30  C   UNL     1      -3.348  12.875  23.695  0.00  0.00    +0.000 A 
ATOM     31  C   UNL     1      -3.912  14.048  24.210  0.00  0.00    +0.000 A 
ATOM     32  C   UNL     1      -4.740  14.854  23.424  0.00  0.00    +0.000 A 
ATOM     33  C   UNL     1      -4.932  14.513  22.084  0.00  0.00    +0.000 A 
BRANCH  32  34
ATOM     34  N   UNL     1      -5.207  16.075  23.918  0.00  0.00    +0.000 N 
ATOM     35  H   UNL     1      -5.705  16.640  23.237  0.00  0.00    +0.000 HD
ATOM     36  H   UNL     1      -4.518  16.611  24.438  0.00  0.00    +0.000 HD
ENDBRANCH  32  34
ENDBRANCH  25  28
ENDBRANCH  23  25
ENDBRANCH   6  23
TORSDOF 10
ENDMDL
MODEL 8
REMARK VINA RESULT:      -7.9      3.795     10.447
REMARK  Name = 
REMARK  12 active torsions:
REMARK  status: ('A' for Active; 'I' for Inactive)
REMARK    1  A    between atoms: C_1  and  C_2
REMARK    2  A    between atoms: C_2  and  O_3
REMARK    3  A    between atoms: C_2  and  C_23
REMARK    4  A    between atoms: O_3  and  C_4
REMARK    5  A    between atoms: C_4  and  C_6
REMARK    6  A    between atoms: C_11  and  N_12
REMARK    7  A    between atoms: N_12  and  S_13
REMARK    8  A    between atoms: S_13  and  C_16
REMARK    9  A    between atoms: C_20  and  N_21
REMARK   10  A    between atoms: N_25  and  C_26
REMARK   11  A    between atoms: N_25  and  C_27
REMARK   12  A    between atoms: C_27  and  C_28
REMARK                            x       y       z     vdW  Elec       q    Type
REMARK                         _______ _______ _______ _____ _____    ______ ____
ROOT
ATOM      1  C   UNL     1       2.016   5.660  19.417  0.00  0.00    +0.000 A 
ATOM      2  C   UNL     1       1.383   5.062  20.530  0.00  0.00    +0.000 A 
ATOM      3  C   UNL     1       1.073   3.701  20.522  0.00  0.00    +0.000 A 
ATOM      4  C   UNL     1       1.351   2.932  19.398  0.00  0.00    +0.000 A 
ATOM      5  C   UNL     1       1.962   3.521  18.290  0.00  0.00    +0.000 A 
ATOM      6  C   UNL     1       2.334   4.873  18.303  0.00  0.00    +0.000 A 
ENDROOT
BRANCH   1   7
ATOM      7  C   UNL     1       2.201   7.128  19.472  0.00  0.00    +0.000 C 
ATOM      8  O   UNL     1       2.860   7.786  18.695  0.00  0.00    +0.000 OA
BRANCH   7   9
ATOM      9  O   UNL     1       1.672   7.534  20.653  0.00  0.00    +0.000 OA
BRANCH   9  11
ATOM     10  C   UNL     1       1.509   9.372  22.319  0.00  0.00    +0.000 C 
ATOM     11  C   UNL     1       1.398   8.936  20.860  0.00  0.00    +0.000 C 
BRANCH  11  12
ATOM     12  C   UNL     1       0.115   9.520  20.181  0.00  0.00    +0.000 C 
ATOM     13  O   UNL     1      -0.984   8.981  20.322  0.00  0.00    +0.000 OA
ATOM     14  N   UNL     1       0.238  10.655  19.379  0.00  0.00    +0.000 N 
ATOM     15  C   UNL     1       1.463  11.417  19.188  0.00  0.00    +0.000 C 
BRANCH  14  16
ATOM     16  C   UNL     1      -0.911  11.033  18.548  0.00  0.00    +0.000 C 
BRANCH  16  17
ATOM     17  C   UNL     1      -1.991  11.776  19.310  0.00  0.00    +0.000 A 
ATOM     18  C   UNL     1      -1.675  12.533  20.449  0.00  0.00    +0.000 A 
ATOM     19  C   UNL     1      -2.667  13.247  21.129  0.00  0.00    +0.000 A 
ATOM     20  C   UNL     1      -3.988  13.207  20.686  0.00  0.00    +0.000 A 
ATOM     21  C   UNL     1      -4.315  12.457  19.559  0.00  0.00    +0.000 A 
ATOM     22  C   UNL     1      -3.326  11.744  18.878  0.00  0.00    +0.000 A 
ENDBRANCH  16  17
ENDBRANCH  14  16
ENDBRANCH  11  12
ENDBRANCH   9  11
ENDBRANCH   7   9
ENDBRANCH   1   7
BRANCH   6  23
ATOM     23  N   UNL     1       3.174   5.336  17.237  0.00  0.00    +0.000 N 
ATOM     24  H   UNL     1       3.371   6.336  17.192  0.00  0.00    +0.000 HD
BRANCH  23  25
ATOM     25  S   UNL     1       4.592   4.432  16.936  0.00  0.00    +0.000 S 
ATOM     26  O   UNL     1       4.508   3.263  17.784  0.00  0.00    +0.000 OA
ATOM     27  O   UNL     1       4.787   4.319  15.506  0.00  0.00    +0.000 OA
BRANCH  25  28
ATOM     28  C   UNL     1       5.862   5.485  17.605  0.00  0.00    +0.000 A 
ATOM     29  C   UNL     1       6.194   6.665  16.939  0.00  0.00    +0.000 A 
ATOM     30  C   UNL     1       7.277   7.415  17.390  0.00  0.00    +0.000 A 
ATOM     31  C   UNL     1       8.030   6.972  18.483  0.00  0.00    +0.000 A 
ATOM     32  C   UNL     1       7.704   5.785  19.148  0.00  0.00    +0.000 A 
ATOM     33  C   UNL     1       6.561   5.089  18.754  0.00  0.00    +0.000 A 
BRANCH  32  34
ATOM     34  N   UNL     1       8.398   5.413  20.302  0.00  0.00    +0.000 N 
ATOM     35  H   UNL     1       9.398   5.584  20.262  0.00  0.00    +0.000 HD
ATOM     36  H   UNL     1       8.176   4.484  20.648  0.00  0.00    +0.000 HD
ENDBRANCH  32  34
ENDBRANCH  25  28
ENDBRANCH  23  25
ENDBRANCH   6  23
TORSDOF 10
ENDMDL
MODEL 9
REMARK VINA RESULT:      -7.8      4.656     10.755
REMARK  Name = 
REMARK  12 active torsions:
REMARK  status: ('A' for Active; 'I' for Inactive)
REMARK    1  A    between atoms: C_1  and  C_2
REMARK    2  A    between atoms: C_2  and  O_3
REMARK    3  A    between atoms: C_2  and  C_23
REMARK    4  A    between atoms: O_3  and  C_4
REMARK    5  A    between atoms: C_4  and  C_6
REMARK    6  A    between atoms: C_11  and  N_12
REMARK    7  A    between atoms: N_12  and  S_13
REMARK    8  A    between atoms: S_13  and  C_16
REMARK    9  A    between atoms: C_20  and  N_21
REMARK   10  A    between atoms: N_25  and  C_26
REMARK   11  A    between atoms: N_25  and  C_27
REMARK   12  A    between atoms: C_27  and  C_28
REMARK                            x       y       z     vdW  Elec       q    Type
REMARK                         _______ _______ _______ _____ _____    ______ ____
ROOT
ATOM      1  C   UNL     1       3.678   4.354  18.539  0.00  0.00    +0.000 A 
ATOM      2  C   UNL     1       3.235   3.437  19.518  0.00  0.00    +0.000 A 
ATOM      3  C   UNL     1       2.685   2.211  19.143  0.00  0.00    +0.000 A 
ATOM      4  C   UNL     1       2.533   1.901  17.796  0.00  0.00    +0.000 A 
ATOM      5  C   UNL     1       2.955   2.810  16.824  0.00  0.00    +0.000 A 
ATOM      6  C   UNL     1       3.564   4.021  17.183  0.00  0.00    +0.000 A 
ENDROOT
BRANCH   1   7
ATOM      7  C   UNL     1       4.140   5.674  19.029  0.00  0.00    +0.000 C 
ATOM      8  O   UNL     1       4.953   5.853  19.911  0.00  0.00    +0.000 OA
BRANCH   7   9
ATOM      9  O   UNL     1       3.333   6.598  18.452  0.00  0.00    +0.000 OA
BRANCH   9  11
ATOM     10  C   UNL     1       1.615   6.718  20.244  0.00  0.00    +0.000 C 
ATOM     11  C   UNL     1       2.540   7.466  19.288  0.00  0.00    +0.000 C 
BRANCH  11  12
ATOM     12  C   UNL     1       1.803   8.654  18.585  0.00  0.00    +0.000 C 
ATOM     13  O   UNL     1       1.903   8.840  17.371  0.00  0.00    +0.000 OA
ATOM     14  N   UNL     1       1.046   9.530  19.365  0.00  0.00    +0.000 N 
ATOM     15  C   UNL     1       0.798   9.380  20.791  0.00  0.00    +0.000 C 
BRANCH  14  16
ATOM     16  C   UNL     1       0.581  10.774  18.741  0.00  0.00    +0.000 C 
BRANCH  16  17
ATOM     17  C   UNL     1      -0.902  10.775  18.423  0.00  0.00    +0.000 A 
ATOM     18  C   UNL     1      -1.772  11.669  19.065  0.00  0.00    +0.000 A 
ATOM     19  C   UNL     1      -3.133  11.694  18.744  0.00  0.00    +0.000 A 
ATOM     20  C   UNL     1      -3.644  10.820  17.786  0.00  0.00    +0.000 A 
ATOM     21  C   UNL     1      -2.790   9.925  17.144  0.00  0.00    +0.000 A 
ATOM     22  C   UNL     1      -1.430   9.900  17.462  0.00  0.00    +0.000 A 
ENDBRANCH  16  17
ENDBRANCH  14  16
ENDBRANCH  11  12
ENDBRANCH   9  11
ENDBRANCH   7   9
ENDBRANCH   1   7
BRANCH   6  23
ATOM     23  N   UNL     1       4.190   4.779  16.139  0.00  0.00    +0.000 N 
ATOM     24  H   UNL     1       4.132   5.795  16.195  0.00  0.00    +0.000 HD
BRANCH  23  25
ATOM     25  S   UNL     1       5.763   4.292  15.683  0.00  0.00    +0.000 S 
ATOM     26  O   UNL     1       5.875   2.900  16.059  0.00  0.00    +0.000 OA
ATOM     27  O   UNL     1       6.022   4.734  14.329  0.00  0.00    +0.000 OA
BRANCH  25  28
ATOM     28  C   UNL     1       6.788   5.229  16.797  0.00  0.00    +0.000 A 
ATOM     29  C   UNL     1       7.409   4.580  17.865  0.00  0.00    +0.000 A 
ATOM     30  C   UNL     1       8.097   5.338  18.809  0.00  0.00    +0.000 A 
ATOM     31  C   UNL     1       8.141   6.732  18.692  0.00  0.00    +0.000 A 
ATOM     32  C   UNL     1       7.513   7.385  17.627  0.00  0.00    +0.000 A 
ATOM     33  C   UNL     1       6.908   6.616  16.632  0.00  0.00    +0.000 A 
BRANCH  32  34
ATOM     34  N   UNL     1       7.657   8.765  17.466  0.00  0.00    +0.000 N 
ATOM     35  H   UNL     1       7.795   9.063  16.505  0.00  0.00    +0.000 HD
ATOM     36  H   UNL     1       8.317   9.199  18.105  0.00  0.00    +0.000 HD
ENDBRANCH  32  34
ENDBRANCH  25  28
ENDBRANCH  23  25
ENDBRANCH   6  23
TORSDOF 10
ENDMDL
