MODEL 1
REMARK VINA RESULT:      -8.3      0.000      0.000
REMARK  Name = 
REMARK  8 active torsions:
REMARK  status: ('A' for Active; 'I' for Inactive)
REMARK    1  A    between atoms: C_2  and  C_3
REMARK    2  A    between atoms: C_3  and  N_4
REMARK    3  A    between atoms: N_4  and  C_5
REMARK    4  A    between atoms: N_4  and  S_15
REMARK    5  A    between atoms: C_5  and  C_6
REMARK    6  A    between atoms: C_9  and  N_10
REMARK    7  A    between atoms: S_15  and  C_18
REMARK    8  A    between atoms: N_29  and  O_30
REMARK                            x       y       z     vdW  Elec       q    Type
REMARK                         _______ _______ _______ _____ _____    ______ ____
ROOT
ATOM      1  N   UNL     1       4.784   5.823  18.409  0.00  0.00    +0.000 NA
ENDROOT
BRANCH   1   2
ATOM      2  S   UNL     1       4.521   4.164  17.920  0.00  0.00    +0.000 S 
ATOM      3  O   UNL     1       3.838   4.092  16.650  0.00  0.00    +0.000 OA
ATOM      4  O   UNL     1       5.787   3.494  18.115  0.00  0.00    +0.000 OA
BRANCH   2   5
ATOM      5  C   UNL     1       3.353   3.562  19.077  0.00  0.00    +0.000 A 
ATOM      6  C   UNL     1       3.816   2.838  20.171  0.00  0.00    +0.000 A 
ATOM      7  F   UNL     1       5.108   2.502  20.280  0.00  0.00    +0.000 F 
ATOM      8  C   UNL     1       2.932   2.448  21.170  0.00  0.00    +0.000 A 
ATOM      9  F   UNL     1       3.381   1.750  22.222  0.00  0.00    +0.000 F 
ATOM     10  C   UNL     1       1.588   2.781  21.080  0.00  0.00    +0.000 A 
ATOM     11  F   UNL     1       0.736   2.403  22.040  0.00  0.00    +0.000 F 
ATOM     12  C   UNL     1       1.128   3.505  19.987  0.00  0.00    +0.000 A 
ATOM     13  F   UNL     1      -0.168   3.828  19.897  0.00  0.00    +0.000 F 
ATOM     14  C   UNL     1       2.009   3.900  18.987  0.00  0.00    +0.000 A 
ATOM     15  F   UNL     1       1.532   4.613  17.959  0.00  0.00    +0.000 F 
ENDBRANCH   2   5
ENDBRANCH   1   2
BRANCH   1  16
ATOM     16  C   UNL     1       6.262   6.134  18.418  0.00  0.00    +0.000 C 
BRANCH  16  18
ATOM     17  O   UNL     1       7.144   7.628  16.748  0.00  0.00    +0.000 OA
ATOM     18  C   UNL     1       6.937   6.468  17.108  0.00  0.00    +0.000 C 
ATOM     19  N   UNL     1       7.232   5.408  16.296  0.00  0.00    +0.000 N 
ATOM     20  H   UNL     1       6.873   4.470  16.440  0.00  0.00    +0.000 HD
BRANCH  19  21
ATOM     21  O   UNL     1       7.705   5.729  15.002  0.00  0.00    +0.000 OA
ATOM     22  H   UNL     1       6.879   5.921  14.505  0.00  0.00    +0.000 HD
ENDBRANCH  19  21
ENDBRANCH  16  18
ENDBRANCH   1  16
BRANCH   1  23
ATOM     23  C   UNL     1       4.041   6.803  17.523  0.00  0.00    +0.000 C 
BRANCH  23  24
ATOM     24  C   UNL     1       2.924   7.552  18.221  0.00  0.00    +0.000 A 
ATOM     25  C   UNL     1       2.339   8.682  17.626  0.00  0.00    +0.000 A 
ATOM     26  C   UNL     1       1.495   9.513  18.368  0.00  0.00    +0.000 A 
ATOM     27  C   UNL     1       1.222   9.204  19.706  0.00  0.00    +0.000 A 
ATOM     28  C   UNL     1       1.721   8.028  20.281  0.00  0.00    +0.000 A 
ATOM     29  C   UNL     1       2.563   7.201  19.534  0.00  0.00    +0.000 A 
BRANCH  27  30
ATOM     30  N   UNL     1       0.460  10.148  20.533  0.00  0.00    +0.000 N 
ATOM     31  O   UNL     1       1.032  10.650  21.512  0.00  0.00    +0.000 OA
ATOM     32  O   UNL     1      -0.713  10.382  20.210  0.00  0.00    +0.000 OA
ENDBRANCH  27  30
ENDBRANCH  23  24
ENDBRANCH   1  23
TORSDOF 8
ENDMDL
MODEL 2
REMARK VINA RESULT:      -8.2      1.083      2.415
REMARK  Name = 
REMARK  8 active torsions:
REMARK  status: ('A' for Active; 'I' for Inactive)
REMARK    1  A    between atoms: C_2  and  C_3
REMARK    2  A    between atoms: C_3  and  N_4
REMARK    3  A    between atoms: N_4  and  C_5
REMARK    4  A    between atoms: N_4  and  S_15
REMARK    5  A    between atoms: C_5  and  C_6
REMARK    6  A    between atoms: C_9  and  N_10
REMARK    7  A    between atoms: S_15  and  C_18
REMARK    8  A    between atoms: N_29  and  O_30
REMARK                            x       y       z     vdW  Elec       q    Type
REMARK                         _______ _______ _______ _____ _____    ______ ____
ROOT
ATOM      1  N   UNL     1       4.724   5.947  17.864  0.00  0.00    +0.000 NA
ENDROOT
BRANCH   1   2
ATOM      2  S   UNL     1       4.300   4.291  17.491  0.00  0.00    +0.000 S 
ATOM      3  O   UNL     1       3.400   4.220  16.365  0.00  0.00    +0.000 OA
ATOM      4  O   UNL     1       5.547   3.560  17.483  0.00  0.00    +0.000 OA
BRANCH   2   5
ATOM      5  C   UNL     1       3.330   3.784  18.857  0.00  0.00    +0.000 A 
ATOM      6  C   UNL     1       1.954   3.978  18.801  0.00  0.00    +0.000 A 
ATOM      7  F   UNL     1       1.391   4.646  17.785  0.00  0.00    +0.000 F 
ATOM      8  C   UNL     1       1.141   3.481  19.813  0.00  0.00    +0.000 A 
ATOM      9  F   UNL     1      -0.185   3.671  19.756  0.00  0.00    +0.000 F 
ATOM     10  C   UNL     1       1.698   2.789  20.878  0.00  0.00    +0.000 A 
ATOM     11  F   UNL     1       0.916   2.313  21.854  0.00  0.00    +0.000 F 
ATOM     12  C   UNL     1       3.073   2.596  20.931  0.00  0.00    +0.000 A 
ATOM     13  F   UNL     1       3.614   1.928  21.957  0.00  0.00    +0.000 F 
ATOM     14  C   UNL     1       3.890   3.087  19.920  0.00  0.00    +0.000 A 
ATOM     15  F   UNL     1       5.208   2.864  19.997  0.00  0.00    +0.000 F 
ENDBRANCH   2   5
ENDBRANCH   1   2
BRANCH   1  16
ATOM     16  C   UNL     1       6.164   6.211  17.494  0.00  0.00    +0.000 C 
BRANCH  16  18
ATOM     17  O   UNL     1       8.158   7.051  18.551  0.00  0.00    +0.000 OA
ATOM     18  C   UNL     1       7.190   6.291  18.600  0.00  0.00    +0.000 C 
ATOM     19  N   UNL     1       7.034   5.405  19.630  0.00  0.00    +0.000 N 
ATOM     20  H   UNL     1       6.401   4.613  19.602  0.00  0.00    +0.000 HD
BRANCH  19  21
ATOM     21  O   UNL     1       8.084   5.362  20.578  0.00  0.00    +0.000 OA
ATOM     22  H   UNL     1       7.670   4.912  21.347  0.00  0.00    +0.000 HD
ENDBRANCH  19  21
ENDBRANCH  16  18
ENDBRANCH   1  16
BRANCH   1  23
ATOM     23  C   UNL     1       3.808   6.939  17.176  0.00  0.00    +0.000 C 
BRANCH  23  24
ATOM     24  C   UNL     1       2.779   7.575  18.088  0.00  0.00    +0.000 A 
ATOM     25  C   UNL     1       2.055   8.705  17.672  0.00  0.00    +0.000 A 
ATOM     26  C   UNL     1       1.298   9.435  18.593  0.00  0.00    +0.000 A 
ATOM     27  C   UNL     1       1.253   9.025  19.931  0.00  0.00    +0.000 A 
ATOM     28  C   UNL     1       1.891   7.847  20.336  0.00  0.00    +0.000 A 
ATOM     29  C   UNL     1       2.644   7.120  19.412  0.00  0.00    +0.000 A 
BRANCH  27  30
ATOM     30  N   UNL     1       0.585   9.869  20.931  0.00  0.00    +0.000 N 
ATOM     31  O   UNL     1      -0.130  10.795  20.520  0.00  0.00    +0.000 OA
ATOM     32  O   UNL     1       0.780   9.611  22.127  0.00  0.00    +0.000 OA
ENDBRANCH  27  30
ENDBRANCH  23  24
ENDBRANCH   1  23
TORSDOF 8
ENDMDL
MODEL 3
REMARK VINA RESULT:      -8.0      1.263      1.593
REMARK  Name = 
REMARK  8 active torsions:
REMARK  status: ('A' for Active; 'I' for Inactive)
REMARK    1  A    between atoms: C_2  and  C_3
REMARK    2  A    between atoms: C_3  and  N_4
REMARK    3  A    between atoms: N_4  and  C_5
REMARK    4  A    between atoms: N_4  and  S_15
REMARK    5  A    between atoms: C_5  and  C_6
REMARK    6  A    between atoms: C_9  and  N_10
REMARK    7  A    between atoms: S_15  and  C_18
REMARK    8  A    between atoms: N_29  and  O_30
REMARK                            x       y       z     vdW  Elec       q    Type
REMARK                         _______ _______ _______ _____ _____    ______ ____
ROOT
ATOM      1  N   UNL     1       4.200   6.172  17.578  0.00  0.00    +0.000 NA
ENDROOT
BRANCH   1   2
ATOM      2  S   UNL     1       4.536   4.455  17.538  0.00  0.00    +0.000 S 
ATOM      3  O   UNL     1       4.191   3.883  16.258  0.00  0.00    +0.000 OA
ATOM      4  O   UNL     1       5.868   4.305  18.077  0.00  0.00    +0.000 OA
BRANCH   2   5
ATOM      5  C   UNL     1       3.370   3.770  18.650  0.00  0.00    +0.000 A 
ATOM      6  C   UNL     1       3.391   4.190  19.975  0.00  0.00    +0.000 A 
ATOM      7  F   UNL     1       4.353   5.007  20.425  0.00  0.00    +0.000 F 
ATOM      8  C   UNL     1       2.407   3.758  20.857  0.00  0.00    +0.000 A 
ATOM      9  F   UNL     1       2.431   4.165  22.134  0.00  0.00    +0.000 F 
ATOM     10  C   UNL     1       1.402   2.909  20.417  0.00  0.00    +0.000 A 
ATOM     11  F   UNL     1       0.456   2.491  21.266  0.00  0.00    +0.000 F 
ATOM     12  C   UNL     1       1.383   2.491  19.092  0.00  0.00    +0.000 A 
ATOM     13  F   UNL     1       0.414   1.672  18.665  0.00  0.00    +0.000 F 
ATOM     14  C   UNL     1       2.362   2.923  18.206  0.00  0.00    +0.000 A 
ATOM     15  F   UNL     1       2.299   2.514  16.933  0.00  0.00    +0.000 F 
ENDBRANCH   2   5
ENDBRANCH   1   2
BRANCH   1  16
ATOM     16  C   UNL     1       4.893   6.864  16.428  0.00  0.00    +0.000 C 
BRANCH  16  18
ATOM     17  O   UNL     1       7.278   7.027  16.710  0.00  0.00    +0.000 OA
ATOM     18  C   UNL     1       6.329   6.502  16.128  0.00  0.00    +0.000 C 
ATOM     19  N   UNL     1       6.523   5.613  15.107  0.00  0.00    +0.000 N 
ATOM     20  H   UNL     1       5.799   5.338  14.452  0.00  0.00    +0.000 HD
BRANCH  19  21
ATOM     21  O   UNL     1       7.867   5.404  14.713  0.00  0.00    +0.000 OA
ATOM     22  H   UNL     1       8.316   5.190  15.560  0.00  0.00    +0.000 HD
ENDBRANCH  19  21
ENDBRANCH  16  18
ENDBRANCH   1  16
BRANCH   1  23
ATOM     23  C   UNL     1       2.713   6.463  17.555  0.00  0.00    +0.000 C 
BRANCH  23  24
ATOM     24  C   UNL     1       2.290   7.619  18.437  0.00  0.00    +0.000 A 
ATOM     25  C   UNL     1       2.114   7.438  19.819  0.00  0.00    +0.000 A 
ATOM     26  C   UNL     1       1.488   8.425  20.586  0.00  0.00    +0.000 A 
ATOM     27  C   UNL     1       1.050   9.605  19.971  0.00  0.00    +0.000 A 
ATOM     28  C   UNL     1       1.306   9.837  18.614  0.00  0.00    +0.000 A 
ATOM     29  C   UNL     1       1.933   8.848  17.854  0.00  0.00    +0.000 A 
BRANCH  27  30
ATOM     30  N   UNL     1       0.260  10.578  20.737  0.00  0.00    +0.000 N 
ATOM     31  O   UNL     1       0.669  10.893  21.864  0.00  0.00    +0.000 OA
ATOM     32  O   UNL     1      -0.774  11.021  20.216  0.00  0.00    +0.000 OA
ENDBRANCH  27  30
ENDBRANCH  23  24
ENDBRANCH   1  23
TORSDOF 8
ENDMDL
MODEL 4
REMARK VINA RESULT:      -8.0      1.488      1.726
REMARK  Name = 
REMARK  8 active torsions:
REMARK  status: ('A' for Active; 'I' for Inactive)
REMARK    1  A    between atoms: C_2  and  C_3
REMARK    2  A    between atoms: C_3  and  N_4
REMARK    3  A    between atoms: N_4  and  C_5
REMARK    4  A    between atoms: N_4  and  S_15
REMARK    5  A    between atoms: C_5  and  C_6
REMARK    6  A    between atoms: C_9  and  N_10
REMARK    7  A    between atoms: S_15  and  C_18
REMARK    8  A    between atoms: N_29  and  O_30
REMARK                            x       y       z     vdW  Elec       q    Type
REMARK                         _______ _______ _______ _____ _____    ______ ____
ROOT
ATOM      1  N   UNL     1       4.961   5.991  17.801  0.00  0.00    +0.000 NA
ENDROOT
BRANCH   1   2
ATOM      2  S   UNL     1       4.766   4.308  17.367  0.00  0.00    +0.000 S 
ATOM      3  O   UNL     1       4.194   4.169  16.049  0.00  0.00    +0.000 OA
ATOM      4  O   UNL     1       6.022   3.672  17.695  0.00  0.00    +0.000 OA
BRANCH   2   5
ATOM      5  C   UNL     1       3.515   3.734  18.448  0.00  0.00    +0.000 A 
ATOM      6  C   UNL     1       3.622   4.029  19.803  0.00  0.00    +0.000 A 
ATOM      7  F   UNL     1       4.713   4.631  20.294  0.00  0.00    +0.000 F 
ATOM      8  C   UNL     1       2.590   3.693  20.671  0.00  0.00    +0.000 A 
ATOM      9  F   UNL     1       2.697   3.978  21.976  0.00  0.00    +0.000 F 
ATOM     10  C   UNL     1       1.450   3.066  20.188  0.00  0.00    +0.000 A 
ATOM     11  F   UNL     1       0.457   2.739  21.024  0.00  0.00    +0.000 F 
ATOM     12  C   UNL     1       1.345   2.773  18.834  0.00  0.00    +0.000 A 
ATOM     13  F   UNL     1       0.247   2.168  18.365  0.00  0.00    +0.000 F 
ATOM     14  C   UNL     1       2.373   3.109  17.961  0.00  0.00    +0.000 A 
ATOM     15  F   UNL     1       2.226   2.828  16.661  0.00  0.00    +0.000 F 
ENDBRANCH   2   5
ENDBRANCH   1   2
BRANCH   1  16
ATOM     16  C   UNL     1       6.373   6.444  17.511  0.00  0.00    +0.000 C 
BRANCH  16  18
ATOM     17  O   UNL     1       8.303   7.270  18.689  0.00  0.00    +0.000 OA
ATOM     18  C   UNL     1       7.370   6.466  18.645  0.00  0.00    +0.000 C 
ATOM     19  N   UNL     1       7.233   5.484  19.587  0.00  0.00    +0.000 N 
ATOM     20  H   UNL     1       6.637   4.671  19.471  0.00  0.00    +0.000 HD
BRANCH  19  21
ATOM     21  O   UNL     1       8.264   5.400  20.553  0.00  0.00    +0.000 OA
ATOM     22  H   UNL     1       7.894   5.898  21.315  0.00  0.00    +0.000 HD
ENDBRANCH  19  21
ENDBRANCH  16  18
ENDBRANCH   1  16
BRANCH   1  23
ATOM     23  C   UNL     1       3.961   6.883  17.093  0.00  0.00    +0.000 C 
BRANCH  23  24
ATOM     24  C   UNL     1       2.915   7.494  18.002  0.00  0.00    +0.000 A 
ATOM     25  C   UNL     1       2.258   8.682  17.640  0.00  0.00    +0.000 A 
ATOM     26  C   UNL     1       1.486   9.375  18.578  0.00  0.00    +0.000 A 
ATOM     27  C   UNL     1       1.359   8.870  19.878  0.00  0.00    +0.000 A 
ATOM     28  C   UNL     1       1.930   7.638  20.221  0.00  0.00    +0.000 A 
ATOM     29  C   UNL     1       2.698   6.949  19.280  0.00  0.00    +0.000 A 
BRANCH  27  30
ATOM     30  N   UNL     1       0.677   9.665  20.907  0.00  0.00    +0.000 N 
ATOM     31  O   UNL     1       0.293   9.078  21.929  0.00  0.00    +0.000 OA
ATOM     32  O   UNL     1       0.518  10.875  20.690  0.00  0.00    +0.000 OA
ENDBRANCH  27  30
ENDBRANCH  23  24
ENDBRANCH   1  23
TORSDOF 8
ENDMDL
MODEL 5
REMARK VINA RESULT:      -8.0      2.801      5.017
REMARK  Name = 
REMARK  8 active torsions:
REMARK  status: ('A' for Active; 'I' for Inactive)
REMARK    1  A    between atoms: C_2  and  C_3
REMARK    2  A    between atoms: C_3  and  N_4
REMARK    3  A    between atoms: N_4  and  C_5
REMARK    4  A    between atoms: N_4  and  S_15
REMARK    5  A    between atoms: C_5  and  C_6
REMARK    6  A    between atoms: C_9  and  N_10
REMARK    7  A    between atoms: S_15  and  C_18
REMARK    8  A    between atoms: N_29  and  O_30
REMARK                            x       y       z     vdW  Elec       q    Type
REMARK                         _______ _______ _______ _____ _____    ______ ____
ROOT
ATOM      1  N   UNL     1       2.780   5.049  17.995  0.00  0.00    +0.000 NA
ENDROOT
BRANCH   1   2
ATOM      2  S   UNL     1       4.216   4.254  17.388  0.00  0.00    +0.000 S 
ATOM      3  O   UNL     1       4.464   3.015  18.085  0.00  0.00    +0.000 OA
ATOM      4  O   UNL     1       4.096   4.278  15.948  0.00  0.00    +0.000 OA
BRANCH   2   5
ATOM      5  C   UNL     1       5.524   5.305  17.887  0.00  0.00    +0.000 A 
ATOM      6  C   UNL     1       6.264   4.955  19.012  0.00  0.00    +0.000 A 
ATOM      7  F   UNL     1       5.912   3.907  19.771  0.00  0.00    +0.000 F 
ATOM      8  C   UNL     1       7.382   5.699  19.367  0.00  0.00    +0.000 A 
ATOM      9  F   UNL     1       8.092   5.359  20.452  0.00  0.00    +0.000 F 
ATOM     10  C   UNL     1       7.766   6.790  18.601  0.00  0.00    +0.000 A 
ATOM     11  F   UNL     1       8.841   7.508  18.944  0.00  0.00    +0.000 F 
ATOM     12  C   UNL     1       7.026   7.137  17.477  0.00  0.00    +0.000 A 
ATOM     13  F   UNL     1       7.393   8.189  16.735  0.00  0.00    +0.000 F 
ATOM     14  C   UNL     1       5.909   6.394  17.115  0.00  0.00    +0.000 A 
ATOM     15  F   UNL     1       5.233   6.748  16.015  0.00  0.00    +0.000 F 
ENDBRANCH   2   5
ENDBRANCH   1   2
BRANCH   1  16
ATOM     16  C   UNL     1       1.784   4.023  18.482  0.00  0.00    +0.000 C 
BRANCH  16  18
ATOM     17  O   UNL     1       0.834   4.325  20.673  0.00  0.00    +0.000 OA
ATOM     18  C   UNL     1       1.677   3.771  19.968  0.00  0.00    +0.000 C 
ATOM     19  N   UNL     1       2.630   2.952  20.509  0.00  0.00    +0.000 N 
ATOM     20  H   UNL     1       3.471   2.666  20.020  0.00  0.00    +0.000 HD
BRANCH  19  21
ATOM     21  O   UNL     1       2.635   2.851  21.920  0.00  0.00    +0.000 OA
ATOM     22  H   UNL     1       3.166   3.630  22.196  0.00  0.00    +0.000 HD
ENDBRANCH  19  21
ENDBRANCH  16  18
ENDBRANCH   1  16
BRANCH   1  23
ATOM     23  C   UNL     1       3.100   6.042  19.095  0.00  0.00    +0.000 C 
BRANCH  23  24
ATOM     24  C   UNL     1       2.302   7.328  19.025  0.00  0.00    +0.000 A 
ATOM     25  C   UNL     1       2.291   8.101  17.852  0.00  0.00    +0.000 A 
ATOM     26  C   UNL     1       1.769   9.398  17.867  0.00  0.00    +0.000 A 
ATOM     27  C   UNL     1       1.242   9.918  19.056  0.00  0.00    +0.000 A 
ATOM     28  C   UNL     1       1.160   9.122  20.205  0.00  0.00    +0.000 A 
ATOM     29  C   UNL     1       1.681   7.827  20.184  0.00  0.00    +0.000 A 
BRANCH  27  30
ATOM     30  N   UNL     1       0.830  11.326  19.117  0.00  0.00    +0.000 N 
ATOM     31  O   UNL     1      -0.362  11.589  18.901  0.00  0.00    +0.000 OA
ATOM     32  O   UNL     1       1.700  12.172  19.373  0.00  0.00    +0.000 OA
ENDBRANCH  27  30
ENDBRANCH  23  24
ENDBRANCH   1  23
TORSDOF 8
ENDMDL
MODEL 6
REMARK VINA RESULT:      -8.0      2.784      5.083
REMARK  Name = 
REMARK  8 active torsions:
REMARK  status: ('A' for Active; 'I' for Inactive)
REMARK    1  A    between atoms: C_2  and  C_3
REMARK    2  A    between atoms: C_3  and  N_4
REMARK    3  A    between atoms: N_4  and  C_5
REMARK    4  A    between atoms: N_4  and  S_15
REMARK    5  A    between atoms: C_5  and  C_6
REMARK    6  A    between atoms: C_9  and  N_10
REMARK    7  A    between atoms: S_15  and  C_18
REMARK    8  A    between atoms: N_29  and  O_30
REMARK                            x       y       z     vdW  Elec       q    Type
REMARK                         _______ _______ _______ _____ _____    ______ ____
ROOT
ATOM      1  N   UNL     1       2.733   5.104  18.135  0.00  0.00    +0.000 NA
ENDROOT
BRANCH   1   2
ATOM      2  S   UNL     1       4.132   4.313  17.443  0.00  0.00    +0.000 S 
ATOM      3  O   UNL     1       4.394   3.049  18.089  0.00  0.00    +0.000 OA
ATOM      4  O   UNL     1       3.953   4.384  16.010  0.00  0.00    +0.000 OA
BRANCH   2   5
ATOM      5  C   UNL     1       5.473   5.332  17.919  0.00  0.00    +0.000 A 
ATOM      6  C   UNL     1       6.222   4.966  19.033  0.00  0.00    +0.000 A 
ATOM      7  F   UNL     1       5.858   3.928  19.798  0.00  0.00    +0.000 F 
ATOM      8  C   UNL     1       7.364   5.683  19.369  0.00  0.00    +0.000 A 
ATOM      9  F   UNL     1       8.082   5.328  20.443  0.00  0.00    +0.000 F 
ATOM     10  C   UNL     1       7.761   6.764  18.595  0.00  0.00    +0.000 A 
ATOM     11  F   UNL     1       8.859   7.457  18.920  0.00  0.00    +0.000 F 
ATOM     12  C   UNL     1       7.011   7.128  17.483  0.00  0.00    +0.000 A 
ATOM     13  F   UNL     1       7.392   8.170  16.733  0.00  0.00    +0.000 F 
ATOM     14  C   UNL     1       5.871   6.412  17.140  0.00  0.00    +0.000 A 
ATOM     15  F   UNL     1       5.186   6.781  16.050  0.00  0.00    +0.000 F 
ENDBRANCH   2   5
ENDBRANCH   1   2
BRANCH   1  16
ATOM     16  C   UNL     1       1.714   4.075  18.565  0.00  0.00    +0.000 C 
BRANCH  16  18
ATOM     17  O   UNL     1       0.794   4.212  20.785  0.00  0.00    +0.000 OA
ATOM     18  C   UNL     1       1.628   3.713  20.029  0.00  0.00    +0.000 C 
ATOM     19  N   UNL     1       2.589   2.859  20.495  0.00  0.00    +0.000 N 
ATOM     20  H   UNL     1       3.424   2.612  19.974  0.00  0.00    +0.000 HD
BRANCH  19  21
ATOM     21  O   UNL     1       2.614   2.654  21.895  0.00  0.00    +0.000 OA
ATOM     22  H   UNL     1       3.563   2.479  22.077  0.00  0.00    +0.000 HD
ENDBRANCH  19  21
ENDBRANCH  16  18
ENDBRANCH   1  16
BRANCH   1  23
ATOM     23  C   UNL     1       3.103   6.003  19.298  0.00  0.00    +0.000 C 
BRANCH  23  24
ATOM     24  C   UNL     1       2.432   7.360  19.275  0.00  0.00    +0.000 A 
ATOM     25  C   UNL     1       1.763   7.847  20.411  0.00  0.00    +0.000 A 
ATOM     26  C   UNL     1       0.938   8.972  20.316  0.00  0.00    +0.000 A 
ATOM     27  C   UNL     1       0.794   9.621  19.083  0.00  0.00    +0.000 A 
ATOM     28  C   UNL     1       1.531   9.203  17.969  0.00  0.00    +0.000 A 
ATOM     29  C   UNL     1       2.354   8.080  18.070  0.00  0.00    +0.000 A 
BRANCH  27  30
ATOM     30  N   UNL     1      -0.183  10.708  18.941  0.00  0.00    +0.000 N 
ATOM     31  O   UNL     1      -1.319  10.528  19.404  0.00  0.00    +0.000 OA
ATOM     32  O   UNL     1       0.181  11.740  18.359  0.00  0.00    +0.000 OA
ENDBRANCH  27  30
ENDBRANCH  23  24
ENDBRANCH   1  23
TORSDOF 8
ENDMDL
MODEL 7
REMARK VINA RESULT:      -7.9      2.813      5.154
REMARK  Name = 
REMARK  8 active torsions:
REMARK  status: ('A' for Active; 'I' for Inactive)
REMARK    1  A    between atoms: C_2  and  C_3
REMARK    2  A    between atoms: C_3  and  N_4
REMARK    3  A    between atoms: N_4  and  C_5
REMARK    4  A    between atoms: N_4  and  S_15
REMARK    5  A    between atoms: C_5  and  C_6
REMARK    6  A    between atoms: C_9  and  N_10
REMARK    7  A    between atoms: S_15  and  C_18
REMARK    8  A    between atoms: N_29  and  O_30
REMARK                            x       y       z     vdW  Elec       q    Type
REMARK                         _______ _______ _______ _____ _____    ______ ____
ROOT
ATOM      1  N   UNL     1       2.752   5.277  17.827  0.00  0.00    +0.000 NA
ENDROOT
BRANCH   1   2
ATOM      2  S   UNL     1       4.177   4.311  17.514  0.00  0.00    +0.000 S 
ATOM      3  O   UNL     1       4.272   3.203  18.434  0.00  0.00    +0.000 OA
ATOM      4  O   UNL     1       4.192   4.087  16.086  0.00  0.00    +0.000 OA
BRANCH   2   5
ATOM      5  C   UNL     1       5.505   5.361  17.959  0.00  0.00    +0.000 A 
ATOM      6  C   UNL     1       6.313   4.992  19.029  0.00  0.00    +0.000 A 
ATOM      7  F   UNL     1       6.016   3.924  19.782  0.00  0.00    +0.000 F 
ATOM      8  C   UNL     1       7.446   5.737  19.334  0.00  0.00    +0.000 A 
ATOM      9  F   UNL     1       8.221   5.378  20.367  0.00  0.00    +0.000 F 
ATOM     10  C   UNL     1       7.774   6.849  18.572  0.00  0.00    +0.000 A 
ATOM     11  F   UNL     1       8.863   7.569  18.868  0.00  0.00    +0.000 F 
ATOM     12  C   UNL     1       6.966   7.215  17.503  0.00  0.00    +0.000 A 
ATOM     13  F   UNL     1       7.281   8.287  16.765  0.00  0.00    +0.000 F 
ATOM     14  C   UNL     1       5.835   6.471  17.191  0.00  0.00    +0.000 A 
ATOM     15  F   UNL     1       5.092   6.845  16.142  0.00  0.00    +0.000 F 
ENDBRANCH   2   5
ENDBRANCH   1   2
BRANCH   1  16
ATOM     16  C   UNL     1       1.512   4.418  17.736  0.00  0.00    +0.000 C 
BRANCH  16  18
ATOM     17  O   UNL     1       1.192   2.172  18.540  0.00  0.00    +0.000 OA
ATOM     18  C   UNL     1       1.279   3.373  18.801  0.00  0.00    +0.000 C 
ATOM     19  N   UNL     1       1.084   3.841  20.071  0.00  0.00    +0.000 N 
ATOM     20  H   UNL     1       0.913   4.816  20.293  0.00  0.00    +0.000 HD
BRANCH  19  21
ATOM     21  O   UNL     1       0.698   2.880  21.035  0.00  0.00    +0.000 OA
ATOM     22  H   UNL     1       1.518   2.356  21.168  0.00  0.00    +0.000 HD
ENDBRANCH  19  21
ENDBRANCH  16  18
ENDBRANCH   1  16
BRANCH   1  23
ATOM     23  C   UNL     1       2.818   5.973  19.171  0.00  0.00    +0.000 C 
BRANCH  23  24
ATOM     24  C   UNL     1       2.348   7.412  19.153  0.00  0.00    +0.000 A 
ATOM     25  C   UNL     1       1.680   7.962  20.260  0.00  0.00    +0.000 A 
ATOM     26  C   UNL     1       1.030   9.195  20.152  0.00  0.00    +0.000 A 
ATOM     27  C   UNL     1       1.061   9.888  18.935  0.00  0.00    +0.000 A 
ATOM     28  C   UNL     1       1.804   9.397  17.855  0.00  0.00    +0.000 A 
ATOM     29  C   UNL     1       2.453   8.166  17.970  0.00  0.00    +0.000 A 
BRANCH  27  30
ATOM     30  N   UNL     1       0.258  11.107  18.769  0.00  0.00    +0.000 N 
ATOM     31  O   UNL     1       0.773  12.186  19.098  0.00  0.00    +0.000 OA
ATOM     32  O   UNL     1      -0.890  10.986  18.318  0.00  0.00    +0.000 OA
ENDBRANCH  27  30
ENDBRANCH  23  24
ENDBRANCH   1  23
TORSDOF 8
ENDMDL
MODEL 8
REMARK VINA RESULT:      -7.9      1.361      1.762
REMARK  Name = 
REMARK  8 active torsions:
REMARK  status: ('A' for Active; 'I' for Inactive)
REMARK    1  A    between atoms: C_2  and  C_3
REMARK    2  A    between atoms: C_3  and  N_4
REMARK    3  A    between atoms: N_4  and  C_5
REMARK    4  A    between atoms: N_4  and  S_15
REMARK    5  A    between atoms: C_5  and  C_6
REMARK    6  A    between atoms: C_9  and  N_10
REMARK    7  A    between atoms: S_15  and  C_18
REMARK    8  A    between atoms: N_29  and  O_30
REMARK                            x       y       z     vdW  Elec       q    Type
REMARK                         _______ _______ _______ _____ _____    ______ ____
ROOT
ATOM      1  N   UNL     1       4.447   6.172  17.689  0.00  0.00    +0.000 NA
ENDROOT
BRANCH   1   2
ATOM      2  S   UNL     1       4.612   4.440  17.507  0.00  0.00    +0.000 S 
ATOM      3  O   UNL     1       4.179   4.006  16.200  0.00  0.00    +0.000 OA
ATOM      4  O   UNL     1       5.937   4.121  17.987  0.00  0.00    +0.000 OA
BRANCH   2   5
ATOM      5  C   UNL     1       3.415   3.784  18.602  0.00  0.00    +0.000 A 
ATOM      6  C   UNL     1       3.434   4.196  19.930  0.00  0.00    +0.000 A 
ATOM      7  F   UNL     1       4.415   4.982  20.395  0.00  0.00    +0.000 F 
ATOM      8  C   UNL     1       2.428   3.789  20.799  0.00  0.00    +0.000 A 
ATOM      9  F   UNL     1       2.450   4.188  22.078  0.00  0.00    +0.000 F 
ATOM     10  C   UNL     1       1.402   2.973  20.344  0.00  0.00    +0.000 A 
ATOM     11  F   UNL     1       0.435   2.579  21.181  0.00  0.00    +0.000 F 
ATOM     12  C   UNL     1       1.385   2.563  19.017  0.00  0.00    +0.000 A 
ATOM     13  F   UNL     1       0.397   1.776  18.574  0.00  0.00    +0.000 F 
ATOM     14  C   UNL     1       2.386   2.970  18.143  0.00  0.00    +0.000 A 
ATOM     15  F   UNL     1       2.325   2.570  16.867  0.00  0.00    +0.000 F 
ENDBRANCH   2   5
ENDBRANCH   1   2
BRANCH   1  16
ATOM     16  C   UNL     1       5.459   6.885  16.822  0.00  0.00    +0.000 C 
BRANCH  16  18
ATOM     17  O   UNL     1       7.841   6.985  16.483  0.00  0.00    +0.000 OA
ATOM     18  C   UNL     1       6.900   6.917  17.275  0.00  0.00    +0.000 C 
ATOM     19  N   UNL     1       7.111   6.780  18.620  0.00  0.00    +0.000 N 
ATOM     20  H   UNL     1       6.395   6.488  19.276  0.00  0.00    +0.000 HD
BRANCH  19  21
ATOM     21  O   UNL     1       8.459   6.639  19.026  0.00  0.00    +0.000 OA
ATOM     22  H   UNL     1       8.954   7.112  18.321  0.00  0.00    +0.000 HD
ENDBRANCH  19  21
ENDBRANCH  16  18
ENDBRANCH   1  16
BRANCH   1  23
ATOM     23  C   UNL     1       3.045   6.649  17.368  0.00  0.00    +0.000 C 
BRANCH  23  24
ATOM     24  C   UNL     1       2.510   7.698  18.321  0.00  0.00    +0.000 A 
ATOM     25  C   UNL     1       2.270   7.384  19.670  0.00  0.00    +0.000 A 
ATOM     26  C   UNL     1       1.549   8.264  20.482  0.00  0.00    +0.000 A 
ATOM     27  C   UNL     1       1.078   9.470  19.947  0.00  0.00    +0.000 A 
ATOM     28  C   UNL     1       1.393   9.836  18.633  0.00  0.00    +0.000 A 
ATOM     29  C   UNL     1       2.116   8.954  17.827  0.00  0.00    +0.000 A 
BRANCH  27  30
ATOM     30  N   UNL     1       0.194  10.327  20.747  0.00  0.00    +0.000 N 
ATOM     31  O   UNL     1       0.553  10.610  21.899  0.00  0.00    +0.000 OA
ATOM     32  O   UNL     1      -0.863  10.712  20.227  0.00  0.00    +0.000 OA
ENDBRANCH  27  30
ENDBRANCH  23  24
ENDBRANCH   1  23
TORSDOF 8
ENDMDL
MODEL 9
REMARK VINA RESULT:      -7.9      2.775      5.327
REMARK  Name = 
REMARK  8 active torsions:
REMARK  status: ('A' for Active; 'I' for Inactive)
REMARK    1  A    between atoms: C_2  and  C_3
REMARK    2  A    between atoms: C_3  and  N_4
REMARK    3  A    between atoms: N_4  and  C_5
REMARK    4  A    between atoms: N_4  and  S_15
REMARK    5  A    between atoms: C_5  and  C_6
REMARK    6  A    between atoms: C_9  and  N_10
REMARK    7  A    between atoms: S_15  and  C_18
REMARK    8  A    between atoms: N_29  and  O_30
REMARK                            x       y       z     vdW  Elec       q    Type
REMARK                         _______ _______ _______ _____ _____    ______ ____
ROOT
ATOM      1  N   UNL     1       2.760   5.044  17.982  0.00  0.00    +0.000 NA
ENDROOT
BRANCH   1   2
ATOM      2  S   UNL     1       4.089   4.104  17.342  0.00  0.00    +0.000 S 
ATOM      3  O   UNL     1       4.247   2.862  18.061  0.00  0.00    +0.000 OA
ATOM      4  O   UNL     1       3.915   4.107  15.907  0.00  0.00    +0.000 OA
BRANCH   2   5
ATOM      5  C   UNL     1       5.509   5.035  17.764  0.00  0.00    +0.000 A 
ATOM      6  C   UNL     1       5.842   6.132  16.976  0.00  0.00    +0.000 A 
ATOM      7  F   UNL     1       5.168   6.403  15.850  0.00  0.00    +0.000 F 
ATOM      8  C   UNL     1       6.891   6.964  17.349  0.00  0.00    +0.000 A 
ATOM      9  F   UNL     1       7.209   8.019  16.586  0.00  0.00    +0.000 F 
ATOM     10  C   UNL     1       7.607   6.704  18.509  0.00  0.00    +0.000 A 
ATOM     11  F   UNL     1       8.620   7.503  18.867  0.00  0.00    +0.000 F 
ATOM     12  C   UNL     1       7.273   5.608  19.295  0.00  0.00    +0.000 A 
ATOM     13  F   UNL     1       7.962   5.355  20.415  0.00  0.00    +0.000 F 
ATOM     14  C   UNL     1       6.222   4.776  18.928  0.00  0.00    +0.000 A 
ATOM     15  F   UNL     1       5.918   3.741  19.722  0.00  0.00    +0.000 F 
ENDBRANCH   2   5
ENDBRANCH   1   2
BRANCH   1  16
ATOM     16  C   UNL     1       1.641   4.131  18.423  0.00  0.00    +0.000 C 
BRANCH  16  18
ATOM     17  O   UNL     1       0.695   4.466  20.612  0.00  0.00    +0.000 OA
ATOM     18  C   UNL     1       1.484   3.845  19.899  0.00  0.00    +0.000 C 
ATOM     19  N   UNL     1       2.332   2.909  20.424  0.00  0.00    +0.000 N 
ATOM     20  H   UNL     1       3.145   2.548  19.936  0.00  0.00    +0.000 HD
BRANCH  19  21
ATOM     21  O   UNL     1       2.303   2.765  21.831  0.00  0.00    +0.000 OA
ATOM     22  H   UNL     1       2.422   3.686  22.151  0.00  0.00    +0.000 HD
ENDBRANCH  19  21
ENDBRANCH  16  18
ENDBRANCH   1  16
BRANCH   1  23
ATOM     23  C   UNL     1       3.194   5.942  19.123  0.00  0.00    +0.000 C 
BRANCH  23  24
ATOM     24  C   UNL     1       2.549   7.312  19.119  0.00  0.00    +0.000 A 
ATOM     25  C   UNL     1       1.866   7.786  20.252  0.00  0.00    +0.000 A 
ATOM     26  C   UNL     1       1.065   8.928  20.167  0.00  0.00    +0.000 A 
ATOM     27  C   UNL     1       0.959   9.609  18.948  0.00  0.00    +0.000 A 
ATOM     28  C   UNL     1       1.711   9.203  17.839  0.00  0.00    +0.000 A 
ATOM     29  C   UNL     1       2.511   8.062  17.930  0.00  0.00    +0.000 A 
BRANCH  27  30
ATOM     30  N   UNL     1       0.006  10.718  18.812  0.00  0.00    +0.000 N 
ATOM     31  O   UNL     1      -0.928  10.580  18.008  0.00  0.00    +0.000 OA
ATOM     32  O   UNL     1       0.195  11.731  19.501  0.00  0.00    +0.000 OA
ENDBRANCH  27  30
ENDBRANCH  23  24
ENDBRANCH   1  23
TORSDOF 8
ENDMDL
