MODEL 1
REMARK VINA RESULT:      -9.3      0.000      0.000
REMARK  Name = 
REMARK  4 active torsions:
REMARK  status: ('A' for Active; 'I' for Inactive)
REMARK    1  A    between atoms: C_1  and  N_2
REMARK    2  A    between atoms: C_5  and  C_6
REMARK    3  A    between atoms: C_8  and  C_9
REMARK    4  A    between atoms: N_15  and  C_16
REMARK                            x       y       z     vdW  Elec       q    Type
REMARK                         _______ _______ _______ _____ _____    ______ ____
ROOT
ATOM      1  C   UNL     1       1.780   7.274  20.111  0.00  0.00    +0.000 A 
ATOM      2  C   UNL     1       1.453   5.963  20.611  0.00  0.00    +0.000 A 
ATOM      3  C   UNL     1       1.983   4.748  20.099  0.00  0.00    +0.000 A 
ATOM      4  C   UNL     1       2.865   4.943  19.036  0.00  0.00    +0.000 A 
ATOM      5  N   UNL     1       3.545   4.030  18.335  0.00  0.00    +0.000 NA
ATOM      6  N   UNL     1       4.419   4.729  17.596  0.00  0.00    +0.000 N 
ATOM      7  C   UNL     1       4.171   6.084  17.605  0.00  0.00    +0.000 A 
ATOM      8  C   UNL     1       3.195   6.261  18.558  0.00  0.00    +0.000 A 
ATOM      9  C   UNL     1       2.693   7.473  19.038  0.00  0.00    +0.000 A 
ENDROOT
BRANCH   1  14
ATOM     10  C   UNL     1      -0.544  11.596  19.693  0.00  0.00    +0.000 C 
ATOM     11  N   UNL     1       0.009  10.558  20.544  0.00  0.00    +0.000 N 
ATOM     12  C   UNL     1       0.593   9.435  19.979  0.00  0.00    +0.000 A 
ATOM     13  F   UNL     1       0.680   9.343  18.633  0.00  0.00    +0.000 F 
ATOM     14  C   UNL     1       1.097   8.437  20.740  0.00  0.00    +0.000 A 
ATOM     15  C   UNL     1       1.019   8.576  22.186  0.00  0.00    +0.000 A 
ATOM     16  C   UNL     1       0.477   9.662  22.756  0.00  0.00    +0.000 A 
ATOM     17  C   UNL     1      -0.084  10.745  21.920  0.00  0.00    +0.000 A 
ATOM     18  O   UNL     1      -0.582  11.731  22.461  0.00  0.00    +0.000 OA
ENDBRANCH   1  14
BRANCH   6  19
ATOM     19  C   UNL     1       5.631   4.065  17.107  0.00  0.00    +0.000 C 
ATOM     20  C   UNL     1       6.969   4.711  17.543  0.00  0.00    +0.000 C 
ATOM     21  C   UNL     1       7.423   5.897  16.679  0.00  0.00    +0.000 C 
ATOM     22  N   UNL     1       7.293   5.655  15.242  0.00  0.00    +0.000 NA
ATOM     23  C   UNL     1       5.924   5.279  14.906  0.00  0.00    +0.000 C 
ATOM     24  C   UNL     1       5.570   3.953  15.576  0.00  0.00    +0.000 C 
ATOM     25  H   UNL     1       7.940   4.926  14.947  0.00  0.00    +0.000 HD
ENDBRANCH   6  19
BRANCH   3  26
ATOM     26  C   UNL     1       1.720   3.391  20.654  0.00  0.00    +0.000 C 
ATOM     27  F   UNL     1       1.159   3.433  21.897  0.00  0.00    +0.000 F 
ATOM     28  F   UNL     1       0.865   2.652  19.895  0.00  0.00    +0.000 F 
ATOM     29  F   UNL     1       2.851   2.646  20.797  0.00  0.00    +0.000 F 
ENDBRANCH   3  26
TORSDOF 3
ENDMDL
MODEL 2
REMARK VINA RESULT:      -9.1      3.037      4.547
REMARK  Name = 
REMARK  4 active torsions:
REMARK  status: ('A' for Active; 'I' for Inactive)
REMARK    1  A    between atoms: C_1  and  N_2
REMARK    2  A    between atoms: C_5  and  C_6
REMARK    3  A    between atoms: C_8  and  C_9
REMARK    4  A    between atoms: N_15  and  C_16
REMARK                            x       y       z     vdW  Elec       q    Type
REMARK                         _______ _______ _______ _____ _____    ______ ____
ROOT
ATOM      1  C   UNL     1       1.796   8.846  18.919  0.00  0.00    +0.000 A 
ATOM      2  C   UNL     1       2.762   8.435  17.933  0.00  0.00    +0.000 A 
ATOM      3  C   UNL     1       3.459   7.196  17.953  0.00  0.00    +0.000 A 
ATOM      4  C   UNL     1       3.121   6.398  19.046  0.00  0.00    +0.000 A 
ATOM      5  N   UNL     1       3.574   5.181  19.366  0.00  0.00    +0.000 NA
ATOM      6  N   UNL     1       2.777   4.756  20.358  0.00  0.00    +0.000 N 
ATOM      7  C   UNL     1       1.971   5.750  20.867  0.00  0.00    +0.000 A 
ATOM      8  C   UNL     1       2.141   6.817  20.015  0.00  0.00    +0.000 A 
ATOM      9  C   UNL     1       1.439   8.025  20.024  0.00  0.00    +0.000 A 
ENDROOT
BRANCH   1  14
ATOM     10  C   UNL     1      -2.173  11.709  18.358  0.00  0.00    +0.000 C 
ATOM     11  N   UNL     1      -0.729  11.587  18.446  0.00  0.00    +0.000 N 
ATOM     12  C   UNL     1      -0.149  10.346  18.654  0.00  0.00    +0.000 A 
ATOM     13  F   UNL     1      -0.938   9.252  18.728  0.00  0.00    +0.000 F 
ATOM     14  C   UNL     1       1.192  10.197  18.764  0.00  0.00    +0.000 A 
ATOM     15  C   UNL     1       2.021  11.388  18.649  0.00  0.00    +0.000 A 
ATOM     16  C   UNL     1       1.484  12.595  18.428  0.00  0.00    +0.000 A 
ATOM     17  C   UNL     1       0.018  12.755  18.320  0.00  0.00    +0.000 A 
ATOM     18  O   UNL     1      -0.457  13.872  18.123  0.00  0.00    +0.000 OA
ENDBRANCH   1  14
BRANCH   6  19
ATOM     19  C   UNL     1       2.651   3.316  20.603  0.00  0.00    +0.000 C 
ATOM     20  C   UNL     1       3.613   2.413  19.793  0.00  0.00    +0.000 C 
ATOM     21  C   UNL     1       3.142   2.084  18.369  0.00  0.00    +0.000 C 
ATOM     22  N   UNL     1       1.730   1.706  18.294  0.00  0.00    +0.000 NA
ATOM     23  C   UNL     1       0.889   2.744  18.879  0.00  0.00    +0.000 C 
ATOM     24  C   UNL     1       1.195   2.885  20.369  0.00  0.00    +0.000 C 
ATOM     25  H   UNL     1       1.577   0.819  18.772  0.00  0.00    +0.000 HD
ENDBRANCH   6  19
BRANCH   3  26
ATOM     26  C   UNL     1       4.399   6.719  16.901  0.00  0.00    +0.000 C 
ATOM     27  F   UNL     1       4.298   7.435  15.744  0.00  0.00    +0.000 F 
ATOM     28  F   UNL     1       5.708   6.804  17.267  0.00  0.00    +0.000 F 
ATOM     29  F   UNL     1       4.182   5.423  16.541  0.00  0.00    +0.000 F 
ENDBRANCH   3  26
TORSDOF 3
ENDMDL
MODEL 3
REMARK VINA RESULT:      -9.0      1.046      1.295
REMARK  Name = 
REMARK  4 active torsions:
REMARK  status: ('A' for Active; 'I' for Inactive)
REMARK    1  A    between atoms: C_1  and  N_2
REMARK    2  A    between atoms: C_5  and  C_6
REMARK    3  A    between atoms: C_8  and  C_9
REMARK    4  A    between atoms: N_15  and  C_16
REMARK                            x       y       z     vdW  Elec       q    Type
REMARK                         _______ _______ _______ _____ _____    ______ ____
ROOT
ATOM      1  C   UNL     1       1.457   7.748  20.278  0.00  0.00    +0.000 A 
ATOM      2  C   UNL     1       1.456   6.389  20.756  0.00  0.00    +0.000 A 
ATOM      3  C   UNL     1       2.083   5.299  20.094  0.00  0.00    +0.000 A 
ATOM      4  C   UNL     1       2.708   5.671  18.903  0.00  0.00    +0.000 A 
ATOM      5  N   UNL     1       3.392   4.909  18.044  0.00  0.00    +0.000 NA
ATOM      6  N   UNL     1       3.983   5.770  17.200  0.00  0.00    +0.000 N 
ATOM      7  C   UNL     1       3.513   7.058  17.327  0.00  0.00    +0.000 A 
ATOM      8  C   UNL     1       2.714   7.037  18.446  0.00  0.00    +0.000 A 
ATOM      9  C   UNL     1       2.109   8.130  19.073  0.00  0.00    +0.000 A 
ENDROOT
BRANCH   1  14
ATOM     10  C   UNL     1      -1.392  11.759  20.509  0.00  0.00    +0.000 C 
ATOM     11  N   UNL     1      -0.633  10.731  21.197  0.00  0.00    +0.000 N 
ATOM     12  C   UNL     1       0.015   9.744  20.472  0.00  0.00    +0.000 A 
ATOM     13  F   UNL     1      -0.031   9.779  19.122  0.00  0.00    +0.000 F 
ATOM     14  C   UNL     1       0.713   8.756  21.080  0.00  0.00    +0.000 A 
ATOM     15  C   UNL     1       0.773   8.761  22.534  0.00  0.00    +0.000 A 
ATOM     16  C   UNL     1       0.172   9.716  23.256  0.00  0.00    +0.000 A 
ATOM     17  C   UNL     1      -0.599  10.787  22.588  0.00  0.00    +0.000 A 
ATOM     18  O   UNL     1      -1.150  11.651  23.268  0.00  0.00    +0.000 OA
ENDBRANCH   1  14
BRANCH   6  19
ATOM     19  C   UNL     1       5.180   5.343  16.469  0.00  0.00    +0.000 C 
ATOM     20  C   UNL     1       6.040   4.263  17.168  0.00  0.00    +0.000 C 
ATOM     21  C   UNL     1       7.027   4.803  18.215  0.00  0.00    +0.000 C 
ATOM     22  N   UNL     1       7.763   5.985  17.767  0.00  0.00    +0.000 NA
ATOM     23  C   UNL     1       6.842   7.036  17.348  0.00  0.00    +0.000 C 
ATOM     24  C   UNL     1       6.039   6.572  16.135  0.00  0.00    +0.000 C 
ATOM     25  H   UNL     1       8.389   5.741  17.000  0.00  0.00    +0.000 HD
ENDBRANCH   6  19
BRANCH   3  26
ATOM     26  C   UNL     1       2.162   3.905  20.612  0.00  0.00    +0.000 C 
ATOM     27  F   UNL     1       1.957   3.835  21.959  0.00  0.00    +0.000 F 
ATOM     28  F   UNL     1       1.239   3.069  20.061  0.00  0.00    +0.000 F 
ATOM     29  F   UNL     1       3.378   3.328  20.404  0.00  0.00    +0.000 F 
ENDBRANCH   3  26
TORSDOF 3
ENDMDL
MODEL 4
REMARK VINA RESULT:      -8.9      3.069      4.546
REMARK  Name = 
REMARK  4 active torsions:
REMARK  status: ('A' for Active; 'I' for Inactive)
REMARK    1  A    between atoms: C_1  and  N_2
REMARK    2  A    between atoms: C_5  and  C_6
REMARK    3  A    between atoms: C_8  and  C_9
REMARK    4  A    between atoms: N_15  and  C_16
REMARK                            x       y       z     vdW  Elec       q    Type
REMARK                         _______ _______ _______ _____ _____    ______ ____
ROOT
ATOM      1  C   UNL     1       1.763   8.690  18.817  0.00  0.00    +0.000 A 
ATOM      2  C   UNL     1       2.748   8.320  17.834  0.00  0.00    +0.000 A 
ATOM      3  C   UNL     1       3.509   7.120  17.864  0.00  0.00    +0.000 A 
ATOM      4  C   UNL     1       3.214   6.315  18.965  0.00  0.00    +0.000 A 
ATOM      5  N   UNL     1       3.730   5.127  19.295  0.00  0.00    +0.000 NA
ATOM      6  N   UNL     1       2.957   4.669  20.291  0.00  0.00    +0.000 N 
ATOM      7  C   UNL     1       2.101   5.624  20.792  0.00  0.00    +0.000 A 
ATOM      8  C   UNL     1       2.214   6.691  19.931  0.00  0.00    +0.000 A 
ATOM      9  C   UNL     1       1.450   7.861  19.930  0.00  0.00    +0.000 A 
ENDROOT
BRANCH   1  14
ATOM     10  C   UNL     1       2.019  13.547  18.043  0.00  0.00    +0.000 C 
ATOM     11  N   UNL     1       1.213  12.373  18.321  0.00  0.00    +0.000 N 
ATOM     12  C   UNL     1       1.812  11.126  18.416  0.00  0.00    +0.000 A 
ATOM     13  F   UNL     1       3.154  11.028  18.294  0.00  0.00    +0.000 F 
ATOM     14  C   UNL     1       1.089  10.006  18.651  0.00  0.00    +0.000 A 
ATOM     15  C   UNL     1      -0.350  10.145  18.811  0.00  0.00    +0.000 A 
ATOM     16  C   UNL     1      -0.949  11.342  18.743  0.00  0.00    +0.000 A 
ATOM     17  C   UNL     1      -0.158  12.562  18.474  0.00  0.00    +0.000 A 
ATOM     18  O   UNL     1      -0.727  13.650  18.409  0.00  0.00    +0.000 OA
ENDBRANCH   1  14
BRANCH   6  19
ATOM     19  C   UNL     1       2.906   3.227  20.549  0.00  0.00    +0.000 C 
ATOM     20  C   UNL     1       3.779   2.350  19.619  0.00  0.00    +0.000 C 
ATOM     21  C   UNL     1       3.133   2.004  18.269  0.00  0.00    +0.000 C 
ATOM     22  N   UNL     1       1.736   1.585  18.381  0.00  0.00    +0.000 NA
ATOM     23  C   UNL     1       0.949   2.600  19.073  0.00  0.00    +0.000 C 
ATOM     24  C   UNL     1       1.445   2.753  20.509  0.00  0.00    +0.000 C 
ATOM     25  H   UNL     1       1.673   0.695  18.873  0.00  0.00    +0.000 HD
ENDBRANCH   6  19
BRANCH   3  26
ATOM     26  C   UNL     1       4.472   6.683  16.815  0.00  0.00    +0.000 C 
ATOM     27  F   UNL     1       5.771   6.800  17.215  0.00  0.00    +0.000 F 
ATOM     28  F   UNL     1       4.320   5.380  16.451  0.00  0.00    +0.000 F 
ATOM     29  F   UNL     1       4.382   7.417  15.671  0.00  0.00    +0.000 F 
ENDBRANCH   3  26
TORSDOF 3
ENDMDL
MODEL 5
REMARK VINA RESULT:      -8.9      2.927      4.351
REMARK  Name = 
REMARK  4 active torsions:
REMARK  status: ('A' for Active; 'I' for Inactive)
REMARK    1  A    between atoms: C_1  and  N_2
REMARK    2  A    between atoms: C_5  and  C_6
REMARK    3  A    between atoms: C_8  and  C_9
REMARK    4  A    between atoms: N_15  and  C_16
REMARK                            x       y       z     vdW  Elec       q    Type
REMARK                         _______ _______ _______ _____ _____    ______ ____
ROOT
ATOM      1  C   UNL     1       1.475   8.501  19.395  0.00  0.00    +0.000 A 
ATOM      2  C   UNL     1       2.458   8.294  18.362  0.00  0.00    +0.000 A 
ATOM      3  C   UNL     1       3.296   7.151  18.261  0.00  0.00    +0.000 A 
ATOM      4  C   UNL     1       3.082   6.227  19.284  0.00  0.00    +0.000 A 
ATOM      5  N   UNL     1       3.682   5.050  19.487  0.00  0.00    +0.000 NA
ATOM      6  N   UNL     1       2.967   4.448  20.450  0.00  0.00    +0.000 N 
ATOM      7  C   UNL     1       2.063   5.291  21.057  0.00  0.00    +0.000 A 
ATOM      8  C   UNL     1       2.085   6.440  20.301  0.00  0.00    +0.000 A 
ATOM      9  C   UNL     1       1.246   7.551  20.428  0.00  0.00    +0.000 A 
ENDROOT
BRANCH   1  14
ATOM     10  C   UNL     1       0.065  12.673  21.600  0.00  0.00    +0.000 C 
ATOM     11  N   UNL     1      -0.010  11.784  20.455  0.00  0.00    +0.000 N 
ATOM     12  C   UNL     1       0.740  10.620  20.430  0.00  0.00    +0.000 A 
ATOM     13  F   UNL     1       1.503  10.303  21.500  0.00  0.00    +0.000 F 
ATOM     14  C   UNL     1       0.714   9.779  19.370  0.00  0.00    +0.000 A 
ATOM     15  C   UNL     1      -0.141  10.128  18.245  0.00  0.00    +0.000 A 
ATOM     16  C   UNL     1      -0.891  11.238  18.255  0.00  0.00    +0.000 A 
ATOM     17  C   UNL     1      -0.850  12.160  19.410  0.00  0.00    +0.000 A 
ATOM     18  O   UNL     1      -1.541  13.178  19.398  0.00  0.00    +0.000 OA
ENDBRANCH   1  14
BRANCH   6  19
ATOM     19  C   UNL     1       3.016   2.987  20.567  0.00  0.00    +0.000 C 
ATOM     20  C   UNL     1       4.013   2.274  19.622  0.00  0.00    +0.000 C 
ATOM     21  C   UNL     1       3.483   2.015  18.204  0.00  0.00    +0.000 C 
ATOM     22  N   UNL     1       2.120   1.484  18.179  0.00  0.00    +0.000 NA
ATOM     23  C   UNL     1       1.212   2.365  18.907  0.00  0.00    +0.000 C 
ATOM     24  C   UNL     1       1.604   2.412  20.382  0.00  0.00    +0.000 C 
ATOM     25  H   UNL     1       2.098   0.548  18.581  0.00  0.00    +0.000 HD
ENDBRANCH   6  19
BRANCH   3  26
ATOM     26  C   UNL     1       4.258   6.882  17.157  0.00  0.00    +0.000 C 
ATOM     27  F   UNL     1       4.051   7.685  16.074  0.00  0.00    +0.000 F 
ATOM     28  F   UNL     1       5.558   7.079  17.512  0.00  0.00    +0.000 F 
ATOM     29  F   UNL     1       4.178   5.609  16.679  0.00  0.00    +0.000 F 
ENDBRANCH   3  26
TORSDOF 3
ENDMDL
MODEL 6
REMARK VINA RESULT:      -8.7      1.038      1.620
REMARK  Name = 
REMARK  4 active torsions:
REMARK  status: ('A' for Active; 'I' for Inactive)
REMARK    1  A    between atoms: C_1  and  N_2
REMARK    2  A    between atoms: C_5  and  C_6
REMARK    3  A    between atoms: C_8  and  C_9
REMARK    4  A    between atoms: N_15  and  C_16
REMARK                            x       y       z     vdW  Elec       q    Type
REMARK                         _______ _______ _______ _____ _____    ______ ____
ROOT
ATOM      1  C   UNL     1       1.817   7.611  19.591  0.00  0.00    +0.000 A 
ATOM      2  C   UNL     1       1.611   6.420  20.374  0.00  0.00    +0.000 A 
ATOM      3  C   UNL     1       2.218   5.163  20.107  0.00  0.00    +0.000 A 
ATOM      4  C   UNL     1       3.046   5.184  18.984  0.00  0.00    +0.000 A 
ATOM      5  N   UNL     1       3.771   4.191  18.460  0.00  0.00    +0.000 NA
ATOM      6  N   UNL     1       4.562   4.774  17.546  0.00  0.00    +0.000 N 
ATOM      7  C   UNL     1       4.208   6.077  17.280  0.00  0.00    +0.000 A 
ATOM      8  C   UNL     1       3.254   6.388  18.220  0.00  0.00    +0.000 A 
ATOM      9  C   UNL     1       2.675   7.637  18.456  0.00  0.00    +0.000 A 
ENDROOT
BRANCH   1  14
ATOM     10  C   UNL     1      -0.445  10.289  23.051  0.00  0.00    +0.000 C 
ATOM     11  N   UNL     1      -0.072  10.114  21.659  0.00  0.00    +0.000 N 
ATOM     12  C   UNL     1       0.681   9.016  21.275  0.00  0.00    +0.000 A 
ATOM     13  F   UNL     1       1.024   8.093  22.201  0.00  0.00    +0.000 F 
ATOM     14  C   UNL     1       1.067   8.832  19.990  0.00  0.00    +0.000 A 
ATOM     15  C   UNL     1       0.658   9.825  19.008  0.00  0.00    +0.000 A 
ATOM     16  C   UNL     1      -0.088  10.883  19.352  0.00  0.00    +0.000 A 
ATOM     17  C   UNL     1      -0.497  11.087  20.758  0.00  0.00    +0.000 A 
ATOM     18  O   UNL     1      -1.176  12.068  21.056  0.00  0.00    +0.000 OA
ENDBRANCH   1  14
BRANCH   6  19
ATOM     19  C   UNL     1       5.806   4.106  17.150  0.00  0.00    +0.000 C 
ATOM     20  C   UNL     1       7.111   4.846  17.528  0.00  0.00    +0.000 C 
ATOM     21  C   UNL     1       7.536   5.945  16.541  0.00  0.00    +0.000 C 
ATOM     22  N   UNL     1       7.439   5.539  15.139  0.00  0.00    +0.000 NA
ATOM     23  C   UNL     1       6.090   5.075  14.831  0.00  0.00    +0.000 C 
ATOM     24  C   UNL     1       5.773   3.820  15.641  0.00  0.00    +0.000 C 
ATOM     25  H   UNL     1       8.117   4.806  14.936  0.00  0.00    +0.000 HD
ENDBRANCH   6  19
BRANCH   3  26
ATOM     26  C   UNL     1       2.081   3.943  20.951  0.00  0.00    +0.000 C 
ATOM     27  F   UNL     1       0.812   3.444  20.948  0.00  0.00    +0.000 F 
ATOM     28  F   UNL     1       2.877   2.914  20.547  0.00  0.00    +0.000 F 
ATOM     29  F   UNL     1       2.375   4.167  22.262  0.00  0.00    +0.000 F 
ENDBRANCH   3  26
TORSDOF 3
ENDMDL
MODEL 7
REMARK VINA RESULT:      -8.7      3.343      7.877
REMARK  Name = 
REMARK  4 active torsions:
REMARK  status: ('A' for Active; 'I' for Inactive)
REMARK    1  A    between atoms: C_1  and  N_2
REMARK    2  A    between atoms: C_5  and  C_6
REMARK    3  A    between atoms: C_8  and  C_9
REMARK    4  A    between atoms: N_15  and  C_16
REMARK                            x       y       z     vdW  Elec       q    Type
REMARK                         _______ _______ _______ _____ _____    ______ ____
ROOT
ATOM      1  C   UNL     1       1.947   7.439  19.873  0.00  0.00    +0.000 A 
ATOM      2  C   UNL     1       1.391   7.812  21.149  0.00  0.00    +0.000 A 
ATOM      3  C   UNL     1       0.800   9.073  21.434  0.00  0.00    +0.000 A 
ATOM      4  C   UNL     1       0.813   9.941  20.342  0.00  0.00    +0.000 A 
ATOM      5  N   UNL     1       0.336  11.187  20.259  0.00  0.00    +0.000 NA
ATOM      6  N   UNL     1       0.378  11.496  18.954  0.00  0.00    +0.000 N 
ATOM      7  C   UNL     1       1.093  10.587  18.207  0.00  0.00    +0.000 A 
ATOM      8  C   UNL     1       1.357   9.547  19.068  0.00  0.00    +0.000 A 
ATOM      9  C   UNL     1       1.944   8.318  18.755  0.00  0.00    +0.000 A 
ENDROOT
BRANCH   1  14
ATOM     10  C   UNL     1       1.730   2.573  20.604  0.00  0.00    +0.000 C 
ATOM     11  N   UNL     1       2.482   3.732  20.159  0.00  0.00    +0.000 N 
ATOM     12  C   UNL     1       1.903   4.990  20.192  0.00  0.00    +0.000 A 
ATOM     13  F   UNL     1       0.652   5.128  20.684  0.00  0.00    +0.000 F 
ATOM     14  C   UNL     1       2.565   6.090  19.764  0.00  0.00    +0.000 A 
ATOM     15  C   UNL     1       3.922   5.918  19.268  0.00  0.00    +0.000 A 
ATOM     16  C   UNL     1       4.511   4.714  19.246  0.00  0.00    +0.000 A 
ATOM     17  C   UNL     1       3.780   3.514  19.703  0.00  0.00    +0.000 A 
ATOM     18  O   UNL     1       4.335   2.417  19.669  0.00  0.00    +0.000 OA
ENDBRANCH   1  14
BRANCH   6  19
ATOM     19  C   UNL     1      -0.508  12.545  18.440  0.00  0.00    +0.000 C 
ATOM     20  C   UNL     1      -1.113  13.490  19.506  0.00  0.00    +0.000 C 
ATOM     21  C   UNL     1      -2.368  12.950  20.209  0.00  0.00    +0.000 C 
ATOM     22  N   UNL     1      -3.338  12.353  19.291  0.00  0.00    +0.000 NA
ATOM     23  C   UNL     1      -2.712  11.303  18.492  0.00  0.00    +0.000 C 
ATOM     24  C   UNL     1      -1.626  11.904  17.603  0.00  0.00    +0.000 C 
ATOM     25  H   UNL     1      -3.734  13.067  18.682  0.00  0.00    +0.000 HD
ENDBRANCH   6  19
BRANCH   3  26
ATOM     26  C   UNL     1       0.149   9.448  22.720  0.00  0.00    +0.000 C 
ATOM     27  F   UNL     1       0.958   9.238  23.798  0.00  0.00    +0.000 F 
ATOM     28  F   UNL     1      -0.206  10.761  22.783  0.00  0.00    +0.000 F 
ATOM     29  F   UNL     1      -0.981   8.730  22.975  0.00  0.00    +0.000 F 
ENDBRANCH   3  26
TORSDOF 3
ENDMDL
MODEL 8
REMARK VINA RESULT:      -8.5      1.742      2.278
REMARK  Name = 
REMARK  4 active torsions:
REMARK  status: ('A' for Active; 'I' for Inactive)
REMARK    1  A    between atoms: C_1  and  N_2
REMARK    2  A    between atoms: C_5  and  C_6
REMARK    3  A    between atoms: C_8  and  C_9
REMARK    4  A    between atoms: N_15  and  C_16
REMARK                            x       y       z     vdW  Elec       q    Type
REMARK                         _______ _______ _______ _____ _____    ______ ____
ROOT
ATOM      1  C   UNL     1       1.616   8.607  18.934  0.00  0.00    +0.000 A 
ATOM      2  C   UNL     1       1.379   7.374  19.639  0.00  0.00    +0.000 A 
ATOM      3  C   UNL     1       2.123   6.178  19.449  0.00  0.00    +0.000 A 
ATOM      4  C   UNL     1       3.126   6.307  18.487  0.00  0.00    +0.000 A 
ATOM      5  N   UNL     1       4.009   5.394  18.070  0.00  0.00    +0.000 NA
ATOM      6  N   UNL     1       4.893   6.071  17.322  0.00  0.00    +0.000 N 
ATOM      7  C   UNL     1       4.484   7.353  17.032  0.00  0.00    +0.000 A 
ATOM      8  C   UNL     1       3.361   7.552  17.801  0.00  0.00    +0.000 A 
ATOM      9  C   UNL     1       2.649   8.744  17.965  0.00  0.00    +0.000 A 
ENDROOT
BRANCH   1  14
ATOM     10  C   UNL     1      -2.105  11.555  17.620  0.00  0.00    +0.000 C 
ATOM     11  N   UNL     1      -1.066  11.212  18.575  0.00  0.00    +0.000 N 
ATOM     12  C   UNL     1      -0.252  10.113  18.351  0.00  0.00    +0.000 A 
ATOM     13  F   UNL     1      -0.409   9.396  17.216  0.00  0.00    +0.000 F 
ATOM     14  C   UNL     1       0.711   9.750  19.229  0.00  0.00    +0.000 A 
ATOM     15  C   UNL     1       0.879  10.558  20.428  0.00  0.00    +0.000 A 
ATOM     16  C   UNL     1       0.118  11.637  20.656  0.00  0.00    +0.000 A 
ATOM     17  C   UNL     1      -0.941  12.024  19.699  0.00  0.00    +0.000 A 
ATOM     18  O   UNL     1      -1.634  13.013  19.930  0.00  0.00    +0.000 OA
ENDBRANCH   1  14
BRANCH   6  19
ATOM     19  C   UNL     1       6.237   5.517  17.130  0.00  0.00    +0.000 C 
ATOM     20  C   UNL     1       6.811   4.726  18.329  0.00  0.00    +0.000 C 
ATOM     21  C   UNL     1       7.462   5.591  19.419  0.00  0.00    +0.000 C 
ATOM     22  N   UNL     1       8.340   6.633  18.889  0.00  0.00    +0.000 NA
ATOM     23  C   UNL     1       7.624   7.473  17.935  0.00  0.00    +0.000 C 
ATOM     24  C   UNL     1       7.200   6.643  16.725  0.00  0.00    +0.000 C 
ATOM     25  H   UNL     1       9.156   6.215  18.444  0.00  0.00    +0.000 HD
ENDBRANCH   6  19
BRANCH   3  26
ATOM     26  C   UNL     1       1.946   4.919  20.225  0.00  0.00    +0.000 C 
ATOM     27  F   UNL     1       0.718   4.834  20.812  0.00  0.00    +0.000 F 
ATOM     28  F   UNL     1       2.065   3.795  19.466  0.00  0.00    +0.000 F 
ATOM     29  F   UNL     1       2.840   4.793  21.245  0.00  0.00    +0.000 F 
ENDBRANCH   3  26
TORSDOF 3
ENDMDL
MODEL 9
REMARK VINA RESULT:      -8.4      3.266      7.873
REMARK  Name = 
REMARK  4 active torsions:
REMARK  status: ('A' for Active; 'I' for Inactive)
REMARK    1  A    between atoms: C_1  and  N_2
REMARK    2  A    between atoms: C_5  and  C_6
REMARK    3  A    between atoms: C_8  and  C_9
REMARK    4  A    between atoms: N_15  and  C_16
REMARK                            x       y       z     vdW  Elec       q    Type
REMARK                         _______ _______ _______ _____ _____    ______ ____
ROOT
ATOM      1  C   UNL     1       1.850   7.443  19.982  0.00  0.00    +0.000 A 
ATOM      2  C   UNL     1       1.323   7.859  21.257  0.00  0.00    +0.000 A 
ATOM      3  C   UNL     1       0.763   9.138  21.521  0.00  0.00    +0.000 A 
ATOM      4  C   UNL     1       0.777   9.979  20.408  0.00  0.00    +0.000 A 
ATOM      5  N   UNL     1       0.325  11.233  20.301  0.00  0.00    +0.000 NA
ATOM      6  N   UNL     1       0.353  11.509  18.988  0.00  0.00    +0.000 N 
ATOM      7  C   UNL     1       1.037  10.567  18.253  0.00  0.00    +0.000 A 
ATOM      8  C   UNL     1       1.292   9.543  19.135  0.00  0.00    +0.000 A 
ATOM      9  C   UNL     1       1.849   8.295  18.843  0.00  0.00    +0.000 A 
ENDROOT
BRANCH   1  14
ATOM     10  C   UNL     1       5.139   4.327  18.050  0.00  0.00    +0.000 C 
ATOM     11  N   UNL     1       4.004   4.552  18.926  0.00  0.00    +0.000 N 
ATOM     12  C   UNL     1       3.481   5.827  19.071  0.00  0.00    +0.000 A 
ATOM     13  F   UNL     1       4.009   6.843  18.353  0.00  0.00    +0.000 F 
ATOM     14  C   UNL     1       2.438   6.079  19.896  0.00  0.00    +0.000 A 
ATOM     15  C   UNL     1       1.868   4.961  20.633  0.00  0.00    +0.000 A 
ATOM     16  C   UNL     1       2.344   3.717  20.495  0.00  0.00    +0.000 A 
ATOM     17  C   UNL     1       3.491   3.448  19.601  0.00  0.00    +0.000 A 
ATOM     18  O   UNL     1       3.918   2.300  19.492  0.00  0.00    +0.000 OA
ENDBRANCH   1  14
BRANCH   6  19
ATOM     19  C   UNL     1      -0.520  12.564  18.463  0.00  0.00    +0.000 C 
ATOM     20  C   UNL     1      -1.134  13.512  19.522  0.00  0.00    +0.000 C 
ATOM     21  C   UNL     1      -2.402  12.979  20.205  0.00  0.00    +0.000 C 
ATOM     22  N   UNL     1      -3.362  12.389  19.273  0.00  0.00    +0.000 NA
ATOM     23  C   UNL     1      -2.732  11.337  18.483  0.00  0.00    +0.000 C 
ATOM     24  C   UNL     1      -1.629  11.931  17.609  0.00  0.00    +0.000 C 
ATOM     25  H   UNL     1      -3.745  13.107  18.659  0.00  0.00    +0.000 HD
ENDBRANCH   6  19
BRANCH   3  26
ATOM     26  C   UNL     1       0.140   9.558  22.807  0.00  0.00    +0.000 C 
ATOM     27  F   UNL     1      -1.031   8.906  23.060  0.00  0.00    +0.000 F 
ATOM     28  F   UNL     1       0.929   9.322  23.892  0.00  0.00    +0.000 F 
ATOM     29  F   UNL     1      -0.174  10.883  22.839  0.00  0.00    +0.000 F 
ENDBRANCH   3  26
TORSDOF 3
ENDMDL
