MODEL 1
REMARK VINA RESULT:      -6.9      0.000      0.000
REMARK  Name = 
REMARK  11 active torsions:
REMARK  status: ('A' for Active; 'I' for Inactive)
REMARK    1  A    between atoms: C_1  and  O_2
REMARK    2  A    between atoms: O_2  and  C_3
REMARK    3  A    between atoms: C_3  and  C_4
REMARK    4  A    between atoms: C_4  and  O_5
REMARK    5  A    between atoms: O_5  and  C_6
REMARK    6  A    between atoms: C_6  and  C_7
REMARK    7  A    between atoms: C_7  and  N_8
REMARK    8  A    between atoms: C_7  and  C_12
REMARK    9  A    between atoms: C_9  and  C_10
REMARK   10  A    between atoms: N_14  and  C_15
REMARK   11  A    between atoms: C_15  and  C_16
REMARK                            x       y       z     vdW  Elec       q    Type
REMARK                         _______ _______ _______ _____ _____    ______ ____
ROOT
ATOM      1  C   UNL     1       5.351   5.545  17.163  0.00  0.00    +0.000 C 
ENDROOT
BRANCH   1   2
ATOM      2  N   UNL     1       5.492   5.107  15.757  0.00  0.00    +0.000 N 
ATOM      3  C   UNL     1       6.607   4.723  15.052  0.00  0.00    +0.000 C 
ATOM      4  C   UNL     1       6.302   4.117  13.705  0.00  0.00    +0.000 C 
ATOM      5  O   UNL     1       7.765   4.786  15.451  0.00  0.00    +0.000 OA
ATOM      6  H   UNL     1       4.617   5.085  15.253  0.00  0.00    +0.000 HD
ENDBRANCH   1   2
BRANCH   1   7
ATOM      7  C   UNL     1       6.002   4.561  18.170  0.00  0.00    +0.000 C 
ATOM      8  O   UNL     1       7.095   4.818  18.681  0.00  0.00    +0.000 OA
ATOM      9  N   UNL     1       5.394   3.389  18.524  0.00  0.00    +0.000 N 
ATOM     10  H   UNL     1       5.899   2.849  19.215  0.00  0.00    +0.000 HD
BRANCH   9  11
ATOM     11  C   UNL     1       4.045   2.979  18.220  0.00  0.00    +0.000 C 
BRANCH  11  12
ATOM     12  C   UNL     1       3.062   3.042  19.348  0.00  0.00    +0.000 A 
ATOM     13  C   UNL     1       1.721   3.314  19.017  0.00  0.00    +0.000 A 
ATOM     14  C   UNL     1       0.730   3.275  19.991  0.00  0.00    +0.000 A 
ATOM     15  C   UNL     1       1.050   2.947  21.302  0.00  0.00    +0.000 A 
ATOM     16  C   UNL     1       2.376   2.651  21.640  0.00  0.00    +0.000 A 
ATOM     17  C   UNL     1       3.372   2.684  20.665  0.00  0.00    +0.000 A 
ENDBRANCH  11  12
ENDBRANCH   9  11
ENDBRANCH   1   7
BRANCH   1  18
ATOM     18  C   UNL     1       5.639   7.001  17.552  0.00  0.00    +0.000 C 
BRANCH  18  19
ATOM     19  O   UNL     1       6.719   7.539  16.786  0.00  0.00    +0.000 OA
BRANCH  19  20
ATOM     20  C   UNL     1       7.872   7.721  17.611  0.00  0.00    +0.000 C 
BRANCH  20  21
ATOM     21  C   UNL     1       8.085   9.208  17.829  0.00  0.00    +0.000 C 
BRANCH  21  23
ATOM     22  C   UNL     1       9.335  10.778  19.039  0.00  0.00    +0.000 C 
ATOM     23  O   UNL     1       8.924   9.420  18.963  0.00  0.00    +0.000 OA
ENDBRANCH  21  23
ENDBRANCH  20  21
ENDBRANCH  19  20
ENDBRANCH  18  19
ENDBRANCH   1  18
TORSDOF 9
ENDMDL
MODEL 2
REMARK VINA RESULT:      -6.9      1.402      1.533
REMARK  Name = 
REMARK  11 active torsions:
REMARK  status: ('A' for Active; 'I' for Inactive)
REMARK    1  A    between atoms: C_1  and  O_2
REMARK    2  A    between atoms: O_2  and  C_3
REMARK    3  A    between atoms: C_3  and  C_4
REMARK    4  A    between atoms: C_4  and  O_5
REMARK    5  A    between atoms: O_5  and  C_6
REMARK    6  A    between atoms: C_6  and  C_7
REMARK    7  A    between atoms: C_7  and  N_8
REMARK    8  A    between atoms: C_7  and  C_12
REMARK    9  A    between atoms: C_9  and  C_10
REMARK   10  A    between atoms: N_14  and  C_15
REMARK   11  A    between atoms: C_15  and  C_16
REMARK                            x       y       z     vdW  Elec       q    Type
REMARK                         _______ _______ _______ _____ _____    ______ ____
ROOT
ATOM      1  C   UNL     1       6.374   5.881  16.595  0.00  0.00    +0.000 C 
ENDROOT
BRANCH   1   2
ATOM      2  N   UNL     1       7.154   5.722  15.348  0.00  0.00    +0.000 N 
ATOM      3  C   UNL     1       7.015   4.821  14.320  0.00  0.00    +0.000 C 
ATOM      4  C   UNL     1       7.860   5.136  13.111  0.00  0.00    +0.000 C 
ATOM      5  O   UNL     1       6.248   3.864  14.303  0.00  0.00    +0.000 OA
ATOM      6  H   UNL     1       7.899   6.397  15.252  0.00  0.00    +0.000 HD
ENDBRANCH   1   2
BRANCH   1   7
ATOM      7  C   UNL     1       6.438   4.630  17.510  0.00  0.00    +0.000 C 
ATOM      8  O   UNL     1       7.436   4.408  18.201  0.00  0.00    +0.000 OA
ATOM      9  N   UNL     1       5.402   3.741  17.585  0.00  0.00    +0.000 N 
ATOM     10  H   UNL     1       5.546   2.985  18.243  0.00  0.00    +0.000 HD
BRANCH   9  11
ATOM     11  C   UNL     1       4.077   3.896  17.036  0.00  0.00    +0.000 C 
BRANCH  11  12
ATOM     12  C   UNL     1       2.947   3.881  18.019  0.00  0.00    +0.000 A 
ATOM     13  C   UNL     1       2.077   2.775  17.981  0.00  0.00    +0.000 A 
ATOM     14  C   UNL     1       1.075   2.628  18.933  0.00  0.00    +0.000 A 
ATOM     15  C   UNL     1       0.933   3.565  19.949  0.00  0.00    +0.000 A 
ATOM     16  C   UNL     1       1.806   4.657  20.013  0.00  0.00    +0.000 A 
ATOM     17  C   UNL     1       2.816   4.805  19.062  0.00  0.00    +0.000 A 
ENDBRANCH  11  12
ENDBRANCH   9  11
ENDBRANCH   1   7
BRANCH   1  18
ATOM     18  C   UNL     1       6.484   7.171  17.418  0.00  0.00    +0.000 C 
BRANCH  18  19
ATOM     19  O   UNL     1       7.843   7.598  17.532  0.00  0.00    +0.000 OA
BRANCH  19  20
ATOM     20  C   UNL     1       7.908   9.019  17.680  0.00  0.00    +0.000 C 
BRANCH  20  21
ATOM     21  C   UNL     1       8.898   9.350  18.783  0.00  0.00    +0.000 C 
BRANCH  21  23
ATOM     22  C   UNL     1      10.270  11.244  18.644  0.00  0.00    +0.000 C 
ATOM     23  O   UNL     1       8.972  10.762  18.964  0.00  0.00    +0.000 OA
ENDBRANCH  21  23
ENDBRANCH  20  21
ENDBRANCH  19  20
ENDBRANCH  18  19
ENDBRANCH   1  18
TORSDOF 9
ENDMDL
MODEL 3
REMARK VINA RESULT:      -6.8      2.175      3.216
REMARK  Name = 
REMARK  11 active torsions:
REMARK  status: ('A' for Active; 'I' for Inactive)
REMARK    1  A    between atoms: C_1  and  O_2
REMARK    2  A    between atoms: O_2  and  C_3
REMARK    3  A    between atoms: C_3  and  C_4
REMARK    4  A    between atoms: C_4  and  O_5
REMARK    5  A    between atoms: O_5  and  C_6
REMARK    6  A    between atoms: C_6  and  C_7
REMARK    7  A    between atoms: C_7  and  N_8
REMARK    8  A    between atoms: C_7  and  C_12
REMARK    9  A    between atoms: C_9  and  C_10
REMARK   10  A    between atoms: N_14  and  C_15
REMARK   11  A    between atoms: C_15  and  C_16
REMARK                            x       y       z     vdW  Elec       q    Type
REMARK                         _______ _______ _______ _____ _____    ______ ____
ROOT
ATOM      1  C   UNL     1       6.203   5.652  16.382  0.00  0.00    +0.000 C 
ENDROOT
BRANCH   1   2
ATOM      2  N   UNL     1       7.103   5.576  15.209  0.00  0.00    +0.000 N 
ATOM      3  C   UNL     1       7.027   4.800  14.079  0.00  0.00    +0.000 C 
ATOM      4  C   UNL     1       8.011   5.187  13.003  0.00  0.00    +0.000 C 
ATOM      5  O   UNL     1       6.219   3.900  13.879  0.00  0.00    +0.000 OA
ATOM      6  H   UNL     1       7.888   6.210  15.263  0.00  0.00    +0.000 HD
ENDBRANCH   1   2
BRANCH   1   7
ATOM      7  C   UNL     1       6.442   4.506  17.399  0.00  0.00    +0.000 C 
ATOM      8  O   UNL     1       7.518   4.409  17.995  0.00  0.00    +0.000 OA
ATOM      9  N   UNL     1       5.479   3.574  17.670  0.00  0.00    +0.000 N 
ATOM     10  H   UNL     1       5.738   2.898  18.377  0.00  0.00    +0.000 HD
BRANCH   9  11
ATOM     11  C   UNL     1       4.097   3.601  17.256  0.00  0.00    +0.000 C 
BRANCH  11  12
ATOM     12  C   UNL     1       3.076   3.460  18.344  0.00  0.00    +0.000 A 
ATOM     13  C   UNL     1       3.302   4.178  19.533  0.00  0.00    +0.000 A 
ATOM     14  C   UNL     1       2.348   4.192  20.543  0.00  0.00    +0.000 A 
ATOM     15  C   UNL     1       1.147   3.512  20.381  0.00  0.00    +0.000 A 
ATOM     16  C   UNL     1       0.900   2.814  19.194  0.00  0.00    +0.000 A 
ATOM     17  C   UNL     1       1.853   2.801  18.176  0.00  0.00    +0.000 A 
ENDBRANCH  11  12
ENDBRANCH   9  11
ENDBRANCH   1   7
BRANCH   1  18
ATOM     18  C   UNL     1       5.981   6.989  17.101  0.00  0.00    +0.000 C 
BRANCH  18  19
ATOM     19  O   UNL     1       4.876   6.914  18.004  0.00  0.00    +0.000 OA
BRANCH  19  20
ATOM     20  C   UNL     1       3.653   7.196  17.319  0.00  0.00    +0.000 C 
BRANCH  20  21
ATOM     21  C   UNL     1       2.642   7.722  18.323  0.00  0.00    +0.000 C 
BRANCH  21  23
ATOM     22  C   UNL     1       1.676   9.849  18.156  0.00  0.00    +0.000 C 
ATOM     23  O   UNL     1       1.664   8.518  17.659  0.00  0.00    +0.000 OA
ENDBRANCH  21  23
ENDBRANCH  20  21
ENDBRANCH  19  20
ENDBRANCH  18  19
ENDBRANCH   1  18
TORSDOF 9
ENDMDL
MODEL 4
REMARK VINA RESULT:      -6.7      1.379      1.777
REMARK  Name = 
REMARK  11 active torsions:
REMARK  status: ('A' for Active; 'I' for Inactive)
REMARK    1  A    between atoms: C_1  and  O_2
REMARK    2  A    between atoms: O_2  and  C_3
REMARK    3  A    between atoms: C_3  and  C_4
REMARK    4  A    between atoms: C_4  and  O_5
REMARK    5  A    between atoms: O_5  and  C_6
REMARK    6  A    between atoms: C_6  and  C_7
REMARK    7  A    between atoms: C_7  and  N_8
REMARK    8  A    between atoms: C_7  and  C_12
REMARK    9  A    between atoms: C_9  and  C_10
REMARK   10  A    between atoms: N_14  and  C_15
REMARK   11  A    between atoms: C_15  and  C_16
REMARK                            x       y       z     vdW  Elec       q    Type
REMARK                         _______ _______ _______ _____ _____    ______ ____
ROOT
ATOM      1  C   UNL     1       6.566   5.995  16.962  0.00  0.00    +0.000 C 
ENDROOT
BRANCH   1   2
ATOM      2  N   UNL     1       7.199   5.701  15.657  0.00  0.00    +0.000 N 
ATOM      3  C   UNL     1       6.857   4.790  14.688  0.00  0.00    +0.000 C 
ATOM      4  C   UNL     1       7.613   4.960  13.394  0.00  0.00    +0.000 C 
ATOM      5  O   UNL     1       5.986   3.932  14.784  0.00  0.00    +0.000 OA
ATOM      6  H   UNL     1       8.005   6.278  15.463  0.00  0.00    +0.000 HD
ENDBRANCH   1   2
BRANCH   1   7
ATOM      7  C   UNL     1       6.864   4.914  18.034  0.00  0.00    +0.000 C 
ATOM      8  O   UNL     1       7.969   4.366  18.082  0.00  0.00    +0.000 OA
ATOM      9  N   UNL     1       5.926   4.537  18.954  0.00  0.00    +0.000 N 
ATOM     10  H   UNL     1       6.250   3.850  19.624  0.00  0.00    +0.000 HD
BRANCH   9  11
ATOM     11  C   UNL     1       4.658   5.171  19.218  0.00  0.00    +0.000 C 
BRANCH  11  12
ATOM     12  C   UNL     1       3.439   4.324  19.017  0.00  0.00    +0.000 A 
ATOM     13  C   UNL     1       3.424   3.476  17.894  0.00  0.00    +0.000 A 
ATOM     14  C   UNL     1       2.383   2.576  17.700  0.00  0.00    +0.000 A 
ATOM     15  C   UNL     1       1.352   2.489  18.626  0.00  0.00    +0.000 A 
ATOM     16  C   UNL     1       1.366   3.310  19.760  0.00  0.00    +0.000 A 
ATOM     17  C   UNL     1       2.411   4.211  19.961  0.00  0.00    +0.000 A 
ENDBRANCH  11  12
ENDBRANCH   9  11
ENDBRANCH   1   7
BRANCH   1  18
ATOM     18  C   UNL     1       6.650   7.405  17.563  0.00  0.00    +0.000 C 
BRANCH  18  19
ATOM     19  O   UNL     1       8.008   7.801  17.765  0.00  0.00    +0.000 OA
BRANCH  19  20
ATOM     20  C   UNL     1       8.111   9.228  17.789  0.00  0.00    +0.000 C 
BRANCH  20  21
ATOM     21  C   UNL     1       8.962   9.634  18.979  0.00  0.00    +0.000 C 
BRANCH  21  23
ATOM     22  C   UNL     1       8.978  11.745  17.963  0.00  0.00    +0.000 C 
ATOM     23  O   UNL     1       9.755  10.771  18.645  0.00  0.00    +0.000 OA
ENDBRANCH  21  23
ENDBRANCH  20  21
ENDBRANCH  19  20
ENDBRANCH  18  19
ENDBRANCH   1  18
TORSDOF 9
ENDMDL
MODEL 5
REMARK VINA RESULT:      -6.7      3.290      5.764
REMARK  Name = 
REMARK  11 active torsions:
REMARK  status: ('A' for Active; 'I' for Inactive)
REMARK    1  A    between atoms: C_1  and  O_2
REMARK    2  A    between atoms: O_2  and  C_3
REMARK    3  A    between atoms: C_3  and  C_4
REMARK    4  A    between atoms: C_4  and  O_5
REMARK    5  A    between atoms: O_5  and  C_6
REMARK    6  A    between atoms: C_6  and  C_7
REMARK    7  A    between atoms: C_7  and  N_8
REMARK    8  A    between atoms: C_7  and  C_12
REMARK    9  A    between atoms: C_9  and  C_10
REMARK   10  A    between atoms: N_14  and  C_15
REMARK   11  A    between atoms: C_15  and  C_16
REMARK                            x       y       z     vdW  Elec       q    Type
REMARK                         _______ _______ _______ _____ _____    ______ ____
ROOT
ATOM      1  C   UNL     1       4.231   3.127  17.540  0.00  0.00    +0.000 C 
ENDROOT
BRANCH   1   2
ATOM      2  N   UNL     1       4.588   3.917  16.341  0.00  0.00    +0.000 N 
ATOM      3  C   UNL     1       5.815   4.322  15.875  0.00  0.00    +0.000 C 
ATOM      4  C   UNL     1       5.779   4.911  14.487  0.00  0.00    +0.000 C 
ATOM      5  O   UNL     1       6.884   4.191  16.461  0.00  0.00    +0.000 OA
ATOM      6  H   UNL     1       3.788   4.186  15.785  0.00  0.00    +0.000 HD
ENDBRANCH   1   2
BRANCH   1   7
ATOM      7  C   UNL     1       4.475   3.897  18.864  0.00  0.00    +0.000 C 
ATOM      8  O   UNL     1       5.121   3.381  19.780  0.00  0.00    +0.000 OA
ATOM      9  N   UNL     1       3.990   5.160  19.060  0.00  0.00    +0.000 N 
ATOM     10  H   UNL     1       4.246   5.572  19.949  0.00  0.00    +0.000 HD
BRANCH   9  11
ATOM     11  C   UNL     1       3.393   6.029  18.076  0.00  0.00    +0.000 C 
BRANCH  11  12
ATOM     12  C   UNL     1       2.521   7.127  18.602  0.00  0.00    +0.000 A 
ATOM     13  C   UNL     1       2.207   7.095  19.974  0.00  0.00    +0.000 A 
ATOM     14  C   UNL     1       1.500   8.137  20.562  0.00  0.00    +0.000 A 
ATOM     15  C   UNL     1       1.113   9.235  19.805  0.00  0.00    +0.000 A 
ATOM     16  C   UNL     1       1.439   9.291  18.445  0.00  0.00    +0.000 A 
ATOM     17  C   UNL     1       2.152   8.249  17.851  0.00  0.00    +0.000 A 
ENDBRANCH  11  12
ENDBRANCH   9  11
ENDBRANCH   1   7
BRANCH   1  18
ATOM     18  C   UNL     1       2.908   2.351  17.589  0.00  0.00    +0.000 C 
BRANCH  18  19
ATOM     19  O   UNL     1       1.795   3.233  17.750  0.00  0.00    +0.000 OA
BRANCH  19  20
ATOM     20  C   UNL     1       0.869   2.698  18.699  0.00  0.00    +0.000 C 
BRANCH  20  21
ATOM     21  C   UNL     1       0.855   3.595  19.925  0.00  0.00    +0.000 C 
BRANCH  21  23
ATOM     22  C   UNL     1       2.208   3.228  21.802  0.00  0.00    +0.000 C 
ATOM     23  O   UNL     1       1.042   2.814  21.103  0.00  0.00    +0.000 OA
ENDBRANCH  21  23
ENDBRANCH  20  21
ENDBRANCH  19  20
ENDBRANCH  18  19
ENDBRANCH   1  18
TORSDOF 9
ENDMDL
MODEL 6
REMARK VINA RESULT:      -6.6      1.705      2.722
REMARK  Name = 
REMARK  11 active torsions:
REMARK  status: ('A' for Active; 'I' for Inactive)
REMARK    1  A    between atoms: C_1  and  O_2
REMARK    2  A    between atoms: O_2  and  C_3
REMARK    3  A    between atoms: C_3  and  C_4
REMARK    4  A    between atoms: C_4  and  O_5
REMARK    5  A    between atoms: O_5  and  C_6
REMARK    6  A    between atoms: C_6  and  C_7
REMARK    7  A    between atoms: C_7  and  N_8
REMARK    8  A    between atoms: C_7  and  C_12
REMARK    9  A    between atoms: C_9  and  C_10
REMARK   10  A    between atoms: N_14  and  C_15
REMARK   11  A    between atoms: C_15  and  C_16
REMARK                            x       y       z     vdW  Elec       q    Type
REMARK                         _______ _______ _______ _____ _____    ______ ____
ROOT
ATOM      1  C   UNL     1       6.155   4.779  14.800  0.00  0.00    +0.000 C 
ENDROOT
BRANCH   1   2
ATOM      2  N   UNL     1       5.487   4.033  13.711  0.00  0.00    +0.000 N 
ATOM      3  C   UNL     1       5.955   3.653  12.476  0.00  0.00    +0.000 C 
ATOM      4  C   UNL     1       5.045   2.697  11.745  0.00  0.00    +0.000 C 
ATOM      5  O   UNL     1       7.029   3.979  11.984  0.00  0.00    +0.000 OA
ATOM      6  H   UNL     1       4.540   3.762  13.932  0.00  0.00    +0.000 HD
ENDBRANCH   1   2
BRANCH   1   7
ATOM      7  C   UNL     1       5.201   5.757  15.535  0.00  0.00    +0.000 C 
ATOM      8  O   UNL     1       5.110   6.934  15.175  0.00  0.00    +0.000 OA
ATOM      9  N   UNL     1       4.434   5.353  16.592  0.00  0.00    +0.000 N 
ATOM     10  H   UNL     1       3.825   6.071  16.964  0.00  0.00    +0.000 HD
BRANCH   9  11
ATOM     11  C   UNL     1       4.222   4.003  17.052  0.00  0.00    +0.000 C 
BRANCH  11  12
ATOM     12  C   UNL     1       3.260   3.832  18.187  0.00  0.00    +0.000 A 
ATOM     13  C   UNL     1       1.914   3.586  17.856  0.00  0.00    +0.000 A 
ATOM     14  C   UNL     1       0.982   3.301  18.847  0.00  0.00    +0.000 A 
ATOM     15  C   UNL     1       1.373   3.237  20.178  0.00  0.00    +0.000 A 
ATOM     16  C   UNL     1       2.713   3.457  20.519  0.00  0.00    +0.000 A 
ATOM     17  C   UNL     1       3.653   3.738  19.527  0.00  0.00    +0.000 A 
ENDBRANCH  11  12
ENDBRANCH   9  11
ENDBRANCH   1   7
BRANCH   1  18
ATOM     18  C   UNL     1       7.066   4.046  15.795  0.00  0.00    +0.000 C 
BRANCH  18  19
ATOM     19  O   UNL     1       7.824   4.969  16.580  0.00  0.00    +0.000 OA
BRANCH  19  20
ATOM     20  C   UNL     1       7.673   4.677  17.972  0.00  0.00    +0.000 C 
BRANCH  20  21
ATOM     21  C   UNL     1       7.490   5.983  18.726  0.00  0.00    +0.000 C 
BRANCH  21  23
ATOM     22  C   UNL     1       8.004   8.125  17.928  0.00  0.00    +0.000 C 
ATOM     23  O   UNL     1       7.117   7.020  17.821  0.00  0.00    +0.000 OA
ENDBRANCH  21  23
ENDBRANCH  20  21
ENDBRANCH  19  20
ENDBRANCH  18  19
ENDBRANCH   1  18
TORSDOF 9
ENDMDL
MODEL 7
REMARK VINA RESULT:      -6.6      2.701      3.684
REMARK  Name = 
REMARK  11 active torsions:
REMARK  status: ('A' for Active; 'I' for Inactive)
REMARK    1  A    between atoms: C_1  and  O_2
REMARK    2  A    between atoms: O_2  and  C_3
REMARK    3  A    between atoms: C_3  and  C_4
REMARK    4  A    between atoms: C_4  and  O_5
REMARK    5  A    between atoms: O_5  and  C_6
REMARK    6  A    between atoms: C_6  and  C_7
REMARK    7  A    between atoms: C_7  and  N_8
REMARK    8  A    between atoms: C_7  and  C_12
REMARK    9  A    between atoms: C_9  and  C_10
REMARK   10  A    between atoms: N_14  and  C_15
REMARK   11  A    between atoms: C_15  and  C_16
REMARK                            x       y       z     vdW  Elec       q    Type
REMARK                         _______ _______ _______ _____ _____    ______ ____
ROOT
ATOM      1  C   UNL     1       4.497   4.727  17.695  0.00  0.00    +0.000 C 
ENDROOT
BRANCH   1   2
ATOM      2  N   UNL     1       4.954   4.379  16.331  0.00  0.00    +0.000 N 
ATOM      3  C   UNL     1       5.967   4.909  15.570  0.00  0.00    +0.000 C 
ATOM      4  C   UNL     1       6.272   4.120  14.321  0.00  0.00    +0.000 C 
ATOM      5  O   UNL     1       6.639   5.894  15.856  0.00  0.00    +0.000 OA
ATOM      6  H   UNL     1       4.429   3.624  15.912  0.00  0.00    +0.000 HD
ENDBRANCH   1   2
BRANCH   1   7
ATOM      7  C   UNL     1       5.455   4.213  18.801  0.00  0.00    +0.000 C 
ATOM      8  O   UNL     1       6.325   4.951  19.271  0.00  0.00    +0.000 OA
ATOM      9  N   UNL     1       5.370   2.939  19.290  0.00  0.00    +0.000 N 
ATOM     10  H   UNL     1       6.024   2.732  20.034  0.00  0.00    +0.000 HD
BRANCH   9  11
ATOM     11  C   UNL     1       4.322   1.978  19.045  0.00  0.00    +0.000 C 
BRANCH  11  12
ATOM     12  C   UNL     1       2.945   2.372  19.482  0.00  0.00    +0.000 A 
ATOM     13  C   UNL     1       2.813   2.920  20.772  0.00  0.00    +0.000 A 
ATOM     14  C   UNL     1       1.591   3.417  21.208  0.00  0.00    +0.000 A 
ATOM     15  C   UNL     1       0.487   3.397  20.366  0.00  0.00    +0.000 A 
ATOM     16  C   UNL     1       0.610   2.877  19.073  0.00  0.00    +0.000 A 
ATOM     17  C   UNL     1       1.835   2.381  18.629  0.00  0.00    +0.000 A 
ENDBRANCH  11  12
ENDBRANCH   9  11
ENDBRANCH   1   7
BRANCH   1  18
ATOM     18  C   UNL     1       4.007   6.147  18.008  0.00  0.00    +0.000 C 
BRANCH  18  19
ATOM     19  O   UNL     1       3.170   6.163  19.166  0.00  0.00    +0.000 OA
BRANCH  19  20
ATOM     20  C   UNL     1       2.377   7.353  19.191  0.00  0.00    +0.000 C 
BRANCH  20  21
ATOM     21  C   UNL     1       1.700   7.459  20.546  0.00  0.00    +0.000 C 
BRANCH  21  23
ATOM     22  C   UNL     1       1.207   9.108  22.136  0.00  0.00    +0.000 C 
ATOM     23  O   UNL     1       1.224   8.787  20.751  0.00  0.00    +0.000 OA
ENDBRANCH  21  23
ENDBRANCH  20  21
ENDBRANCH  19  20
ENDBRANCH  18  19
ENDBRANCH   1  18
TORSDOF 9
ENDMDL
MODEL 8
REMARK VINA RESULT:      -6.6      1.053      1.296
REMARK  Name = 
REMARK  11 active torsions:
REMARK  status: ('A' for Active; 'I' for Inactive)
REMARK    1  A    between atoms: C_1  and  O_2
REMARK    2  A    between atoms: O_2  and  C_3
REMARK    3  A    between atoms: C_3  and  C_4
REMARK    4  A    between atoms: C_4  and  O_5
REMARK    5  A    between atoms: O_5  and  C_6
REMARK    6  A    between atoms: C_6  and  C_7
REMARK    7  A    between atoms: C_7  and  N_8
REMARK    8  A    between atoms: C_7  and  C_12
REMARK    9  A    between atoms: C_9  and  C_10
REMARK   10  A    between atoms: N_14  and  C_15
REMARK   11  A    between atoms: C_15  and  C_16
REMARK                            x       y       z     vdW  Elec       q    Type
REMARK                         _______ _______ _______ _____ _____    ______ ____
ROOT
ATOM      1  C   UNL     1       5.724   5.614  16.885  0.00  0.00    +0.000 C 
ENDROOT
BRANCH   1   2
ATOM      2  N   UNL     1       5.663   4.937  15.571  0.00  0.00    +0.000 N 
ATOM      3  C   UNL     1       6.625   4.788  14.602  0.00  0.00    +0.000 C 
ATOM      4  C   UNL     1       6.246   3.825  13.504  0.00  0.00    +0.000 C 
ATOM      5  O   UNL     1       7.732   5.316  14.602  0.00  0.00    +0.000 OA
ATOM      6  H   UNL     1       4.766   4.516  15.377  0.00  0.00    +0.000 HD
ENDBRANCH   1   2
BRANCH   1   7
ATOM      7  C   UNL     1       6.356   4.729  17.991  0.00  0.00    +0.000 C 
ATOM      8  O   UNL     1       7.483   4.249  17.842  0.00  0.00    +0.000 OA
ATOM      9  N   UNL     1       5.697   4.455  19.157  0.00  0.00    +0.000 N 
ATOM     10  H   UNL     1       6.227   3.898  19.815  0.00  0.00    +0.000 HD
BRANCH   9  11
ATOM     11  C   UNL     1       4.478   5.062  19.634  0.00  0.00    +0.000 C 
BRANCH  11  12
ATOM     12  C   UNL     1       3.224   4.265  19.445  0.00  0.00    +0.000 A 
ATOM     13  C   UNL     1       2.391   4.626  18.369  0.00  0.00    +0.000 A 
ATOM     14  C   UNL     1       1.270   3.865  18.056  0.00  0.00    +0.000 A 
ATOM     15  C   UNL     1       0.970   2.726  18.792  0.00  0.00    +0.000 A 
ATOM     16  C   UNL     1       1.803   2.343  19.849  0.00  0.00    +0.000 A 
ATOM     17  C   UNL     1       2.931   3.100  20.163  0.00  0.00    +0.000 A 
ENDBRANCH  11  12
ENDBRANCH   9  11
ENDBRANCH   1   7
BRANCH   1  18
ATOM     18  C   UNL     1       6.220   7.062  16.987  0.00  0.00    +0.000 C 
BRANCH  18  19
ATOM     19  O   UNL     1       6.996   7.262  18.170  0.00  0.00    +0.000 OA
BRANCH  19  20
ATOM     20  C   UNL     1       8.190   7.988  17.866  0.00  0.00    +0.000 C 
BRANCH  20  21
ATOM     21  C   UNL     1       7.863   9.470  17.828  0.00  0.00    +0.000 C 
BRANCH  21  23
ATOM     22  C   UNL     1       9.303  10.244  19.505  0.00  0.00    +0.000 C 
ATOM     23  O   UNL     1       9.032  10.235  18.110  0.00  0.00    +0.000 OA
ENDBRANCH  21  23
ENDBRANCH  20  21
ENDBRANCH  19  20
ENDBRANCH  18  19
ENDBRANCH   1  18
TORSDOF 9
ENDMDL
MODEL 9
REMARK VINA RESULT:      -6.6      1.383      1.686
REMARK  Name = 
REMARK  11 active torsions:
REMARK  status: ('A' for Active; 'I' for Inactive)
REMARK    1  A    between atoms: C_1  and  O_2
REMARK    2  A    between atoms: O_2  and  C_3
REMARK    3  A    between atoms: C_3  and  C_4
REMARK    4  A    between atoms: C_4  and  O_5
REMARK    5  A    between atoms: O_5  and  C_6
REMARK    6  A    between atoms: C_6  and  C_7
REMARK    7  A    between atoms: C_7  and  N_8
REMARK    8  A    between atoms: C_7  and  C_12
REMARK    9  A    between atoms: C_9  and  C_10
REMARK   10  A    between atoms: N_14  and  C_15
REMARK   11  A    between atoms: C_15  and  C_16
REMARK                            x       y       z     vdW  Elec       q    Type
REMARK                         _______ _______ _______ _____ _____    ______ ____
ROOT
ATOM      1  C   UNL     1       6.414   6.429  17.514  0.00  0.00    +0.000 C 
ENDROOT
BRANCH   1   2
ATOM      2  N   UNL     1       5.932   5.610  16.379  0.00  0.00    +0.000 N 
ATOM      3  C   UNL     1       6.597   5.149  15.270  0.00  0.00    +0.000 C 
ATOM      4  C   UNL     1       5.814   4.145  14.460  0.00  0.00    +0.000 C 
ATOM      5  O   UNL     1       7.743   5.442  14.946  0.00  0.00    +0.000 OA
ATOM      6  H   UNL     1       4.958   5.354  16.454  0.00  0.00    +0.000 HD
ENDBRANCH   1   2
BRANCH   1   7
ATOM      7  C   UNL     1       6.300   5.696  18.877  0.00  0.00    +0.000 C 
ATOM      8  O   UNL     1       7.314   5.381  19.506  0.00  0.00    +0.000 OA
ATOM      9  N   UNL     1       5.088   5.378  19.422  0.00  0.00    +0.000 N 
ATOM     10  H   UNL     1       5.142   4.935  20.331  0.00  0.00    +0.000 HD
BRANCH   9  11
ATOM     11  C   UNL     1       3.788   5.818  18.977  0.00  0.00    +0.000 C 
BRANCH  11  12
ATOM     12  C   UNL     1       2.648   4.881  19.233  0.00  0.00    +0.000 A 
ATOM     13  C   UNL     1       2.171   4.135  18.139  0.00  0.00    +0.000 A 
ATOM     14  C   UNL     1       1.196   3.161  18.317  0.00  0.00    +0.000 A 
ATOM     15  C   UNL     1       0.693   2.898  19.584  0.00  0.00    +0.000 A 
ATOM     16  C   UNL     1       1.175   3.616  20.685  0.00  0.00    +0.000 A 
ATOM     17  C   UNL     1       2.157   4.590  20.512  0.00  0.00    +0.000 A 
ENDBRANCH  11  12
ENDBRANCH   9  11
ENDBRANCH   1   7
BRANCH   1  18
ATOM     18  C   UNL     1       7.740   7.193  17.409  0.00  0.00    +0.000 C 
BRANCH  18  19
ATOM     19  O   UNL     1       7.557   8.586  17.665  0.00  0.00    +0.000 OA
BRANCH  19  20
ATOM     20  C   UNL     1       8.577   9.068  18.544  0.00  0.00    +0.000 C 
BRANCH  20  21
ATOM     21  C   UNL     1       8.903  10.504  18.172  0.00  0.00    +0.000 C 
BRANCH  21  23
ATOM     22  C   UNL     1      10.826  11.446  19.123  0.00  0.00    +0.000 C 
ATOM     23  O   UNL     1       9.439  11.191  19.300  0.00  0.00    +0.000 OA
ENDBRANCH  21  23
ENDBRANCH  20  21
ENDBRANCH  19  20
ENDBRANCH  18  19
ENDBRANCH   1  18
TORSDOF 9
ENDMDL
