MODEL 1
REMARK VINA RESULT:      -8.3      0.000      0.000
REMARK  Name = 
REMARK  3 active torsions:
REMARK  status: ('A' for Active; 'I' for Inactive)
REMARK    1  A    between atoms: C_2  and  C_4
REMARK    2  A    between atoms: C_8  and  C_9
REMARK    3  A    between atoms: C_15  and  C_16
REMARK                            x       y       z     vdW  Elec       q    Type
REMARK                         _______ _______ _______ _____ _____    ______ ____
ROOT
ATOM      1  C   UNL     1       2.382   6.412  19.657  0.00  0.00    +0.000 A 
ATOM      2  C   UNL     1       1.722   5.722  20.806  0.00  0.00    +0.000 A 
ATOM      3  C   UNL     1       2.057   4.448  21.043  0.00  0.00    +0.000 A 
ATOM      4  C   UNL     1       3.017   3.817  20.227  0.00  0.00    +0.000 A 
ATOM      5  N   UNL     1       3.509   2.601  20.275  0.00  0.00    +0.000 NA
ATOM      6  C   UNL     1       4.424   2.554  19.255  0.00  0.00    +0.000 A 
ATOM      7  C   UNL     1       4.492   3.751  18.564  0.00  0.00    +0.000 A 
ATOM      8  N   UNL     1       3.578   4.568  19.204  0.00  0.00    +0.000 N 
ATOM      9  N   UNL     1       3.286   5.873  18.893  0.00  0.00    +0.000 NA
ENDROOT
BRANCH   1  14
ATOM     10  C   UNL     1       0.900   9.886  20.076  0.00  0.00    +0.000 A 
ATOM     11  C   UNL     1       1.137  10.438  18.812  0.00  0.00    +0.000 A 
ATOM     12  C   UNL     1       1.769   9.673  17.831  0.00  0.00    +0.000 A 
ATOM     13  C   UNL     1       2.171   8.365  18.116  0.00  0.00    +0.000 A 
ATOM     14  C   UNL     1       1.962   7.819  19.390  0.00  0.00    +0.000 A 
ATOM     15  C   UNL     1       1.319   8.585  20.369  0.00  0.00    +0.000 A 
BRANCH  10  17
ATOM     16  N   UNL     1      -0.843  11.432  20.755  0.00  0.00    +0.000 N 
ATOM     17  C   UNL     1       0.207  10.649  21.145  0.00  0.00    +0.000 C 
ATOM     18  O   UNL     1       0.528  10.540  22.319  0.00  0.00    +0.000 OA
ATOM     19  H   UNL     1      -1.389  11.851  21.495  0.00  0.00    +0.000 HD
ATOM     20  H   UNL     1      -1.285  11.323  19.853  0.00  0.00    +0.000 HD
ENDBRANCH  10  17
ENDBRANCH   1  14
BRANCH   7  21
ATOM     21  C   UNL     1       5.306   4.125  17.442  0.00  0.00    +0.000 A 
ATOM     22  C   UNL     1       4.982   4.074  16.099  0.00  0.00    +0.000 A 
ATOM     23  C   UNL     1       6.036   4.536  15.256  0.00  0.00    +0.000 A 
ATOM     24  C   UNL     1       7.139   4.920  15.981  0.00  0.00    +0.000 A 
ATOM     25  S   UNL     1       6.906   4.713  17.661  0.00  0.00    +0.000 S 
ENDBRANCH   7  21
TORSDOF 3
ENDMDL
MODEL 2
REMARK VINA RESULT:      -8.2      1.534      1.850
REMARK  Name = 
REMARK  3 active torsions:
REMARK  status: ('A' for Active; 'I' for Inactive)
REMARK    1  A    between atoms: C_2  and  C_4
REMARK    2  A    between atoms: C_8  and  C_9
REMARK    3  A    between atoms: C_15  and  C_16
REMARK                            x       y       z     vdW  Elec       q    Type
REMARK                         _______ _______ _______ _____ _____    ______ ____
ROOT
ATOM      1  C   UNL     1       2.044   6.502  20.173  0.00  0.00    +0.000 A 
ATOM      2  C   UNL     1       1.142   5.388  20.595  0.00  0.00    +0.000 A 
ATOM      3  C   UNL     1       1.589   4.135  20.445  0.00  0.00    +0.000 A 
ATOM      4  C   UNL     1       2.879   3.913  19.923  0.00  0.00    +0.000 A 
ATOM      5  N   UNL     1       3.528   2.793  19.704  0.00  0.00    +0.000 NA
ATOM      6  C   UNL     1       4.747   3.186  19.215  0.00  0.00    +0.000 A 
ATOM      7  C   UNL     1       4.849   4.563  19.123  0.00  0.00    +0.000 A 
ATOM      8  N   UNL     1       3.633   5.028  19.589  0.00  0.00    +0.000 N 
ATOM      9  N   UNL     1       3.248   6.341  19.705  0.00  0.00    +0.000 NA
ENDROOT
BRANCH   1  14
ATOM     10  C   UNL     1       0.433   9.630  21.608  0.00  0.00    +0.000 A 
ATOM     11  C   UNL     1       0.454  10.481  20.497  0.00  0.00    +0.000 A 
ATOM     12  C   UNL     1       0.984  10.028  19.289  0.00  0.00    +0.000 A 
ATOM     13  C   UNL     1       1.499   8.733  19.194  0.00  0.00    +0.000 A 
ATOM     14  C   UNL     1       1.507   7.888  20.312  0.00  0.00    +0.000 A 
ATOM     15  C   UNL     1       0.966   8.341  21.520  0.00  0.00    +0.000 A 
BRANCH  10  17
ATOM     16  N   UNL     1      -1.227  10.887  22.854  0.00  0.00    +0.000 N 
ATOM     17  C   UNL     1      -0.145  10.055  22.908  0.00  0.00    +0.000 C 
ATOM     18  O   UNL     1       0.295   9.638  23.969  0.00  0.00    +0.000 OA
ATOM     19  H   UNL     1      -1.693  11.074  23.731  0.00  0.00    +0.000 HD
ATOM     20  H   UNL     1      -1.760  11.016  22.006  0.00  0.00    +0.000 HD
ENDBRANCH  10  17
ENDBRANCH   1  14
BRANCH   7  21
ATOM     21  C   UNL     1       5.938   5.380  18.667  0.00  0.00    +0.000 A 
ATOM     22  C   UNL     1       7.128   5.654  19.316  0.00  0.00    +0.000 A 
ATOM     23  C   UNL     1       7.989   6.502  18.560  0.00  0.00    +0.000 A 
ATOM     24  C   UNL     1       7.430   6.855  17.354  0.00  0.00    +0.000 A 
ATOM     25  S   UNL     1       5.875   6.180  17.147  0.00  0.00    +0.000 S 
ENDBRANCH   7  21
TORSDOF 3
ENDMDL
MODEL 3
REMARK VINA RESULT:      -8.0      3.826      7.766
REMARK  Name = 
REMARK  3 active torsions:
REMARK  status: ('A' for Active; 'I' for Inactive)
REMARK    1  A    between atoms: C_2  and  C_4
REMARK    2  A    between atoms: C_8  and  C_9
REMARK    3  A    between atoms: C_15  and  C_16
REMARK                            x       y       z     vdW  Elec       q    Type
REMARK                         _______ _______ _______ _____ _____    ______ ____
ROOT
ATOM      1  C   UNL     1       2.257   6.462  19.302  0.00  0.00    +0.000 A 
ATOM      2  C   UNL     1       2.935   6.639  17.982  0.00  0.00    +0.000 A 
ATOM      3  C   UNL     1       2.912   7.858  17.429  0.00  0.00    +0.000 A 
ATOM      4  C   UNL     1       2.279   8.919  18.108  0.00  0.00    +0.000 A 
ATOM      5  N   UNL     1       2.146  10.182  17.776  0.00  0.00    +0.000 NA
ATOM      6  C   UNL     1       1.467  10.748  18.825  0.00  0.00    +0.000 A 
ATOM      7  C   UNL     1       1.169   9.822  19.809  0.00  0.00    +0.000 A 
ATOM      8  N   UNL     1       1.704   8.637  19.338  0.00  0.00    +0.000 N 
ATOM      9  N   UNL     1       1.678   7.418  19.968  0.00  0.00    +0.000 NA
ENDROOT
BRANCH   1  14
ATOM     10  C   UNL     1       3.230   2.875  20.093  0.00  0.00    +0.000 A 
ATOM     11  C   UNL     1       2.183   2.488  20.937  0.00  0.00    +0.000 A 
ATOM     12  C   UNL     1       1.165   3.394  21.235  0.00  0.00    +0.000 A 
ATOM     13  C   UNL     1       1.198   4.684  20.699  0.00  0.00    +0.000 A 
ATOM     14  C   UNL     1       2.261   5.085  19.877  0.00  0.00    +0.000 A 
ATOM     15  C   UNL     1       3.275   4.171  19.571  0.00  0.00    +0.000 A 
BRANCH  10  17
ATOM     16  N   UNL     1       4.240   1.359  18.490  0.00  0.00    +0.000 N 
ATOM     17  C   UNL     1       4.323   1.940  19.724  0.00  0.00    +0.000 C 
ATOM     18  O   UNL     1       5.274   1.743  20.467  0.00  0.00    +0.000 OA
ATOM     19  H   UNL     1       5.044   0.823  18.192  0.00  0.00    +0.000 HD
ATOM     20  H   UNL     1       3.624   1.713  17.773  0.00  0.00    +0.000 HD
ENDBRANCH  10  17
ENDBRANCH   1  14
BRANCH   7  21
ATOM     21  C   UNL     1       0.478   9.990  21.056  0.00  0.00    +0.000 A 
ATOM     22  C   UNL     1       0.538   9.185  22.179  0.00  0.00    +0.000 A 
ATOM     23  C   UNL     1      -0.279   9.661  23.247  0.00  0.00    +0.000 A 
ATOM     24  C   UNL     1      -0.944  10.816  22.907  0.00  0.00    +0.000 A 
ATOM     25  S   UNL     1      -0.593  11.309  21.309  0.00  0.00    +0.000 S 
ENDBRANCH   7  21
TORSDOF 3
ENDMDL
MODEL 4
REMARK VINA RESULT:      -7.9      1.530      1.710
REMARK  Name = 
REMARK  3 active torsions:
REMARK  status: ('A' for Active; 'I' for Inactive)
REMARK    1  A    between atoms: C_2  and  C_4
REMARK    2  A    between atoms: C_8  and  C_9
REMARK    3  A    between atoms: C_15  and  C_16
REMARK                            x       y       z     vdW  Elec       q    Type
REMARK                         _______ _______ _______ _____ _____    ______ ____
ROOT
ATOM      1  C   UNL     1       2.058   6.592  20.101  0.00  0.00    +0.000 A 
ATOM      2  C   UNL     1       1.174   5.491  20.590  0.00  0.00    +0.000 A 
ATOM      3  C   UNL     1       1.632   4.236  20.495  0.00  0.00    +0.000 A 
ATOM      4  C   UNL     1       2.916   4.002  19.965  0.00  0.00    +0.000 A 
ATOM      5  N   UNL     1       3.574   2.879  19.790  0.00  0.00    +0.000 NA
ATOM      6  C   UNL     1       4.782   3.260  19.265  0.00  0.00    +0.000 A 
ATOM      7  C   UNL     1       4.867   4.631  19.104  0.00  0.00    +0.000 A 
ATOM      8  N   UNL     1       3.653   5.107  19.565  0.00  0.00    +0.000 N 
ATOM      9  N   UNL     1       3.256   6.420  19.624  0.00  0.00    +0.000 NA
ENDROOT
BRANCH   1  14
ATOM     10  C   UNL     1       0.404   9.758  21.397  0.00  0.00    +0.000 A 
ATOM     11  C   UNL     1       0.432  10.566  20.255  0.00  0.00    +0.000 A 
ATOM     12  C   UNL     1       0.980  10.073  19.071  0.00  0.00    +0.000 A 
ATOM     13  C   UNL     1       1.507   8.780  19.031  0.00  0.00    +0.000 A 
ATOM     14  C   UNL     1       1.508   7.977  20.181  0.00  0.00    +0.000 A 
ATOM     15  C   UNL     1       0.948   8.471  21.364  0.00  0.00    +0.000 A 
BRANCH  10  17
ATOM     16  N   UNL     1      -0.436   9.274  23.621  0.00  0.00    +0.000 N 
ATOM     17  C   UNL     1      -0.193  10.227  22.673  0.00  0.00    +0.000 C 
ATOM     18  O   UNL     1      -0.407  11.413  22.881  0.00  0.00    +0.000 OA
ATOM     19  H   UNL     1      -0.724   9.609  24.530  0.00  0.00    +0.000 HD
ATOM     20  H   UNL     1      -0.020   8.355  23.574  0.00  0.00    +0.000 HD
ENDBRANCH  10  17
ENDBRANCH   1  14
BRANCH   7  21
ATOM     21  C   UNL     1       5.941   5.436  18.593  0.00  0.00    +0.000 A 
ATOM     22  C   UNL     1       5.998   6.118  17.391  0.00  0.00    +0.000 A 
ATOM     23  C   UNL     1       7.222   6.828  17.214  0.00  0.00    +0.000 A 
ATOM     24  C   UNL     1       8.069   6.663  18.285  0.00  0.00    +0.000 A 
ATOM     25  S   UNL     1       7.395   5.650  19.484  0.00  0.00    +0.000 S 
ENDBRANCH   7  21
TORSDOF 3
ENDMDL
MODEL 5
REMARK VINA RESULT:      -7.7      1.879      2.444
REMARK  Name = 
REMARK  3 active torsions:
REMARK  status: ('A' for Active; 'I' for Inactive)
REMARK    1  A    between atoms: C_2  and  C_4
REMARK    2  A    between atoms: C_8  and  C_9
REMARK    3  A    between atoms: C_15  and  C_16
REMARK                            x       y       z     vdW  Elec       q    Type
REMARK                         _______ _______ _______ _____ _____    ______ ____
ROOT
ATOM      1  C   UNL     1       2.026   6.453  20.240  0.00  0.00    +0.000 A 
ATOM      2  C   UNL     1       1.123   5.314  20.586  0.00  0.00    +0.000 A 
ATOM      3  C   UNL     1       1.558   4.074  20.329  0.00  0.00    +0.000 A 
ATOM      4  C   UNL     1       2.839   3.888  19.771  0.00  0.00    +0.000 A 
ATOM      5  N   UNL     1       3.476   2.785  19.452  0.00  0.00    +0.000 NA
ATOM      6  C   UNL     1       4.690   3.209  18.977  0.00  0.00    +0.000 A 
ATOM      7  C   UNL     1       4.800   4.588  18.994  0.00  0.00    +0.000 A 
ATOM      8  N   UNL     1       3.595   5.022  19.515  0.00  0.00    +0.000 N 
ATOM      9  N   UNL     1       3.220   6.323  19.742  0.00  0.00    +0.000 NA
ENDROOT
BRANCH   1  14
ATOM     10  C   UNL     1       1.001  10.082  19.770  0.00  0.00    +0.000 A 
ATOM     11  C   UNL     1       0.559  10.409  21.056  0.00  0.00    +0.000 A 
ATOM     12  C   UNL     1       0.606   9.450  22.069  0.00  0.00    +0.000 A 
ATOM     13  C   UNL     1       1.084   8.167  21.793  0.00  0.00    +0.000 A 
ATOM     14  C   UNL     1       1.500   7.826  20.498  0.00  0.00    +0.000 A 
ATOM     15  C   UNL     1       1.461   8.792  19.487  0.00  0.00    +0.000 A 
BRANCH  10  17
ATOM     16  N   UNL     1       2.072  11.057  17.823  0.00  0.00    +0.000 N 
ATOM     17  C   UNL     1       0.997  11.075  18.665  0.00  0.00    +0.000 C 
ATOM     18  O   UNL     1       0.053  11.832  18.491  0.00  0.00    +0.000 OA
ATOM     19  H   UNL     1       2.009  11.645  17.003  0.00  0.00    +0.000 HD
ATOM     20  H   UNL     1       2.711  10.275  17.788  0.00  0.00    +0.000 HD
ENDBRANCH  10  17
ENDBRANCH   1  14
BRANCH   7  21
ATOM     21  C   UNL     1       5.888   5.433  18.588  0.00  0.00    +0.000 A 
ATOM     22  C   UNL     1       7.074   5.675  19.255  0.00  0.00    +0.000 A 
ATOM     23  C   UNL     1       7.936   6.566  18.550  0.00  0.00    +0.000 A 
ATOM     24  C   UNL     1       7.379   6.985  17.364  0.00  0.00    +0.000 A 
ATOM     25  S   UNL     1       5.826   6.316  17.115  0.00  0.00    +0.000 S 
ENDBRANCH   7  21
TORSDOF 3
ENDMDL
MODEL 6
REMARK VINA RESULT:      -7.6      3.901      7.868
REMARK  Name = 
REMARK  3 active torsions:
REMARK  status: ('A' for Active; 'I' for Inactive)
REMARK    1  A    between atoms: C_2  and  C_4
REMARK    2  A    between atoms: C_8  and  C_9
REMARK    3  A    between atoms: C_15  and  C_16
REMARK                            x       y       z     vdW  Elec       q    Type
REMARK                         _______ _______ _______ _____ _____    ______ ____
ROOT
ATOM      1  C   UNL     1       2.257   6.855  19.198  0.00  0.00    +0.000 A 
ATOM      2  C   UNL     1       2.907   7.170  17.890  0.00  0.00    +0.000 A 
ATOM      3  C   UNL     1       2.813   8.426  17.435  0.00  0.00    +0.000 A 
ATOM      4  C   UNL     1       2.134   9.395  18.201  0.00  0.00    +0.000 A 
ATOM      5  N   UNL     1       1.930  10.672  17.971  0.00  0.00    +0.000 NA
ATOM      6  C   UNL     1       1.237  11.116  19.068  0.00  0.00    +0.000 A 
ATOM      7  C   UNL     1       1.002  10.102  19.979  0.00  0.00    +0.000 A 
ATOM      8  N   UNL     1       1.592   8.987  19.410  0.00  0.00    +0.000 N 
ATOM      9  N   UNL     1       1.639   7.723  19.943  0.00  0.00    +0.000 NA
ENDROOT
BRANCH   1  14
ATOM     10  C   UNL     1       2.681   3.078  19.234  0.00  0.00    +0.000 A 
ATOM     11  C   UNL     1       2.424   2.789  20.579  0.00  0.00    +0.000 A 
ATOM     12  C   UNL     1       2.108   3.823  21.461  0.00  0.00    +0.000 A 
ATOM     13  C   UNL     1       2.056   5.141  21.003  0.00  0.00    +0.000 A 
ATOM     14  C   UNL     1       2.341   5.439  19.662  0.00  0.00    +0.000 A 
ATOM     15  C   UNL     1       2.649   4.400  18.778  0.00  0.00    +0.000 A 
BRANCH  10  17
ATOM     16  N   UNL     1       4.034   1.181  18.560  0.00  0.00    +0.000 N 
ATOM     17  C   UNL     1       2.995   2.012  18.251  0.00  0.00    +0.000 C 
ATOM     18  O   UNL     1       2.324   1.855  17.241  0.00  0.00    +0.000 OA
ATOM     19  H   UNL     1       4.167   0.383  17.954  0.00  0.00    +0.000 HD
ATOM     20  H   UNL     1       4.413   1.124  19.495  0.00  0.00    +0.000 HD
ENDBRANCH  10  17
ENDBRANCH   1  14
BRANCH   7  21
ATOM     21  C   UNL     1       0.320  10.135  21.242  0.00  0.00    +0.000 A 
ATOM     22  C   UNL     1       0.473   9.276  22.315  0.00  0.00    +0.000 A 
ATOM     23  C   UNL     1      -0.365   9.615  23.419  0.00  0.00    +0.000 A 
ATOM     24  C   UNL     1      -1.138  10.721  23.155  0.00  0.00    +0.000 A 
ATOM     25  S   UNL     1      -0.862  11.334  21.584  0.00  0.00    +0.000 S 
ENDBRANCH   7  21
TORSDOF 3
ENDMDL
MODEL 7
REMARK VINA RESULT:      -7.6      1.198      1.266
REMARK  Name = 
REMARK  3 active torsions:
REMARK  status: ('A' for Active; 'I' for Inactive)
REMARK    1  A    between atoms: C_2  and  C_4
REMARK    2  A    between atoms: C_8  and  C_9
REMARK    3  A    between atoms: C_15  and  C_16
REMARK                            x       y       z     vdW  Elec       q    Type
REMARK                         _______ _______ _______ _____ _____    ______ ____
ROOT
ATOM      1  C   UNL     1       2.168   6.476  19.906  0.00  0.00    +0.000 A 
ATOM      2  C   UNL     1       1.702   5.578  21.005  0.00  0.00    +0.000 A 
ATOM      3  C   UNL     1       2.103   4.301  20.979  0.00  0.00    +0.000 A 
ATOM      4  C   UNL     1       2.952   3.859  19.944  0.00  0.00    +0.000 A 
ATOM      5  N   UNL     1       3.479   2.677  19.721  0.00  0.00    +0.000 NA
ATOM      6  C   UNL     1       4.237   2.841  18.590  0.00  0.00    +0.000 A 
ATOM      7  C   UNL     1       4.169   4.135  18.105  0.00  0.00    +0.000 A 
ATOM      8  N   UNL     1       3.336   4.791  18.992  0.00  0.00    +0.000 N 
ATOM      9  N   UNL     1       2.966   6.112  18.945  0.00  0.00    +0.000 NA
ENDROOT
BRANCH   1  14
ATOM     10  C   UNL     1       0.571   9.725  21.062  0.00  0.00    +0.000 A 
ATOM     11  C   UNL     1       0.707  10.517  19.917  0.00  0.00    +0.000 A 
ATOM     12  C   UNL     1       1.309   9.986  18.775  0.00  0.00    +0.000 A 
ATOM     13  C   UNL     1       1.781   8.672  18.782  0.00  0.00    +0.000 A 
ATOM     14  C   UNL     1       1.673   7.884  19.937  0.00  0.00    +0.000 A 
ATOM     15  C   UNL     1       1.061   8.415  21.076  0.00  0.00    +0.000 A 
BRANCH  10  17
ATOM     16  N   UNL     1      -0.503   9.297  23.195  0.00  0.00    +0.000 N 
ATOM     17  C   UNL     1      -0.086  10.234  22.292  0.00  0.00    +0.000 C 
ATOM     18  O   UNL     1      -0.199  11.432  22.507  0.00  0.00    +0.000 OA
ATOM     19  H   UNL     1      -0.835   9.647  24.083  0.00  0.00    +0.000 HD
ATOM     20  H   UNL     1      -0.178   8.341  23.163  0.00  0.00    +0.000 HD
ENDBRANCH  10  17
ENDBRANCH   1  14
BRANCH   7  21
ATOM     21  C   UNL     1       4.800   4.725  16.957  0.00  0.00    +0.000 A 
ATOM     22  C   UNL     1       4.755   6.044  16.544  0.00  0.00    +0.000 A 
ATOM     23  C   UNL     1       5.512   6.279  15.358  0.00  0.00    +0.000 A 
ATOM     24  C   UNL     1       6.111   5.130  14.897  0.00  0.00    +0.000 A 
ATOM     25  S   UNL     1       5.749   3.780  15.880  0.00  0.00    +0.000 S 
ENDBRANCH   7  21
TORSDOF 3
ENDMDL
MODEL 8
REMARK VINA RESULT:      -7.5      1.579      2.062
REMARK  Name = 
REMARK  3 active torsions:
REMARK  status: ('A' for Active; 'I' for Inactive)
REMARK    1  A    between atoms: C_2  and  C_4
REMARK    2  A    between atoms: C_8  and  C_9
REMARK    3  A    between atoms: C_15  and  C_16
REMARK                            x       y       z     vdW  Elec       q    Type
REMARK                         _______ _______ _______ _____ _____    ______ ____
ROOT
ATOM      1  C   UNL     1       1.968   5.593  19.816  0.00  0.00    +0.000 A 
ATOM      2  C   UNL     1       1.170   4.563  20.547  0.00  0.00    +0.000 A 
ATOM      3  C   UNL     1       1.433   3.275  20.294  0.00  0.00    +0.000 A 
ATOM      4  C   UNL     1       2.450   2.940  19.376  0.00  0.00    +0.000 A 
ATOM      5  N   UNL     1       2.890   1.766  18.985  0.00  0.00    +0.000 NA
ATOM      6  C   UNL     1       3.903   2.050  18.105  0.00  0.00    +0.000 A 
ATOM      7  C   UNL     1       4.083   3.412  17.944  0.00  0.00    +0.000 A 
ATOM      8  N   UNL     1       3.138   3.984  18.777  0.00  0.00    +0.000 N 
ATOM      9  N   UNL     1       2.926   5.325  18.977  0.00  0.00    +0.000 NA
ENDROOT
BRANCH   1  14
ATOM     10  C   UNL     1       1.435   9.330  19.380  0.00  0.00    +0.000 A 
ATOM     11  C   UNL     1       1.033   9.699  20.669  0.00  0.00    +0.000 A 
ATOM     12  C   UNL     1       0.947   8.732  21.670  0.00  0.00    +0.000 A 
ATOM     13  C   UNL     1       1.252   7.399  21.383  0.00  0.00    +0.000 A 
ATOM     14  C   UNL     1       1.627   7.020  20.086  0.00  0.00    +0.000 A 
ATOM     15  C   UNL     1       1.723   7.993  19.086  0.00  0.00    +0.000 A 
BRANCH  10  17
ATOM     16  N   UNL     1       0.692  11.373  18.303  0.00  0.00    +0.000 N 
ATOM     17  C   UNL     1       1.569  10.325  18.287  0.00  0.00    +0.000 C 
ATOM     18  O   UNL     1       2.452  10.237  17.447  0.00  0.00    +0.000 OA
ATOM     19  H   UNL     1       0.864  12.112  17.635  0.00  0.00    +0.000 HD
ATOM     20  H   UNL     1       0.150  11.604  19.124  0.00  0.00    +0.000 HD
ENDBRANCH  10  17
ENDBRANCH   1  14
BRANCH   7  21
ATOM     21  C   UNL     1       5.020   4.130  17.126  0.00  0.00    +0.000 A 
ATOM     22  C   UNL     1       4.959   4.364  15.765  0.00  0.00    +0.000 A 
ATOM     23  C   UNL     1       6.064   5.125  15.283  0.00  0.00    +0.000 A 
ATOM     24  C   UNL     1       6.942   5.447  16.292  0.00  0.00    +0.000 A 
ATOM     25  S   UNL     1       6.440   4.823  17.801  0.00  0.00    +0.000 S 
ENDBRANCH   7  21
TORSDOF 3
ENDMDL
MODEL 9
REMARK VINA RESULT:      -7.4      3.692      7.256
REMARK  Name = 
REMARK  3 active torsions:
REMARK  status: ('A' for Active; 'I' for Inactive)
REMARK    1  A    between atoms: C_2  and  C_4
REMARK    2  A    between atoms: C_8  and  C_9
REMARK    3  A    between atoms: C_15  and  C_16
REMARK                            x       y       z     vdW  Elec       q    Type
REMARK                         _______ _______ _______ _____ _____    ______ ____
ROOT
ATOM      1  C   UNL     1       4.534   4.428  17.348  0.00  0.00    +0.000 A 
ATOM      2  C   UNL     1       4.516   3.090  18.015  0.00  0.00    +0.000 A 
ATOM      3  C   UNL     1       3.773   2.956  19.120  0.00  0.00    +0.000 A 
ATOM      4  C   UNL     1       3.030   4.054  19.598  0.00  0.00    +0.000 A 
ATOM      5  N   UNL     1       2.231   4.155  20.635  0.00  0.00    +0.000 NA
ATOM      6  C   UNL     1       1.766   5.444  20.593  0.00  0.00    +0.000 A 
ATOM      7  C   UNL     1       2.292   6.149  19.525  0.00  0.00    +0.000 A 
ATOM      8  N   UNL     1       3.109   5.238  18.881  0.00  0.00    +0.000 N 
ATOM      9  N   UNL     1       3.849   5.459  17.746  0.00  0.00    +0.000 NA
ENDROOT
BRANCH   1  14
ATOM     10  C   UNL     1       5.929   4.044  13.835  0.00  0.00    +0.000 A 
ATOM     11  C   UNL     1       7.104   4.799  13.924  0.00  0.00    +0.000 A 
ATOM     12  C   UNL     1       7.436   5.420  15.128  0.00  0.00    +0.000 A 
ATOM     13  C   UNL     1       6.594   5.294  16.236  0.00  0.00    +0.000 A 
ATOM     14  C   UNL     1       5.402   4.562  16.142  0.00  0.00    +0.000 A 
ATOM     15  C   UNL     1       5.075   3.932  14.936  0.00  0.00    +0.000 A 
BRANCH  10  17
ATOM     16  N   UNL     1       6.443   2.439  12.088  0.00  0.00    +0.000 N 
ATOM     17  C   UNL     1       5.545   3.341  12.585  0.00  0.00    +0.000 C 
ATOM     18  O   UNL     1       4.457   3.523  12.058  0.00  0.00    +0.000 OA
ATOM     19  H   UNL     1       6.129   1.874  11.312  0.00  0.00    +0.000 HD
ATOM     20  H   UNL     1       7.206   2.083  12.646  0.00  0.00    +0.000 HD
ENDBRANCH  10  17
ENDBRANCH   1  14
BRANCH   7  21
ATOM     21  C   UNL     1       2.073   7.509  19.119  0.00  0.00    +0.000 A 
ATOM     22  C   UNL     1       2.398   8.101  17.912  0.00  0.00    +0.000 A 
ATOM     23  C   UNL     1       2.023   9.476  17.850  0.00  0.00    +0.000 A 
ATOM     24  C   UNL     1       1.427   9.897  19.016  0.00  0.00    +0.000 A 
ATOM     25  S   UNL     1       1.334   8.645  20.175  0.00  0.00    +0.000 S 
ENDBRANCH   7  21
TORSDOF 3
ENDMDL
