MODEL 1
REMARK VINA RESULT:      -8.7      0.000      0.000
REMARK  Name = 
REMARK  4 active torsions:
REMARK  status: ('A' for Active; 'I' for Inactive)
REMARK    1  A    between atoms: C_2  and  C_3
REMARK    2  A    between atoms: C_3  and  O_4
REMARK    3  A    between atoms: O_4  and  C_5
REMARK    4  A    between atoms: N_19  and  C_20
REMARK                            x       y       z     vdW  Elec       q    Type
REMARK                         _______ _______ _______ _____ _____    ______ ____
ROOT
ATOM      1  C   UNL     1       6.508   6.801  17.368  0.00  0.00    +0.000 A 
ATOM      2  C   UNL     1       7.080   5.556  17.625  0.00  0.00    +0.000 A 
ATOM      3  C   UNL     1       6.270   4.453  17.941  0.00  0.00    +0.000 A 
ATOM      4  C   UNL     1       4.876   4.592  18.049  0.00  0.00    +0.000 A 
ATOM      5  C   UNL     1       4.307   5.849  17.773  0.00  0.00    +0.000 A 
ATOM      6  C   UNL     1       5.122   6.933  17.439  0.00  0.00    +0.000 A 
ATOM      7  C   UNL     1       2.839   6.132  17.978  0.00  0.00    +0.000 C 
ATOM      8  C   UNL     1       2.057   4.896  18.373  0.00  0.00    +0.000 C 
ATOM      9  N   UNL     1       2.822   4.031  19.273  0.00  0.00    +0.000 N 
ATOM     10  C   UNL     1       2.121   2.908  19.703  0.00  0.00    +0.000 C 
ATOM     11  O   UNL     1       1.502   2.803  20.747  0.00  0.00    +0.000 OA
ATOM     12  C   UNL     1       2.259   1.866  18.623  0.00  0.00    +0.000 C 
ATOM     13  C   UNL     1       3.523   2.307  17.857  0.00  0.00    +0.000 C 
ATOM     14  C   UNL     1       4.034   3.501  18.671  0.00  0.00    +0.000 C 
ENDROOT
BRANCH   1  15
ATOM     15  O   UNL     1       7.367   7.836  17.083  0.00  0.00    +0.000 OA
BRANCH  15  16
ATOM     16  C   UNL     1       8.279   8.108  18.141  0.00  0.00    +0.000 C 
BRANCH  16  18
ATOM     17  O   UNL     1       8.087  10.418  17.657  0.00  0.00    +0.000 OA
ATOM     18  C   UNL     1       8.577   9.572  18.401  0.00  0.00    +0.000 C 
ATOM     19  N   UNL     1       9.403   9.801  19.476  0.00  0.00    +0.000 N 
ATOM     20  H   UNL     1       9.804   8.974  19.918  0.00  0.00    +0.000 HD
BRANCH  19  21
ATOM     21  C   UNL     1       9.881  11.068  19.899  0.00  0.00    +0.000 A 
ATOM     22  C   UNL     1       9.211  11.854  20.836  0.00  0.00    +0.000 A 
ATOM     23  C   UNL     1       9.671  13.133  21.146  0.00  0.00    +0.000 A 
ATOM     24  C   UNL     1      10.810  13.622  20.517  0.00  0.00    +0.000 A 
ATOM     25  C   UNL     1      11.494  12.835  19.595  0.00  0.00    +0.000 A 
ATOM     26  C   UNL     1      11.039  11.552  19.292  0.00  0.00    +0.000 A 
ENDBRANCH  19  21
ENDBRANCH  16  18
ENDBRANCH  15  16
ENDBRANCH   1  15
TORSDOF 4
ENDMDL
MODEL 2
REMARK VINA RESULT:      -8.7      0.468      1.060
REMARK  Name = 
REMARK  4 active torsions:
REMARK  status: ('A' for Active; 'I' for Inactive)
REMARK    1  A    between atoms: C_2  and  C_3
REMARK    2  A    between atoms: C_3  and  O_4
REMARK    3  A    between atoms: O_4  and  C_5
REMARK    4  A    between atoms: N_19  and  C_20
REMARK                            x       y       z     vdW  Elec       q    Type
REMARK                         _______ _______ _______ _____ _____    ______ ____
ROOT
ATOM      1  C   UNL     1       6.112   6.652  17.372  0.00  0.00    +0.000 A 
ATOM      2  C   UNL     1       6.724   5.481  17.814  0.00  0.00    +0.000 A 
ATOM      3  C   UNL     1       5.948   4.392  18.243  0.00  0.00    +0.000 A 
ATOM      4  C   UNL     1       4.546   4.477  18.278  0.00  0.00    +0.000 A 
ATOM      5  C   UNL     1       3.937   5.658  17.817  0.00  0.00    +0.000 A 
ATOM      6  C   UNL     1       4.720   6.727  17.372  0.00  0.00    +0.000 A 
ATOM      7  C   UNL     1       2.452   5.896  17.927  0.00  0.00    +0.000 C 
ATOM      8  C   UNL     1       1.706   4.687  18.452  0.00  0.00    +0.000 C 
ATOM      9  N   UNL     1       2.466   3.984  19.488  0.00  0.00    +0.000 N 
ATOM     10  C   UNL     1       1.794   2.896  20.037  0.00  0.00    +0.000 C 
ATOM     11  O   UNL     1       1.135   2.900  21.062  0.00  0.00    +0.000 OA
ATOM     12  C   UNL     1       2.024   1.728  19.111  0.00  0.00    +0.000 C 
ATOM     13  C   UNL     1       3.301   2.125  18.342  0.00  0.00    +0.000 C 
ATOM     14  C   UNL     1       3.724   3.438  19.008  0.00  0.00    +0.000 C 
ENDROOT
BRANCH   1  15
ATOM     15  O   UNL     1       6.938   7.681  16.984  0.00  0.00    +0.000 OA
BRANCH  15  16
ATOM     16  C   UNL     1       8.022   7.891  17.883  0.00  0.00    +0.000 C 
BRANCH  16  18
ATOM     17  O   UNL     1       7.877  10.220  17.483  0.00  0.00    +0.000 OA
ATOM     18  C   UNL     1       8.361   9.337  18.186  0.00  0.00    +0.000 C 
ATOM     19  N   UNL     1       9.217   9.509  19.249  0.00  0.00    +0.000 N 
ATOM     20  H   UNL     1       9.607   8.658  19.653  0.00  0.00    +0.000 HD
BRANCH  19  21
ATOM     21  C   UNL     1       9.735  10.749  19.704  0.00  0.00    +0.000 A 
ATOM     22  C   UNL     1      10.776  11.415  19.060  0.00  0.00    +0.000 A 
ATOM     23  C   UNL     1      11.312  12.583  19.603  0.00  0.00    +0.000 A 
ATOM     24  C   UNL     1      10.798  13.084  20.793  0.00  0.00    +0.000 A 
ATOM     25  C   UNL     1       9.745  12.433  21.430  0.00  0.00    +0.000 A 
ATOM     26  C   UNL     1       9.203  11.271  20.883  0.00  0.00    +0.000 A 
ENDBRANCH  19  21
ENDBRANCH  16  18
ENDBRANCH  15  16
ENDBRANCH   1  15
TORSDOF 4
ENDMDL
MODEL 3
REMARK VINA RESULT:      -8.7      1.097      1.505
REMARK  Name = 
REMARK  4 active torsions:
REMARK  status: ('A' for Active; 'I' for Inactive)
REMARK    1  A    between atoms: C_2  and  C_3
REMARK    2  A    between atoms: C_3  and  O_4
REMARK    3  A    between atoms: O_4  and  C_5
REMARK    4  A    between atoms: N_19  and  C_20
REMARK                            x       y       z     vdW  Elec       q    Type
REMARK                         _______ _______ _______ _____ _____    ______ ____
ROOT
ATOM      1  C   UNL     1       6.261   6.287  17.065  0.00  0.00    +0.000 A 
ATOM      2  C   UNL     1       6.498   4.936  16.818  0.00  0.00    +0.000 A 
ATOM      3  C   UNL     1       5.545   3.970  17.176  0.00  0.00    +0.000 A 
ATOM      4  C   UNL     1       4.358   4.339  17.830  0.00  0.00    +0.000 A 
ATOM      5  C   UNL     1       4.121   5.706  18.063  0.00  0.00    +0.000 A 
ATOM      6  C   UNL     1       5.068   6.660  17.683  0.00  0.00    +0.000 A 
ATOM      7  C   UNL     1       2.940   6.196  18.864  0.00  0.00    +0.000 C 
ATOM      8  C   UNL     1       1.997   5.076  19.255  0.00  0.00    +0.000 C 
ATOM      9  N   UNL     1       2.719   3.848  19.593  0.00  0.00    +0.000 N 
ATOM     10  C   UNL     1       1.893   2.807  20.009  0.00  0.00    +0.000 C 
ATOM     11  O   UNL     1       1.629   2.516  21.162  0.00  0.00    +0.000 OA
ATOM     12  C   UNL     1       1.379   2.132  18.763  0.00  0.00    +0.000 C 
ATOM     13  C   UNL     1       2.411   2.528  17.687  0.00  0.00    +0.000 C 
ATOM     14  C   UNL     1       3.474   3.298  18.479  0.00  0.00    +0.000 C 
ENDROOT
BRANCH   1  15
ATOM     15  O   UNL     1       7.250   7.171  16.702  0.00  0.00    +0.000 OA
BRANCH  15  16
ATOM     16  C   UNL     1       7.113   8.444  17.324  0.00  0.00    +0.000 C 
BRANCH  16  18
ATOM     17  O   UNL     1       8.842   8.117  18.907  0.00  0.00    +0.000 OA
ATOM     18  C   UNL     1       8.297   8.913  18.146  0.00  0.00    +0.000 C 
ATOM     19  N   UNL     1       8.637  10.231  17.952  0.00  0.00    +0.000 N 
ATOM     20  H   UNL     1       8.008  10.775  17.362  0.00  0.00    +0.000 HD
BRANCH  19  21
ATOM     21  C   UNL     1       9.666  10.931  18.636  0.00  0.00    +0.000 A 
ATOM     22  C   UNL     1      10.855  11.316  18.019  0.00  0.00    +0.000 A 
ATOM     23  C   UNL     1      11.873  11.917  18.760  0.00  0.00    +0.000 A 
ATOM     24  C   UNL     1      11.694  12.134  20.121  0.00  0.00    +0.000 A 
ATOM     25  C   UNL     1      10.500  11.769  20.737  0.00  0.00    +0.000 A 
ATOM     26  C   UNL     1       9.478  11.177  19.995  0.00  0.00    +0.000 A 
ENDBRANCH  19  21
ENDBRANCH  16  18
ENDBRANCH  15  16
ENDBRANCH   1  15
TORSDOF 4
ENDMDL
MODEL 4
REMARK VINA RESULT:      -8.5      1.051      2.176
REMARK  Name = 
REMARK  4 active torsions:
REMARK  status: ('A' for Active; 'I' for Inactive)
REMARK    1  A    between atoms: C_2  and  C_3
REMARK    2  A    between atoms: C_3  and  O_4
REMARK    3  A    between atoms: O_4  and  C_5
REMARK    4  A    between atoms: N_19  and  C_20
REMARK                            x       y       z     vdW  Elec       q    Type
REMARK                         _______ _______ _______ _____ _____    ______ ____
ROOT
ATOM      1  C   UNL     1       5.819   6.722  17.449  0.00  0.00    +0.000 A 
ATOM      2  C   UNL     1       4.620   7.433  17.456  0.00  0.00    +0.000 A 
ATOM      3  C   UNL     1       3.462   6.867  18.012  0.00  0.00    +0.000 A 
ATOM      4  C   UNL     1       3.476   5.561  18.528  0.00  0.00    +0.000 A 
ATOM      5  C   UNL     1       4.694   4.856  18.529  0.00  0.00    +0.000 A 
ATOM      6  C   UNL     1       5.845   5.438  17.992  0.00  0.00    +0.000 A 
ATOM      7  C   UNL     1       4.789   3.410  18.947  0.00  0.00    +0.000 C 
ATOM      8  C   UNL     1       3.477   2.870  19.479  0.00  0.00    +0.000 C 
ATOM      9  N   UNL     1       2.329   3.398  18.739  0.00  0.00    +0.000 N 
ATOM     10  C   UNL     1       1.105   2.887  19.161  0.00  0.00    +0.000 C 
ATOM     11  O   UNL     1       0.508   1.949  18.664  0.00  0.00    +0.000 OA
ATOM     12  C   UNL     1       0.680   3.702  20.356  0.00  0.00    +0.000 C 
ATOM     13  C   UNL     1       1.476   5.014  20.199  0.00  0.00    +0.000 C 
ATOM     14  C   UNL     1       2.186   4.840  18.852  0.00  0.00    +0.000 C 
ENDROOT
BRANCH   1  15
ATOM     15  O   UNL     1       6.906   7.335  16.871  0.00  0.00    +0.000 OA
BRANCH  15  16
ATOM     16  C   UNL     1       7.953   7.599  17.798  0.00  0.00    +0.000 C 
BRANCH  16  18
ATOM     17  O   UNL     1       7.626   9.918  17.452  0.00  0.00    +0.000 OA
ATOM     18  C   UNL     1       8.224   9.060  18.097  0.00  0.00    +0.000 C 
ATOM     19  N   UNL     1       9.154   9.275  19.086  0.00  0.00    +0.000 N 
ATOM     20  H   UNL     1       9.631   8.446  19.441  0.00  0.00    +0.000 HD
BRANCH  19  21
ATOM     21  C   UNL     1       9.629  10.541  19.517  0.00  0.00    +0.000 A 
ATOM     22  C   UNL     1      10.535  11.300  18.778  0.00  0.00    +0.000 A 
ATOM     23  C   UNL     1      11.043  12.493  19.291  0.00  0.00    +0.000 A 
ATOM     24  C   UNL     1      10.637  12.926  20.548  0.00  0.00    +0.000 A 
ATOM     25  C   UNL     1       9.718  12.181  21.283  0.00  0.00    +0.000 A 
ATOM     26  C   UNL     1       9.203  10.993  20.765  0.00  0.00    +0.000 A 
ENDBRANCH  19  21
ENDBRANCH  16  18
ENDBRANCH  15  16
ENDBRANCH   1  15
TORSDOF 4
ENDMDL
MODEL 5
REMARK VINA RESULT:      -8.5      5.765      8.265
REMARK  Name = 
REMARK  4 active torsions:
REMARK  status: ('A' for Active; 'I' for Inactive)
REMARK    1  A    between atoms: C_2  and  C_3
REMARK    2  A    between atoms: C_3  and  O_4
REMARK    3  A    between atoms: O_4  and  C_5
REMARK    4  A    between atoms: N_19  and  C_20
REMARK                            x       y       z     vdW  Elec       q    Type
REMARK                         _______ _______ _______ _____ _____    ______ ____
ROOT
ATOM      1  C   UNL     1       1.811   7.995  19.502  0.00  0.00    +0.000 A 
ATOM      2  C   UNL     1       2.466   7.746  18.298  0.00  0.00    +0.000 A 
ATOM      3  C   UNL     1       2.899   6.449  17.980  0.00  0.00    +0.000 A 
ATOM      4  C   UNL     1       2.724   5.390  18.886  0.00  0.00    +0.000 A 
ATOM      5  C   UNL     1       2.050   5.648  20.093  0.00  0.00    +0.000 A 
ATOM      6  C   UNL     1       1.604   6.939  20.388  0.00  0.00    +0.000 A 
ATOM      7  C   UNL     1       1.919   4.612  21.182  0.00  0.00    +0.000 C 
ATOM      8  C   UNL     1       2.465   3.261  20.769  0.00  0.00    +0.000 C 
ATOM      9  N   UNL     1       3.671   3.388  19.949  0.00  0.00    +0.000 N 
ATOM     10  C   UNL     1       4.238   2.168  19.591  0.00  0.00    +0.000 C 
ATOM     11  O   UNL     1       5.151   1.603  20.166  0.00  0.00    +0.000 OA
ATOM     12  C   UNL     1       3.492   1.680  18.375  0.00  0.00    +0.000 C 
ATOM     13  C   UNL     1       2.873   2.967  17.791  0.00  0.00    +0.000 C 
ATOM     14  C   UNL     1       3.441   4.073  18.688  0.00  0.00    +0.000 C 
ENDROOT
BRANCH   1  15
ATOM     15  O   UNL     1       1.432   9.294  19.750  0.00  0.00    +0.000 OA
BRANCH  15  16
ATOM     16  C   UNL     1       1.497  10.121  18.594  0.00  0.00    +0.000 C 
BRANCH  16  18
ATOM     17  O   UNL     1       0.229  12.119  18.506  0.00  0.00    +0.000 OA
ATOM     18  C   UNL     1       0.244  10.913  18.273  0.00  0.00    +0.000 C 
ATOM     19  N   UNL     1      -0.782  10.163  17.748  0.00  0.00    +0.000 N 
ATOM     20  H   UNL     1      -0.634   9.155  17.721  0.00  0.00    +0.000 HD
BRANCH  19  21
ATOM     21  C   UNL     1      -2.075  10.645  17.415  0.00  0.00    +0.000 A 
ATOM     22  C   UNL     1      -2.946  11.186  18.359  0.00  0.00    +0.000 A 
ATOM     23  C   UNL     1      -4.241  11.556  17.997  0.00  0.00    +0.000 A 
ATOM     24  C   UNL     1      -4.659  11.388  16.682  0.00  0.00    +0.000 A 
ATOM     25  C   UNL     1      -3.787  10.867  15.731  0.00  0.00    +0.000 A 
ATOM     26  C   UNL     1      -2.489  10.505  16.091  0.00  0.00    +0.000 A 
ENDBRANCH  19  21
ENDBRANCH  16  18
ENDBRANCH  15  16
ENDBRANCH   1  15
TORSDOF 4
ENDMDL
MODEL 6
REMARK VINA RESULT:      -8.5      1.284      2.143
REMARK  Name = 
REMARK  4 active torsions:
REMARK  status: ('A' for Active; 'I' for Inactive)
REMARK    1  A    between atoms: C_2  and  C_3
REMARK    2  A    between atoms: C_3  and  O_4
REMARK    3  A    between atoms: O_4  and  C_5
REMARK    4  A    between atoms: N_19  and  C_20
REMARK                            x       y       z     vdW  Elec       q    Type
REMARK                         _______ _______ _______ _____ _____    ______ ____
ROOT
ATOM      1  C   UNL     1       5.866   6.547  17.462  0.00  0.00    +0.000 A 
ATOM      2  C   UNL     1       4.654   7.232  17.392  0.00  0.00    +0.000 A 
ATOM      3  C   UNL     1       3.489   6.674  17.944  0.00  0.00    +0.000 A 
ATOM      4  C   UNL     1       3.513   5.400  18.536  0.00  0.00    +0.000 A 
ATOM      5  C   UNL     1       4.744   4.723  18.614  0.00  0.00    +0.000 A 
ATOM      6  C   UNL     1       5.899   5.298  18.080  0.00  0.00    +0.000 A 
ATOM      7  C   UNL     1       4.853   3.305  19.117  0.00  0.00    +0.000 C 
ATOM      8  C   UNL     1       3.536   2.768  19.640  0.00  0.00    +0.000 C 
ATOM      9  N   UNL     1       2.402   3.230  18.836  0.00  0.00    +0.000 N 
ATOM     10  C   UNL     1       1.176   2.718  19.250  0.00  0.00    +0.000 C 
ATOM     11  O   UNL     1       0.613   1.741  18.790  0.00  0.00    +0.000 OA
ATOM     12  C   UNL     1       0.697   3.590  20.382  0.00  0.00    +0.000 C 
ATOM     13  C   UNL     1       1.472   4.908  20.174  0.00  0.00    +0.000 C 
ATOM     14  C   UNL     1       2.228   4.672  18.861  0.00  0.00    +0.000 C 
ENDROOT
BRANCH   1  15
ATOM     15  O   UNL     1       6.958   7.150  16.883  0.00  0.00    +0.000 OA
BRANCH  15  16
ATOM     16  C   UNL     1       7.072   8.529  17.214  0.00  0.00    +0.000 C 
BRANCH  16  18
ATOM     17  O   UNL     1       8.738   8.045  18.825  0.00  0.00    +0.000 OA
ATOM     18  C   UNL     1       8.242   8.905  18.101  0.00  0.00    +0.000 C 
ATOM     19  N   UNL     1       8.629  10.221  18.005  0.00  0.00    +0.000 N 
ATOM     20  H   UNL     1       8.036  10.822  17.432  0.00  0.00    +0.000 HD
BRANCH  19  21
ATOM     21  C   UNL     1       9.655  10.842  18.763  0.00  0.00    +0.000 A 
ATOM     22  C   UNL     1       9.512  11.155  20.114  0.00  0.00    +0.000 A 
ATOM     23  C   UNL     1      10.514  11.851  20.789  0.00  0.00    +0.000 A 
ATOM     24  C   UNL     1      11.665  12.229  20.107  0.00  0.00    +0.000 A 
ATOM     25  C   UNL     1      11.821  11.902  18.763  0.00  0.00    +0.000 A 
ATOM     26  C   UNL     1      10.823  11.197  18.090  0.00  0.00    +0.000 A 
ENDBRANCH  19  21
ENDBRANCH  16  18
ENDBRANCH  15  16
ENDBRANCH   1  15
TORSDOF 4
ENDMDL
MODEL 7
REMARK VINA RESULT:      -8.3      1.021      1.419
REMARK  Name = 
REMARK  4 active torsions:
REMARK  status: ('A' for Active; 'I' for Inactive)
REMARK    1  A    between atoms: C_2  and  C_3
REMARK    2  A    between atoms: C_3  and  O_4
REMARK    3  A    between atoms: O_4  and  C_5
REMARK    4  A    between atoms: N_19  and  C_20
REMARK                            x       y       z     vdW  Elec       q    Type
REMARK                         _______ _______ _______ _____ _____    ______ ____
ROOT
ATOM      1  C   UNL     1       6.993   6.851  17.406  0.00  0.00    +0.000 A 
ATOM      2  C   UNL     1       7.445   5.597  17.811  0.00  0.00    +0.000 A 
ATOM      3  C   UNL     1       6.531   4.592  18.166  0.00  0.00    +0.000 A 
ATOM      4  C   UNL     1       5.149   4.844  18.164  0.00  0.00    +0.000 A 
ATOM      5  C   UNL     1       4.701   6.108  17.740  0.00  0.00    +0.000 A 
ATOM      6  C   UNL     1       5.620   7.093  17.369  0.00  0.00    +0.000 A 
ATOM      7  C   UNL     1       3.251   6.518  17.817  0.00  0.00    +0.000 C 
ATOM      8  C   UNL     1       2.349   5.386  18.264  0.00  0.00    +0.000 C 
ATOM      9  N   UNL     1       2.984   4.554  19.287  0.00  0.00    +0.000 N 
ATOM     10  C   UNL     1       2.169   3.532  19.766  0.00  0.00    +0.000 C 
ATOM     11  O   UNL     1       1.480   3.571  20.769  0.00  0.00    +0.000 OA
ATOM     12  C   UNL     1       2.290   2.386  18.794  0.00  0.00    +0.000 C 
ATOM     13  C   UNL     1       3.631   2.658  18.082  0.00  0.00    +0.000 C 
ATOM     14  C   UNL     1       4.184   3.881  18.821  0.00  0.00    +0.000 C 
ENDROOT
BRANCH   1  15
ATOM     15  O   UNL     1       7.948   7.789  17.091  0.00  0.00    +0.000 OA
BRANCH  15  16
ATOM     16  C   UNL     1       7.637   9.087  17.584  0.00  0.00    +0.000 C 
BRANCH  16  18
ATOM     17  O   UNL     1       9.187   9.224  19.368  0.00  0.00    +0.000 OA
ATOM     18  C   UNL     1       8.732   9.779  18.371  0.00  0.00    +0.000 C 
ATOM     19  N   UNL     1       9.101  11.006  17.872  0.00  0.00    +0.000 N 
ATOM     20  H   UNL     1       8.542  11.362  17.097  0.00  0.00    +0.000 HD
BRANCH  19  21
ATOM     21  C   UNL     1      10.058  11.882  18.448  0.00  0.00    +0.000 A 
ATOM     22  C   UNL     1      11.418  11.816  18.151  0.00  0.00    +0.000 A 
ATOM     23  C   UNL     1      12.328  12.636  18.817  0.00  0.00    +0.000 A 
ATOM     24  C   UNL     1      11.870  13.527  19.781  0.00  0.00    +0.000 A 
ATOM     25  C   UNL     1      10.511  13.610  20.068  0.00  0.00    +0.000 A 
ATOM     26  C   UNL     1       9.599  12.796  19.396  0.00  0.00    +0.000 A 
ENDBRANCH  19  21
ENDBRANCH  16  18
ENDBRANCH  15  16
ENDBRANCH   1  15
TORSDOF 4
ENDMDL
MODEL 8
REMARK VINA RESULT:      -8.3      5.422      7.465
REMARK  Name = 
REMARK  4 active torsions:
REMARK  status: ('A' for Active; 'I' for Inactive)
REMARK    1  A    between atoms: C_2  and  C_3
REMARK    2  A    between atoms: C_3  and  O_4
REMARK    3  A    between atoms: O_4  and  C_5
REMARK    4  A    between atoms: N_19  and  C_20
REMARK                            x       y       z     vdW  Elec       q    Type
REMARK                         _______ _______ _______ _____ _____    ______ ____
ROOT
ATOM      1  C   UNL     1       3.645   5.196  18.677  0.00  0.00    +0.000 A 
ATOM      2  C   UNL     1       3.233   4.954  19.986  0.00  0.00    +0.000 A 
ATOM      3  C   UNL     1       2.399   5.868  20.649  0.00  0.00    +0.000 A 
ATOM      4  C   UNL     1       2.002   7.062  20.025  0.00  0.00    +0.000 A 
ATOM      5  C   UNL     1       2.412   7.292  18.699  0.00  0.00    +0.000 A 
ATOM      6  C   UNL     1       3.224   6.364  18.043  0.00  0.00    +0.000 A 
ATOM      7  C   UNL     1       2.143   8.593  17.985  0.00  0.00    +0.000 C 
ATOM      8  C   UNL     1       1.284   9.538  18.801  0.00  0.00    +0.000 C 
ATOM      9  N   UNL     1       1.611   9.479  20.227  0.00  0.00    +0.000 N 
ATOM     10  C   UNL     1       0.881  10.371  21.008  0.00  0.00    +0.000 C 
ATOM     11  O   UNL     1       1.242  11.479  21.362  0.00  0.00    +0.000 OA
ATOM     12  C   UNL     1      -0.440   9.709  21.308  0.00  0.00    +0.000 C 
ATOM     13  C   UNL     1      -0.145   8.209  21.105  0.00  0.00    +0.000 C 
ATOM     14  C   UNL     1       1.361   8.177  20.822  0.00  0.00    +0.000 C 
ENDROOT
BRANCH   1  15
ATOM     15  O   UNL     1       4.476   4.264  18.101  0.00  0.00    +0.000 OA
BRANCH  15  16
ATOM     16  C   UNL     1       5.853   4.604  18.210  0.00  0.00    +0.000 C 
BRANCH  16  18
ATOM     17  O   UNL     1       7.893   4.394  17.027  0.00  0.00    +0.000 OA
ATOM     18  C   UNL     1       6.671   4.480  16.939  0.00  0.00    +0.000 C 
ATOM     19  N   UNL     1       5.928   4.490  15.783  0.00  0.00    +0.000 N 
ATOM     20  H   UNL     1       4.931   4.677  15.891  0.00  0.00    +0.000 HD
BRANCH  19  21
ATOM     21  C   UNL     1       6.448   4.445  14.463  0.00  0.00    +0.000 A 
ATOM     22  C   UNL     1       7.458   5.298  14.019  0.00  0.00    +0.000 A 
ATOM     23  C   UNL     1       7.866   5.277  12.686  0.00  0.00    +0.000 A 
ATOM     24  C   UNL     1       7.261   4.395  11.797  0.00  0.00    +0.000 A 
ATOM     25  C   UNL     1       6.265   3.528  12.240  0.00  0.00    +0.000 A 
ATOM     26  C   UNL     1       5.864   3.542  13.575  0.00  0.00    +0.000 A 
ENDBRANCH  19  21
ENDBRANCH  16  18
ENDBRANCH  15  16
ENDBRANCH   1  15
TORSDOF 4
ENDMDL
MODEL 9
REMARK VINA RESULT:      -8.2      5.814      8.542
REMARK  Name = 
REMARK  4 active torsions:
REMARK  status: ('A' for Active; 'I' for Inactive)
REMARK    1  A    between atoms: C_2  and  C_3
REMARK    2  A    between atoms: C_3  and  O_4
REMARK    3  A    between atoms: O_4  and  C_5
REMARK    4  A    between atoms: N_19  and  C_20
REMARK                            x       y       z     vdW  Elec       q    Type
REMARK                         _______ _______ _______ _____ _____    ______ ____
ROOT
ATOM      1  C   UNL     1       1.787   8.180  19.825  0.00  0.00    +0.000 A 
ATOM      2  C   UNL     1       2.365   8.000  18.570  0.00  0.00    +0.000 A 
ATOM      3  C   UNL     1       2.743   6.718  18.140  0.00  0.00    +0.000 A 
ATOM      4  C   UNL     1       2.588   5.603  18.980  0.00  0.00    +0.000 A 
ATOM      5  C   UNL     1       1.991   5.793  20.239  0.00  0.00    +0.000 A 
ATOM      6  C   UNL     1       1.600   7.070  20.647  0.00  0.00    +0.000 A 
ATOM      7  C   UNL     1       1.891   4.687  21.260  0.00  0.00    +0.000 C 
ATOM      8  C   UNL     1       2.374   3.355  20.725  0.00  0.00    +0.000 C 
ATOM      9  N   UNL     1       3.536   3.508  19.847  0.00  0.00    +0.000 N 
ATOM     10  C   UNL     1       4.046   2.303  19.374  0.00  0.00    +0.000 C 
ATOM     11  O   UNL     1       4.973   1.676  19.855  0.00  0.00    +0.000 OA
ATOM     12  C   UNL     1       3.219   1.919  18.173  0.00  0.00    +0.000 C 
ATOM     13  C   UNL     1       2.606   3.259  17.715  0.00  0.00    +0.000 C 
ATOM     14  C   UNL     1       3.255   4.285  18.651  0.00  0.00    +0.000 C 
ENDROOT
BRANCH   1  15
ATOM     15  O   UNL     1       1.460   9.468  20.183  0.00  0.00    +0.000 OA
BRANCH  15  16
ATOM     16  C   UNL     1       0.055   9.682  20.262  0.00  0.00    +0.000 C 
BRANCH  16  18
ATOM     17  O   UNL     1      -0.065  11.322  18.558  0.00  0.00    +0.000 OA
ATOM     18  C   UNL     1      -0.588  10.325  19.049  0.00  0.00    +0.000 C 
ATOM     19  N   UNL     1      -1.738   9.705  18.621  0.00  0.00    +0.000 N 
ATOM     20  H   UNL     1      -2.089   8.951  19.212  0.00  0.00    +0.000 HD
BRANCH  19  21
ATOM     21  C   UNL     1      -2.562  10.135  17.548  0.00  0.00    +0.000 A 
ATOM     22  C   UNL     1      -2.260   9.873  16.213  0.00  0.00    +0.000 A 
ATOM     23  C   UNL     1      -3.052  10.400  15.192  0.00  0.00    +0.000 A 
ATOM     24  C   UNL     1      -4.150  11.188  15.515  0.00  0.00    +0.000 A 
ATOM     25  C   UNL     1      -4.467  11.437  16.847  0.00  0.00    +0.000 A 
ATOM     26  C   UNL     1      -3.681  10.902  17.868  0.00  0.00    +0.000 A 
ENDBRANCH  19  21
ENDBRANCH  16  18
ENDBRANCH  15  16
ENDBRANCH   1  15
TORSDOF 4
ENDMDL
