MODEL 1
REMARK VINA RESULT:      -7.0      0.000      0.000
REMARK  Name = 
REMARK  5 active torsions:
REMARK  status: ('A' for Active; 'I' for Inactive)
REMARK    1  A    between atoms: C_1  and  C_2
REMARK    2  A    between atoms: C_2  and  N_3
REMARK    3  A    between atoms: C_10  and  C_11
REMARK    4  A    between atoms: C_11  and  C_12
REMARK    5  A    between atoms: C_11  and  N_19
REMARK                            x       y       z     vdW  Elec       q    Type
REMARK                         _______ _______ _______ _____ _____    ______ ____
ROOT
ATOM      1  C   UNL     1       4.995   5.215  16.723  0.00  0.00    +0.000 C 
ENDROOT
BRANCH   1   9
ATOM      2  N   UNL     1       2.717   5.845  18.954  0.00  0.00    +0.000 N 
ATOM      3  C   UNL     1       1.629   5.614  19.919  0.00  0.00    +0.000 C 
ATOM      4  C   UNL     1       1.613   4.129  20.257  0.00  0.00    +0.000 C 
ATOM      5  C   UNL     1       2.488   3.579  19.181  0.00  0.00    +0.000 A 
ATOM      6  C   UNL     1       2.666   2.226  18.928  0.00  0.00    +0.000 A 
ATOM      7  C   UNL     1       3.572   1.865  17.952  0.00  0.00    +0.000 A 
ATOM      8  C   UNL     1       4.293   2.857  17.282  0.00  0.00    +0.000 A 
ATOM      9  C   UNL     1       4.127   4.252  17.537  0.00  0.00    +0.000 A 
ATOM     10  C   UNL     1       3.174   4.618  18.503  0.00  0.00    +0.000 A 
BRANCH   2  12
ATOM     11  C   UNL     1       2.377   7.991  17.854  0.00  0.00    +0.000 C 
ATOM     12  C   UNL     1       3.223   7.197  18.832  0.00  0.00    +0.000 C 
ENDBRANCH   2  12
ENDBRANCH   1   9
BRANCH   1  13
ATOM     13  C   UNL     1       6.180   5.788  17.530  0.00  0.00    +0.000 A 
ATOM     14  C   UNL     1       6.822   5.073  18.556  0.00  0.00    +0.000 A 
ATOM     15  C   UNL     1       7.867   5.644  19.288  0.00  0.00    +0.000 A 
ATOM     16  C   UNL     1       8.289   6.944  19.014  0.00  0.00    +0.000 A 
ATOM     17  C   UNL     1       7.672   7.662  17.997  0.00  0.00    +0.000 A 
ATOM     18 CL   UNL     1       8.183   9.267  17.645  0.00  0.00    +0.000 Cl
ATOM     19  C   UNL     1       6.636   7.091  17.257  0.00  0.00    +0.000 A 
ENDBRANCH   1  13
BRANCH   1  20
ATOM     20  N   UNL     1       5.440   4.685  15.412  0.00  0.00    +0.000 N 
ATOM     21  C   UNL     1       6.752   4.432  15.069  0.00  0.00    +0.000 A 
ATOM     22  C   UNL     1       6.709   3.937  13.788  0.00  0.00    +0.000 A 
ATOM     23  N   UNL     1       5.422   3.906  13.328  0.00  0.00    +0.000 NA
ATOM     24  C   UNL     1       4.686   4.382  14.310  0.00  0.00    +0.000 A 
ENDBRANCH   1  20
TORSDOF 4
ENDMDL
MODEL 2
REMARK VINA RESULT:      -6.7      2.090      4.430
REMARK  Name = 
REMARK  5 active torsions:
REMARK  status: ('A' for Active; 'I' for Inactive)
REMARK    1  A    between atoms: C_1  and  C_2
REMARK    2  A    between atoms: C_2  and  N_3
REMARK    3  A    between atoms: C_10  and  C_11
REMARK    4  A    between atoms: C_11  and  C_12
REMARK    5  A    between atoms: C_11  and  N_19
REMARK                            x       y       z     vdW  Elec       q    Type
REMARK                         _______ _______ _______ _____ _____    ______ ____
ROOT
ATOM      1  C   UNL     1       5.787   5.426  17.706  0.00  0.00    +0.000 C 
ENDROOT
BRANCH   1   9
ATOM      2  N   UNL     1       3.640   3.923  19.628  0.00  0.00    +0.000 N 
ATOM      3  C   UNL     1       2.421   3.695  20.422  0.00  0.00    +0.000 C 
ATOM      4  C   UNL     1       1.379   4.714  19.979  0.00  0.00    +0.000 C 
ATOM      5  C   UNL     1       2.221   5.667  19.199  0.00  0.00    +0.000 A 
ATOM      6  C   UNL     1       1.780   6.890  18.715  0.00  0.00    +0.000 A 
ATOM      7  C   UNL     1       2.649   7.629  17.938  0.00  0.00    +0.000 A 
ATOM      8  C   UNL     1       3.913   7.113  17.640  0.00  0.00    +0.000 A 
ATOM      9  C   UNL     1       4.378   5.853  18.123  0.00  0.00    +0.000 A 
ATOM     10  C   UNL     1       3.506   5.123  18.949  0.00  0.00    +0.000 A 
BRANCH   2  12
ATOM     11  C   UNL     1       3.957   1.649  18.814  0.00  0.00    +0.000 C 
ATOM     12  C   UNL     1       4.586   2.830  19.531  0.00  0.00    +0.000 C 
ENDBRANCH   2  12
ENDBRANCH   1   9
BRANCH   1  13
ATOM     13  C   UNL     1       5.856   4.914  16.251  0.00  0.00    +0.000 A 
ATOM     14  C   UNL     1       4.954   3.969  15.730  0.00  0.00    +0.000 A 
ATOM     15  C   UNL     1       5.076   3.503  14.418  0.00  0.00    +0.000 A 
ATOM     16  C   UNL     1       6.105   3.967  13.600  0.00  0.00    +0.000 A 
ATOM     17  C   UNL     1       6.999   4.908  14.095  0.00  0.00    +0.000 A 
ATOM     18 CL   UNL     1       8.273   5.492  13.097  0.00  0.00    +0.000 Cl
ATOM     19  C   UNL     1       6.874   5.383  15.401  0.00  0.00    +0.000 A 
ENDBRANCH   1  13
BRANCH   1  20
ATOM     20  N   UNL     1       6.842   6.433  17.975  0.00  0.00    +0.000 N 
ATOM     21  C   UNL     1       6.963   7.640  17.319  0.00  0.00    +0.000 A 
ATOM     22  C   UNL     1       8.048   8.262  17.889  0.00  0.00    +0.000 A 
ATOM     23  N   UNL     1       8.608   7.465  18.848  0.00  0.00    +0.000 NA
ATOM     24  C   UNL     1       7.883   6.367  18.862  0.00  0.00    +0.000 A 
ENDBRANCH   1  20
TORSDOF 4
ENDMDL
MODEL 3
REMARK VINA RESULT:      -6.6      5.857      8.983
REMARK  Name = 
REMARK  5 active torsions:
REMARK  status: ('A' for Active; 'I' for Inactive)
REMARK    1  A    between atoms: C_1  and  C_2
REMARK    2  A    between atoms: C_2  and  N_3
REMARK    3  A    between atoms: C_10  and  C_11
REMARK    4  A    between atoms: C_11  and  C_12
REMARK    5  A    between atoms: C_11  and  N_19
REMARK                            x       y       z     vdW  Elec       q    Type
REMARK                         _______ _______ _______ _____ _____    ______ ____
ROOT
ATOM      1  C   UNL     1       0.213  10.877  19.610  0.00  0.00    +0.000 C 
ENDROOT
BRANCH   1   9
ATOM      2  N   UNL     1      -2.528  12.450  20.368  0.00  0.00    +0.000 N 
ATOM      3  C   UNL     1      -3.901  12.969  20.245  0.00  0.00    +0.000 C 
ATOM      4  C   UNL     1      -4.610  12.161  19.166  0.00  0.00    +0.000 C 
ATOM      5  C   UNL     1      -3.457  11.467  18.522  0.00  0.00    +0.000 A 
ATOM      6  C   UNL     1      -3.542  10.728  17.350  0.00  0.00    +0.000 A 
ATOM      7  C   UNL     1      -2.406  10.073  16.917  0.00  0.00    +0.000 A 
ATOM      8  C   UNL     1      -1.236  10.148  17.678  0.00  0.00    +0.000 A 
ATOM      9  C   UNL     1      -1.137  10.897  18.888  0.00  0.00    +0.000 A 
ATOM     10  C   UNL     1      -2.283  11.596  19.304  0.00  0.00    +0.000 A 
BRANCH   2  12
ATOM     11  C   UNL     1      -2.590  12.179  22.787  0.00  0.00    +0.000 C 
ATOM     12  C   UNL     1      -1.819  12.727  21.600  0.00  0.00    +0.000 C 
ENDBRANCH   2  12
ENDBRANCH   1   9
BRANCH   1  13
ATOM     13  C   UNL     1       1.091   9.672  19.212  0.00  0.00    +0.000 A 
ATOM     14  C   UNL     1       1.818   9.620  18.009  0.00  0.00    +0.000 A 
ATOM     15  C   UNL     1       2.571   8.493  17.669  0.00  0.00    +0.000 A 
ATOM     16  C   UNL     1       2.610   7.391  18.522  0.00  0.00    +0.000 A 
ATOM     17  C   UNL     1       1.907   7.429  19.719  0.00  0.00    +0.000 A 
ATOM     18 CL   UNL     1       1.948   6.077  20.783  0.00  0.00    +0.000 Cl
ATOM     19  C   UNL     1       1.163   8.556  20.066  0.00  0.00    +0.000 A 
ENDBRANCH   1  13
BRANCH   1  20
ATOM     20  N   UNL     1       0.971  12.148  19.532  0.00  0.00    +0.000 N 
ATOM     21  C   UNL     1       0.925  13.030  18.472  0.00  0.00    +0.000 A 
ATOM     22  C   UNL     1       1.751  14.070  18.822  0.00  0.00    +0.000 A 
ATOM     23  N   UNL     1       2.322  13.841  20.042  0.00  0.00    +0.000 NA
ATOM     24  C   UNL     1       1.858  12.674  20.434  0.00  0.00    +0.000 A 
ENDBRANCH   1  20
TORSDOF 4
ENDMDL
MODEL 4
REMARK VINA RESULT:      -6.5      1.037      1.426
REMARK  Name = 
REMARK  5 active torsions:
REMARK  status: ('A' for Active; 'I' for Inactive)
REMARK    1  A    between atoms: C_1  and  C_2
REMARK    2  A    between atoms: C_2  and  N_3
REMARK    3  A    between atoms: C_10  and  C_11
REMARK    4  A    between atoms: C_11  and  C_12
REMARK    5  A    between atoms: C_11  and  N_19
REMARK                            x       y       z     vdW  Elec       q    Type
REMARK                         _______ _______ _______ _____ _____    ______ ____
ROOT
ATOM      1  C   UNL     1       4.932   5.306  16.637  0.00  0.00    +0.000 C 
ENDROOT
BRANCH   1   9
ATOM      2  N   UNL     1       2.784   5.927  18.994  0.00  0.00    +0.000 N 
ATOM      3  C   UNL     1       1.772   5.688  20.037  0.00  0.00    +0.000 C 
ATOM      4  C   UNL     1       1.837   4.217  20.423  0.00  0.00    +0.000 C 
ATOM      5  C   UNL     1       2.660   3.663  19.308  0.00  0.00    +0.000 A 
ATOM      6  C   UNL     1       2.873   2.310  19.087  0.00  0.00    +0.000 A 
ATOM      7  C   UNL     1       3.726   1.949  18.063  0.00  0.00    +0.000 A 
ATOM      8  C   UNL     1       4.362   2.944  17.316  0.00  0.00    +0.000 A 
ATOM      9  C   UNL     1       4.159   4.339  17.537  0.00  0.00    +0.000 A 
ATOM     10  C   UNL     1       3.258   4.702  18.552  0.00  0.00    +0.000 A 
BRANCH   2  12
ATOM     11  C   UNL     1       2.340   7.993  17.784  0.00  0.00    +0.000 C 
ATOM     12  C   UNL     1       3.228   7.291  18.796  0.00  0.00    +0.000 C 
ENDBRANCH   2  12
ENDBRANCH   1   9
BRANCH   1  13
ATOM     13  C   UNL     1       6.076   6.034  17.375  0.00  0.00    +0.000 A 
ATOM     14  C   UNL     1       6.550   7.300  16.989  0.00  0.00    +0.000 A 
ATOM     15  C   UNL     1       7.614   7.907  17.661  0.00  0.00    +0.000 A 
ATOM     16  C   UNL     1       8.231   7.260  18.730  0.00  0.00    +0.000 A 
ATOM     17  C   UNL     1       7.769   6.012  19.132  0.00  0.00    +0.000 A 
ATOM     18 CL   UNL     1       8.519   5.202  20.452  0.00  0.00    +0.000 Cl
ATOM     19  C   UNL     1       6.700   5.409  18.470  0.00  0.00    +0.000 A 
ENDBRANCH   1  13
BRANCH   1  20
ATOM     20  N   UNL     1       5.402   4.716  15.360  0.00  0.00    +0.000 N 
ATOM     21  C   UNL     1       6.716   4.412  15.069  0.00  0.00    +0.000 A 
ATOM     22  C   UNL     1       6.699   3.872  13.806  0.00  0.00    +0.000 A 
ATOM     23  N   UNL     1       5.427   3.862  13.306  0.00  0.00    +0.000 NA
ATOM     24  C   UNL     1       4.675   4.395  14.245  0.00  0.00    +0.000 A 
ENDBRANCH   1  20
TORSDOF 4
ENDMDL
MODEL 5
REMARK VINA RESULT:      -6.5      6.590     10.389
REMARK  Name = 
REMARK  5 active torsions:
REMARK  status: ('A' for Active; 'I' for Inactive)
REMARK    1  A    between atoms: C_1  and  C_2
REMARK    2  A    between atoms: C_2  and  N_3
REMARK    3  A    between atoms: C_10  and  C_11
REMARK    4  A    between atoms: C_11  and  C_12
REMARK    5  A    between atoms: C_11  and  N_19
REMARK                            x       y       z     vdW  Elec       q    Type
REMARK                         _______ _______ _______ _____ _____    ______ ____
ROOT
ATOM      1  C   UNL     1      -0.834  12.234  19.418  0.00  0.00    +0.000 C 
ENDROOT
BRANCH   1   9
ATOM      2  N   UNL     1       0.928   9.520  19.716  0.00  0.00    +0.000 N 
ATOM      3  C   UNL     1       1.582   8.362  20.347  0.00  0.00    +0.000 C 
ATOM      4  C   UNL     1       0.931   8.141  21.706  0.00  0.00    +0.000 C 
ATOM      5  C   UNL     1       0.182   9.421  21.878  0.00  0.00    +0.000 A 
ATOM      6  C   UNL     1      -0.452   9.807  23.049  0.00  0.00    +0.000 A 
ATOM      7  C   UNL     1      -1.176  10.982  23.034  0.00  0.00    +0.000 A 
ATOM      8  C   UNL     1      -1.272  11.716  21.848  0.00  0.00    +0.000 A 
ATOM      9  C   UNL     1      -0.631  11.326  20.634  0.00  0.00    +0.000 A 
ATOM     10  C   UNL     1       0.140  10.152  20.664  0.00  0.00    +0.000 A 
BRANCH   2  12
ATOM     11  C   UNL     1       2.033   8.635  17.734  0.00  0.00    +0.000 C 
ATOM     12  C   UNL     1       1.040   9.647  18.277  0.00  0.00    +0.000 C 
ENDBRANCH   2  12
ENDBRANCH   1   9
BRANCH   1  13
ATOM     13  C   UNL     1      -2.120  11.907  18.629  0.00  0.00    +0.000 A 
ATOM     14  C   UNL     1      -3.408  12.033  19.180  0.00  0.00    +0.000 A 
ATOM     15  C   UNL     1      -4.544  11.689  18.442  0.00  0.00    +0.000 A 
ATOM     16  C   UNL     1      -4.418  11.206  17.141  0.00  0.00    +0.000 A 
ATOM     17  C   UNL     1      -3.154  11.085  16.577  0.00  0.00    +0.000 A 
ATOM     18 CL   UNL     1      -2.983  10.492  14.971  0.00  0.00    +0.000 Cl
ATOM     19  C   UNL     1      -2.019  11.437  17.307  0.00  0.00    +0.000 A 
ENDBRANCH   1  13
BRANCH   1  20
ATOM     20  N   UNL     1      -0.733  13.685  19.709  0.00  0.00    +0.000 N 
ATOM     21  C   UNL     1       0.363  14.471  19.421  0.00  0.00    +0.000 A 
ATOM     22  C   UNL     1       0.026  15.738  19.832  0.00  0.00    +0.000 A 
ATOM     23  N   UNL     1      -1.224  15.747  20.386  0.00  0.00    +0.000 NA
ATOM     24  C   UNL     1      -1.645  14.502  20.322  0.00  0.00    +0.000 A 
ENDBRANCH   1  20
TORSDOF 4
ENDMDL
MODEL 6
REMARK VINA RESULT:      -6.4      6.020      9.119
REMARK  Name = 
REMARK  5 active torsions:
REMARK  status: ('A' for Active; 'I' for Inactive)
REMARK    1  A    between atoms: C_1  and  C_2
REMARK    2  A    between atoms: C_2  and  N_3
REMARK    3  A    between atoms: C_10  and  C_11
REMARK    4  A    between atoms: C_11  and  C_12
REMARK    5  A    between atoms: C_11  and  N_19
REMARK                            x       y       z     vdW  Elec       q    Type
REMARK                         _______ _______ _______ _____ _____    ______ ____
ROOT
ATOM      1  C   UNL     1      -0.289  11.047  19.792  0.00  0.00    +0.000 C 
ENDROOT
BRANCH   1   9
ATOM      2  N   UNL     1      -3.220  12.425  20.055  0.00  0.00    +0.000 N 
ATOM      3  C   UNL     1      -4.590  12.834  19.700  0.00  0.00    +0.000 C 
ATOM      4  C   UNL     1      -5.059  11.949  18.554  0.00  0.00    +0.000 C 
ATOM      5  C   UNL     1      -3.772  11.329  18.123  0.00  0.00    +0.000 A 
ATOM      6  C   UNL     1      -3.617  10.558  16.980  0.00  0.00    +0.000 A 
ATOM      7  C   UNL     1      -2.383   9.981  16.753  0.00  0.00    +0.000 A 
ATOM      8  C   UNL     1      -1.357  10.163  17.684  0.00  0.00    +0.000 A 
ATOM      9  C   UNL     1      -1.505  10.947  18.868  0.00  0.00    +0.000 A 
ATOM     10  C   UNL     1      -2.749  11.567  19.074  0.00  0.00    +0.000 A 
BRANCH   2  12
ATOM     11  C   UNL     1      -3.899  13.146  22.280  0.00  0.00    +0.000 C 
ATOM     12  C   UNL     1      -2.737  12.785  21.372  0.00  0.00    +0.000 C 
ENDBRANCH   2  12
ENDBRANCH   1   9
BRANCH   1  13
ATOM     13  C   UNL     1       0.523   9.737  19.865  0.00  0.00    +0.000 A 
ATOM     14  C   UNL     1       0.481   8.873  20.974  0.00  0.00    +0.000 A 
ATOM     15  C   UNL     1       1.263   7.715  21.016  0.00  0.00    +0.000 A 
ATOM     16  C   UNL     1       2.106   7.397  19.953  0.00  0.00    +0.000 A 
ATOM     17  C   UNL     1       2.152   8.234  18.844  0.00  0.00    +0.000 A 
ATOM     18 CL   UNL     1       3.187   7.853  17.523  0.00  0.00    +0.000 Cl
ATOM     19  C   UNL     1       1.366   9.385  18.795  0.00  0.00    +0.000 A 
ENDBRANCH   1  13
BRANCH   1  20
ATOM     20  N   UNL     1       0.589  12.213  19.530  0.00  0.00    +0.000 N 
ATOM     21  C   UNL     1       1.577  12.662  20.381  0.00  0.00    +0.000 A 
ATOM     22  C   UNL     1       2.152  13.736  19.746  0.00  0.00    +0.000 A 
ATOM     23  N   UNL     1       1.532  13.976  18.552  0.00  0.00    +0.000 NA
ATOM     24  C   UNL     1       0.585  13.066  18.458  0.00  0.00    +0.000 A 
ENDBRANCH   1  20
TORSDOF 4
ENDMDL
MODEL 7
REMARK VINA RESULT:      -6.4      7.959     10.040
REMARK  Name = 
REMARK  5 active torsions:
REMARK  status: ('A' for Active; 'I' for Inactive)
REMARK    1  A    between atoms: C_1  and  C_2
REMARK    2  A    between atoms: C_2  and  N_3
REMARK    3  A    between atoms: C_10  and  C_11
REMARK    4  A    between atoms: C_11  and  C_12
REMARK    5  A    between atoms: C_11  and  N_19
REMARK                            x       y       z     vdW  Elec       q    Type
REMARK                         _______ _______ _______ _____ _____    ______ ____
ROOT
ATOM      1  C   UNL     1      -1.122  12.094  19.853  0.00  0.00    +0.000 C 
ENDROOT
BRANCH   1   9
ATOM      2  N   UNL     1      -4.319  12.454  19.391  0.00  0.00    +0.000 N 
ATOM      3  C   UNL     1      -5.640  12.354  18.749  0.00  0.00    +0.000 C 
ATOM      4  C   UNL     1      -5.568  11.252  17.700  0.00  0.00    +0.000 C 
ATOM      5  C   UNL     1      -4.093  11.048  17.599  0.00  0.00    +0.000 A 
ATOM      6  C   UNL     1      -3.474  10.258  16.640  0.00  0.00    +0.000 A 
ATOM      7  C   UNL     1      -2.106  10.098  16.721  0.00  0.00    +0.000 A 
ATOM      8  C   UNL     1      -1.404  10.699  17.769  0.00  0.00    +0.000 A 
ATOM      9  C   UNL     1      -2.028  11.507  18.767  0.00  0.00    +0.000 A 
ATOM     10  C   UNL     1      -3.415  11.703  18.657  0.00  0.00    +0.000 A 
BRANCH   2  12
ATOM     11  C   UNL     1      -5.437  12.652  21.545  0.00  0.00    +0.000 C 
ATOM     12  C   UNL     1      -4.257  13.084  20.693  0.00  0.00    +0.000 C 
ENDBRANCH   2  12
ENDBRANCH   1   9
BRANCH   1  13
ATOM     13  C   UNL     1      -0.757  11.072  20.950  0.00  0.00    +0.000 A 
ATOM     14  C   UNL     1      -1.100  11.249  22.303  0.00  0.00    +0.000 A 
ATOM     15  C   UNL     1      -0.716  10.317  23.271  0.00  0.00    +0.000 A 
ATOM     16  C   UNL     1       0.024   9.192  22.911  0.00  0.00    +0.000 A 
ATOM     17  C   UNL     1       0.363   8.997  21.577  0.00  0.00    +0.000 A 
ATOM     18 CL   UNL     1       1.273   7.611  21.116  0.00  0.00    +0.000 Cl
ATOM     19  C   UNL     1      -0.028   9.919  20.607  0.00  0.00    +0.000 A 
ENDBRANCH   1  13
BRANCH   1  20
ATOM     20  N   UNL     1       0.082  12.790  19.340  0.00  0.00    +0.000 N 
ATOM     21  C   UNL     1       0.087  14.057  18.793  0.00  0.00    +0.000 A 
ATOM     22  C   UNL     1       1.398  14.317  18.475  0.00  0.00    +0.000 A 
ATOM     23  N   UNL     1       2.188  13.244  18.782  0.00  0.00    +0.000 NA
ATOM     24  C   UNL     1       1.372  12.336  19.275  0.00  0.00    +0.000 A 
ENDBRANCH   1  20
TORSDOF 4
ENDMDL
MODEL 8
REMARK VINA RESULT:      -6.3      6.412      9.618
REMARK  Name = 
REMARK  5 active torsions:
REMARK  status: ('A' for Active; 'I' for Inactive)
REMARK    1  A    between atoms: C_1  and  C_2
REMARK    2  A    between atoms: C_2  and  N_3
REMARK    3  A    between atoms: C_10  and  C_11
REMARK    4  A    between atoms: C_11  and  C_12
REMARK    5  A    between atoms: C_11  and  N_19
REMARK                            x       y       z     vdW  Elec       q    Type
REMARK                         _______ _______ _______ _____ _____    ______ ____
ROOT
ATOM      1  C   UNL     1      -1.059  11.232  19.705  0.00  0.00    +0.000 C 
ENDROOT
BRANCH   1   9
ATOM      2  N   UNL     1      -4.113  12.303  19.411  0.00  0.00    +0.000 N 
ATOM      3  C   UNL     1      -5.430  12.569  18.810  0.00  0.00    +0.000 C 
ATOM      4  C   UNL     1      -5.596  11.635  17.618  0.00  0.00    +0.000 C 
ATOM      5  C   UNL     1      -4.197  11.148  17.437  0.00  0.00    +0.000 A 
ATOM      6  C   UNL     1      -3.763  10.392  16.358  0.00  0.00    +0.000 A 
ATOM      7  C   UNL     1      -2.458   9.943  16.367  0.00  0.00    +0.000 A 
ATOM      8  C   UNL     1      -1.638  10.234  17.462  0.00  0.00    +0.000 A 
ATOM      9  C   UNL     1      -2.074  11.003  18.582  0.00  0.00    +0.000 A 
ATOM     10  C   UNL     1      -3.390  11.494  18.550  0.00  0.00    +0.000 A 
BRANCH   2  12
ATOM     11  C   UNL     1      -3.307  14.108  20.834  0.00  0.00    +0.000 C 
ATOM     12  C   UNL     1      -3.912  12.717  20.785  0.00  0.00    +0.000 C 
ENDBRANCH   2  12
ENDBRANCH   1   9
BRANCH   1  13
ATOM     13  C   UNL     1      -0.100  10.039  19.904  0.00  0.00    +0.000 A 
ATOM     14  C   UNL     1      -0.079   9.264  21.077  0.00  0.00    +0.000 A 
ATOM     15  C   UNL     1       0.833   8.215  21.232  0.00  0.00    +0.000 A 
ATOM     16  C   UNL     1       1.745   7.921  20.220  0.00  0.00    +0.000 A 
ATOM     17  C   UNL     1       1.731   8.670  19.049  0.00  0.00    +0.000 A 
ATOM     18 CL   UNL     1       2.849   8.318  17.790  0.00  0.00    +0.000 Cl
ATOM     19  C   UNL     1       0.816   9.710  18.888  0.00  0.00    +0.000 A 
ENDBRANCH   1  13
BRANCH   1  20
ATOM     20  N   UNL     1      -0.316  12.512  19.613  0.00  0.00    +0.000 N 
ATOM     21  C   UNL     1      -0.235  13.296  18.481  0.00  0.00    +0.000 A 
ATOM     22  C   UNL     1       0.521  14.385  18.840  0.00  0.00    +0.000 A 
ATOM     23  N   UNL     1       0.928  14.279  20.141  0.00  0.00    +0.000 NA
ATOM     24  C   UNL     1       0.434  13.138  20.572  0.00  0.00    +0.000 A 
ENDBRANCH   1  20
TORSDOF 4
ENDMDL
MODEL 9
REMARK VINA RESULT:      -6.2      2.639      5.762
REMARK  Name = 
REMARK  5 active torsions:
REMARK  status: ('A' for Active; 'I' for Inactive)
REMARK    1  A    between atoms: C_1  and  C_2
REMARK    2  A    between atoms: C_2  and  N_3
REMARK    3  A    between atoms: C_10  and  C_11
REMARK    4  A    between atoms: C_11  and  C_12
REMARK    5  A    between atoms: C_11  and  N_19
REMARK                            x       y       z     vdW  Elec       q    Type
REMARK                         _______ _______ _______ _____ _____    ______ ____
ROOT
ATOM      1  C   UNL     1       3.422   5.047  19.482  0.00  0.00    +0.000 C 
ENDROOT
BRANCH   1   9
ATOM      2  N   UNL     1       6.462   4.960  18.338  0.00  0.00    +0.000 N 
ATOM      3  C   UNL     1       7.593   4.654  17.445  0.00  0.00    +0.000 C 
ATOM      4  C   UNL     1       7.023   4.266  16.087  0.00  0.00    +0.000 C 
ATOM      5  C   UNL     1       5.586   4.052  16.428  0.00  0.00    +0.000 A 
ATOM      6  C   UNL     1       4.647   3.509  15.563  0.00  0.00    +0.000 A 
ATOM      7  C   UNL     1       3.335   3.448  15.990  0.00  0.00    +0.000 A 
ATOM      8  C   UNL     1       2.997   3.959  17.246  0.00  0.00    +0.000 A 
ATOM      9  C   UNL     1       3.951   4.528  18.143  0.00  0.00    +0.000 A 
ATOM     10  C   UNL     1       5.291   4.550  17.722  0.00  0.00    +0.000 A 
BRANCH   2  12
ATOM     11  C   UNL     1       8.198   5.659  19.897  0.00  0.00    +0.000 C 
ATOM     12  C   UNL     1       6.736   5.774  19.504  0.00  0.00    +0.000 C 
ENDBRANCH   2  12
ENDBRANCH   1   9
BRANCH   1  13
ATOM     13  C   UNL     1       2.736   6.425  19.366  0.00  0.00    +0.000 A 
ATOM     14  C   UNL     1       2.755   7.192  18.188  0.00  0.00    +0.000 A 
ATOM     15  C   UNL     1       2.153   8.453  18.138  0.00  0.00    +0.000 A 
ATOM     16  C   UNL     1       1.525   8.977  19.266  0.00  0.00    +0.000 A 
ATOM     17  C   UNL     1       1.488   8.229  20.436  0.00  0.00    +0.000 A 
ATOM     18 CL   UNL     1       0.713   8.862  21.836  0.00  0.00    +0.000 Cl
ATOM     19  C   UNL     1       2.077   6.966  20.486  0.00  0.00    +0.000 A 
ENDBRANCH   1  13
BRANCH   1  20
ATOM     20  N   UNL     1       2.576   4.083  20.226  0.00  0.00    +0.000 N 
ATOM     21  C   UNL     1       3.040   3.204  21.183  0.00  0.00    +0.000 A 
ATOM     22  C   UNL     1       1.932   2.523  21.626  0.00  0.00    +0.000 A 
ATOM     23  N   UNL     1       0.815   2.935  20.954  0.00  0.00    +0.000 NA
ATOM     24  C   UNL     1       1.233   3.851  20.106  0.00  0.00    +0.000 A 
ENDBRANCH   1  20
TORSDOF 4
ENDMDL
