MODEL 1
REMARK VINA RESULT:      -8.3      0.000      0.000
REMARK  Name = 
REMARK  6 active torsions:
REMARK  status: ('A' for Active; 'I' for Inactive)
REMARK    1  A    between atoms: C_1  and  C_2
REMARK    2  A    between atoms: N_4  and  C_5
REMARK    3  A    between atoms: C_10  and  S_11
REMARK    4  A    between atoms: S_11  and  N_14
REMARK    5  A    between atoms: N_14  and  C_15
REMARK    6  A    between atoms: C_15  and  C_16
REMARK                            x       y       z     vdW  Elec       q    Type
REMARK                         _______ _______ _______ _____ _____    ______ ____
ROOT
ATOM      1  C   UNL     1       1.951   7.341  20.271  0.00  0.00    +0.000 A 
ATOM      2  C   UNL     1       2.172   8.070  19.096  0.00  0.00    +0.000 A 
ATOM      3  C   UNL     1       2.587   7.439  17.942  0.00  0.00    +0.000 A 
ATOM      4  C   UNL     1       2.791   6.068  17.952  0.00  0.00    +0.000 A 
ATOM      5  C   UNL     1       2.514   5.255  19.067  0.00  0.00    +0.000 A 
ATOM      6  C   UNL     1       2.600   3.830  19.041  0.00  0.00    +0.000 A 
ATOM      7  C   UNL     1       2.414   3.084  20.215  0.00  0.00    +0.000 A 
ATOM      8  C   UNL     1       2.135   3.726  21.410  0.00  0.00    +0.000 A 
ATOM      9  C   UNL     1       1.990   5.113  21.437  0.00  0.00    +0.000 A 
ATOM     10  C   UNL     1       2.142   5.920  20.280  0.00  0.00    +0.000 A 
ENDROOT
BRANCH   1  14
ATOM     11  C   UNL     1       0.321   9.506  22.927  0.00  0.00    +0.000 C 
ATOM     12  C   UNL     1       0.420   8.847  21.578  0.00  0.00    +0.000 C 
ATOM     13  O   UNL     1      -0.454   9.034  20.739  0.00  0.00    +0.000 OA
ATOM     14  N   UNL     1       1.546   8.041  21.450  0.00  0.00    +0.000 N 
ATOM     15  H   UNL     1       2.066   7.865  22.295  0.00  0.00    +0.000 HD
ENDBRANCH   1  14
BRANCH   6  16
ATOM     16  S   UNL     1       3.017   2.886  17.560  0.00  0.00    +0.000 S 
ATOM     17  O   UNL     1       2.684   1.499  17.802  0.00  0.00    +0.000 OA
ATOM     18  O   UNL     1       2.443   3.599  16.435  0.00  0.00    +0.000 OA
BRANCH  16  19
ATOM     19  N   UNL     1       4.691   3.042  17.378  0.00  0.00    +0.000 NA
ATOM     20  H   UNL     1       5.175   2.154  17.238  0.00  0.00    +0.000 HD
BRANCH  19  21
ATOM     21  C   UNL     1       5.173   4.125  16.509  0.00  0.00    +0.000 C 
BRANCH  21  22
ATOM     22  C   UNL     1       6.087   5.093  17.214  0.00  0.00    +0.000 A 
ATOM     23  C   UNL     1       6.553   4.807  18.509  0.00  0.00    +0.000 A 
ATOM     24  C   UNL     1       7.441   5.669  19.149  0.00  0.00    +0.000 A 
ATOM     25  C   UNL     1       7.869   6.826  18.502  0.00  0.00    +0.000 A 
ATOM     26  C   UNL     1       7.410   7.121  17.219  0.00  0.00    +0.000 A 
ATOM     27  C   UNL     1       6.522   6.259  16.575  0.00  0.00    +0.000 A 
ENDBRANCH  21  22
ENDBRANCH  19  21
ENDBRANCH  16  19
ENDBRANCH   6  16
TORSDOF 5
ENDMDL
MODEL 2
REMARK VINA RESULT:      -8.0      0.569      1.120
REMARK  Name = 
REMARK  6 active torsions:
REMARK  status: ('A' for Active; 'I' for Inactive)
REMARK    1  A    between atoms: C_1  and  C_2
REMARK    2  A    between atoms: N_4  and  C_5
REMARK    3  A    between atoms: C_10  and  S_11
REMARK    4  A    between atoms: S_11  and  N_14
REMARK    5  A    between atoms: N_14  and  C_15
REMARK    6  A    between atoms: C_15  and  C_16
REMARK                            x       y       z     vdW  Elec       q    Type
REMARK                         _______ _______ _______ _____ _____    ______ ____
ROOT
ATOM      1  C   UNL     1       1.913   7.551  20.259  0.00  0.00    +0.000 A 
ATOM      2  C   UNL     1       2.136   8.352  19.132  0.00  0.00    +0.000 A 
ATOM      3  C   UNL     1       2.620   7.804  17.962  0.00  0.00    +0.000 A 
ATOM      4  C   UNL     1       2.891   6.445  17.908  0.00  0.00    +0.000 A 
ATOM      5  C   UNL     1       2.618   5.561  18.968  0.00  0.00    +0.000 A 
ATOM      6  C   UNL     1       2.776   4.146  18.872  0.00  0.00    +0.000 A 
ATOM      7  C   UNL     1       2.588   3.330  19.997  0.00  0.00    +0.000 A 
ATOM      8  C   UNL     1       2.238   3.893  21.214  0.00  0.00    +0.000 A 
ATOM      9  C   UNL     1       2.024   5.268  21.308  0.00  0.00    +0.000 A 
ATOM     10  C   UNL     1       2.174   6.142  20.201  0.00  0.00    +0.000 A 
ENDROOT
BRANCH   1  14
ATOM     11  C   UNL     1       0.154   9.567  22.949  0.00  0.00    +0.000 C 
ATOM     12  C   UNL     1       0.347   9.027  21.558  0.00  0.00    +0.000 C 
ATOM     13  O   UNL     1      -0.430   9.344  20.665  0.00  0.00    +0.000 OA
ATOM     14  N   UNL     1       1.435   8.166  21.458  0.00  0.00    +0.000 N 
ATOM     15  H   UNL     1       1.860   7.882  22.326  0.00  0.00    +0.000 HD
ENDBRANCH   1  14
BRANCH   6  16
ATOM     16  S   UNL     1       3.288   3.304  17.359  0.00  0.00    +0.000 S 
ATOM     17  O   UNL     1       4.085   2.156  17.732  0.00  0.00    +0.000 OA
ATOM     18  O   UNL     1       2.098   3.147  16.546  0.00  0.00    +0.000 OA
BRANCH  16  19
ATOM     19  N   UNL     1       4.253   4.415  16.526  0.00  0.00    +0.000 NA
ATOM     20  H   UNL     1       4.040   5.389  16.743  0.00  0.00    +0.000 HD
BRANCH  19  21
ATOM     21  C   UNL     1       5.692   4.125  16.445  0.00  0.00    +0.000 C 
BRANCH  21  22
ATOM     22  C   UNL     1       6.542   5.111  17.204  0.00  0.00    +0.000 A 
ATOM     23  C   UNL     1       6.828   6.370  16.648  0.00  0.00    +0.000 A 
ATOM     24  C   UNL     1       7.567   7.310  17.364  0.00  0.00    +0.000 A 
ATOM     25  C   UNL     1       8.031   6.997  18.640  0.00  0.00    +0.000 A 
ATOM     26  C   UNL     1       7.756   5.750  19.199  0.00  0.00    +0.000 A 
ATOM     27  C   UNL     1       7.014   4.808  18.485  0.00  0.00    +0.000 A 
ENDBRANCH  21  22
ENDBRANCH  19  21
ENDBRANCH  16  19
ENDBRANCH   6  16
TORSDOF 5
ENDMDL
MODEL 3
REMARK VINA RESULT:      -7.6      1.228      1.361
REMARK  Name = 
REMARK  6 active torsions:
REMARK  status: ('A' for Active; 'I' for Inactive)
REMARK    1  A    between atoms: C_1  and  C_2
REMARK    2  A    between atoms: N_4  and  C_5
REMARK    3  A    between atoms: C_10  and  S_11
REMARK    4  A    between atoms: S_11  and  N_14
REMARK    5  A    between atoms: N_14  and  C_15
REMARK    6  A    between atoms: C_15  and  C_16
REMARK                            x       y       z     vdW  Elec       q    Type
REMARK                         _______ _______ _______ _____ _____    ______ ____
ROOT
ATOM      1  C   UNL     1       1.610   7.901  19.784  0.00  0.00    +0.000 A 
ATOM      2  C   UNL     1       2.117   8.657  18.719  0.00  0.00    +0.000 A 
ATOM      3  C   UNL     1       2.997   8.100  17.816  0.00  0.00    +0.000 A 
ATOM      4  C   UNL     1       3.386   6.778  17.970  0.00  0.00    +0.000 A 
ATOM      5  C   UNL     1       2.861   5.931  18.963  0.00  0.00    +0.000 A 
ATOM      6  C   UNL     1       3.161   4.537  19.047  0.00  0.00    +0.000 A 
ATOM      7  C   UNL     1       2.690   3.771  20.123  0.00  0.00    +0.000 A 
ATOM      8  C   UNL     1       1.919   4.360  21.112  0.00  0.00    +0.000 A 
ATOM      9  C   UNL     1       1.570   5.707  21.012  0.00  0.00    +0.000 A 
ATOM     10  C   UNL     1       1.995   6.528  19.936  0.00  0.00    +0.000 A 
ENDROOT
BRANCH   1  14
ATOM     11  C   UNL     1      -0.111   9.601  22.706  0.00  0.00    +0.000 C 
ATOM     12  C   UNL     1       1.074   9.097  21.928  0.00  0.00    +0.000 C 
ATOM     13  O   UNL     1       2.206   9.232  22.380  0.00  0.00    +0.000 OA
ATOM     14  N   UNL     1       0.720   8.527  20.711  0.00  0.00    +0.000 N 
ATOM     15  H   UNL     1      -0.237   8.655  20.420  0.00  0.00    +0.000 HD
ENDBRANCH   1  14
BRANCH   6  16
ATOM     16  S   UNL     1       4.205   3.672  17.854  0.00  0.00    +0.000 S 
ATOM     17  O   UNL     1       3.828   2.276  17.857  0.00  0.00    +0.000 OA
ATOM     18  O   UNL     1       4.168   4.446  16.629  0.00  0.00    +0.000 OA
BRANCH  16  19
ATOM     19  N   UNL     1       5.785   3.832  18.434  0.00  0.00    +0.000 NA
ATOM     20  H   UNL     1       6.099   3.042  18.999  0.00  0.00    +0.000 HD
BRANCH  19  21
ATOM     21  C   UNL     1       6.799   4.327  17.491  0.00  0.00    +0.000 C 
BRANCH  21  22
ATOM     22  C   UNL     1       7.246   5.736  17.782  0.00  0.00    +0.000 A 
ATOM     23  C   UNL     1       8.023   6.008  18.921  0.00  0.00    +0.000 A 
ATOM     24  C   UNL     1       8.487   7.298  19.171  0.00  0.00    +0.000 A 
ATOM     25  C   UNL     1       8.175   8.328  18.287  0.00  0.00    +0.000 A 
ATOM     26  C   UNL     1       7.402   8.070  17.156  0.00  0.00    +0.000 A 
ATOM     27  C   UNL     1       6.937   6.779  16.902  0.00  0.00    +0.000 A 
ENDBRANCH  21  22
ENDBRANCH  19  21
ENDBRANCH  16  19
ENDBRANCH   6  16
TORSDOF 5
ENDMDL
MODEL 4
REMARK VINA RESULT:      -7.4      4.215      8.288
REMARK  Name = 
REMARK  6 active torsions:
REMARK  status: ('A' for Active; 'I' for Inactive)
REMARK    1  A    between atoms: C_1  and  C_2
REMARK    2  A    between atoms: N_4  and  C_5
REMARK    3  A    between atoms: C_10  and  S_11
REMARK    4  A    between atoms: S_11  and  N_14
REMARK    5  A    between atoms: N_14  and  C_15
REMARK    6  A    between atoms: C_15  and  C_16
REMARK                            x       y       z     vdW  Elec       q    Type
REMARK                         _______ _______ _______ _____ _____    ______ ____
ROOT
ATOM      1  C   UNL     1       2.319   6.788  19.858  0.00  0.00    +0.000 A 
ATOM      2  C   UNL     1       2.864   6.800  18.567  0.00  0.00    +0.000 A 
ATOM      3  C   UNL     1       2.699   7.893  17.743  0.00  0.00    +0.000 A 
ATOM      4  C   UNL     1       1.981   8.988  18.198  0.00  0.00    +0.000 A 
ATOM      5  C   UNL     1       1.473   9.087  19.507  0.00  0.00    +0.000 A 
ATOM      6  C   UNL     1       0.845  10.262  20.020  0.00  0.00    +0.000 A 
ATOM      7  C   UNL     1       0.266  10.260  21.298  0.00  0.00    +0.000 A 
ATOM      8  C   UNL     1       0.305   9.116  22.077  0.00  0.00    +0.000 A 
ATOM      9  C   UNL     1       0.966   7.979  21.612  0.00  0.00    +0.000 A 
ATOM     10  C   UNL     1       1.592   7.927  20.340  0.00  0.00    +0.000 A 
ENDROOT
BRANCH   1  14
ATOM     11  C   UNL     1       2.141   3.435  21.623  0.00  0.00    +0.000 C 
ATOM     12  C   UNL     1       1.768   4.442  20.568  0.00  0.00    +0.000 C 
ATOM     13  O   UNL     1       0.917   4.164  19.731  0.00  0.00    +0.000 OA
ATOM     14  N   UNL     1       2.493   5.624  20.668  0.00  0.00    +0.000 N 
ATOM     15  H   UNL     1       3.272   5.617  21.308  0.00  0.00    +0.000 HD
ENDBRANCH   1  14
BRANCH   6  16
ATOM     16  S   UNL     1       0.678  11.792  19.076  0.00  0.00    +0.000 S 
ATOM     17  O   UNL     1       0.174  12.815  19.966  0.00  0.00    +0.000 OA
ATOM     18  O   UNL     1       1.926  11.980  18.362  0.00  0.00    +0.000 OA
BRANCH  16  19
ATOM     19  N   UNL     1      -0.474  11.464  17.882  0.00  0.00    +0.000 NA
ATOM     20  H   UNL     1      -0.084  11.396  16.941  0.00  0.00    +0.000 HD
BRANCH  19  21
ATOM     21  C   UNL     1      -1.479  10.434  18.184  0.00  0.00    +0.000 C 
BRANCH  21  22
ATOM     22  C   UNL     1      -2.872  10.988  18.335  0.00  0.00    +0.000 A 
ATOM     23  C   UNL     1      -3.153  11.924  19.346  0.00  0.00    +0.000 A 
ATOM     24  C   UNL     1      -4.424  12.483  19.461  0.00  0.00    +0.000 A 
ATOM     25  C   UNL     1      -5.427  12.108  18.569  0.00  0.00    +0.000 A 
ATOM     26  C   UNL     1      -5.160  11.178  17.565  0.00  0.00    +0.000 A 
ATOM     27  C   UNL     1      -3.887  10.618  17.447  0.00  0.00    +0.000 A 
ENDBRANCH  21  22
ENDBRANCH  19  21
ENDBRANCH  16  19
ENDBRANCH   6  16
TORSDOF 5
ENDMDL
MODEL 5
REMARK VINA RESULT:      -7.4      4.470      8.604
REMARK  Name = 
REMARK  6 active torsions:
REMARK  status: ('A' for Active; 'I' for Inactive)
REMARK    1  A    between atoms: C_1  and  C_2
REMARK    2  A    between atoms: N_4  and  C_5
REMARK    3  A    between atoms: C_10  and  S_11
REMARK    4  A    between atoms: S_11  and  N_14
REMARK    5  A    between atoms: N_14  and  C_15
REMARK    6  A    between atoms: C_15  and  C_16
REMARK                            x       y       z     vdW  Elec       q    Type
REMARK                         _______ _______ _______ _____ _____    ______ ____
ROOT
ATOM      1  C   UNL     1       2.145   7.156  19.843  0.00  0.00    +0.000 A 
ATOM      2  C   UNL     1       2.690   7.195  18.554  0.00  0.00    +0.000 A 
ATOM      3  C   UNL     1       2.480   8.283  17.732  0.00  0.00    +0.000 A 
ATOM      4  C   UNL     1       1.716   9.346  18.191  0.00  0.00    +0.000 A 
ATOM      5  C   UNL     1       1.203   9.419  19.499  0.00  0.00    +0.000 A 
ATOM      6  C   UNL     1       0.527  10.565  20.015  0.00  0.00    +0.000 A 
ATOM      7  C   UNL     1      -0.053  10.535  21.292  0.00  0.00    +0.000 A 
ATOM      8  C   UNL     1       0.033   9.391  22.068  0.00  0.00    +0.000 A 
ATOM      9  C   UNL     1       0.741   8.284  21.600  0.00  0.00    +0.000 A 
ATOM     10  C   UNL     1       1.370   8.262  20.328  0.00  0.00    +0.000 A 
ENDROOT
BRANCH   1  14
ATOM     11  C   UNL     1       2.180   3.755  21.522  0.00  0.00    +0.000 C 
ATOM     12  C   UNL     1       1.810   4.740  20.447  0.00  0.00    +0.000 C 
ATOM     13  O   UNL     1       1.103   4.387  19.510  0.00  0.00    +0.000 OA
ATOM     14  N   UNL     1       2.367   5.997  20.650  0.00  0.00    +0.000 N 
ATOM     15  H   UNL     1       3.061   6.066  21.378  0.00  0.00    +0.000 HD
ENDBRANCH   1  14
BRANCH   6  16
ATOM     16  S   UNL     1       0.297  12.090  19.076  0.00  0.00    +0.000 S 
ATOM     17  O   UNL     1      -0.340  13.058  19.941  0.00  0.00    +0.000 OA
ATOM     18  O   UNL     1       1.567  12.385  18.442  0.00  0.00    +0.000 OA
BRANCH  16  19
ATOM     19  N   UNL     1      -0.750  11.688  17.810  0.00  0.00    +0.000 NA
ATOM     20  H   UNL     1      -0.275  11.512  16.923  0.00  0.00    +0.000 HD
BRANCH  19  21
ATOM     21  C   UNL     1      -1.827  10.733  18.107  0.00  0.00    +0.000 C 
BRANCH  21  22
ATOM     22  C   UNL     1      -3.188  11.374  18.179  0.00  0.00    +0.000 A 
ATOM     23  C   UNL     1      -4.065  11.296  17.083  0.00  0.00    +0.000 A 
ATOM     24  C   UNL     1      -5.346  11.838  17.158  0.00  0.00    +0.000 A 
ATOM     25  C   UNL     1      -5.761  12.469  18.329  0.00  0.00    +0.000 A 
ATOM     26  C   UNL     1      -4.899  12.556  19.421  0.00  0.00    +0.000 A 
ATOM     27  C   UNL     1      -3.616  12.012  19.349  0.00  0.00    +0.000 A 
ENDBRANCH  21  22
ENDBRANCH  19  21
ENDBRANCH  16  19
ENDBRANCH   6  16
TORSDOF 5
ENDMDL
MODEL 6
REMARK VINA RESULT:      -7.4      1.773      2.576
REMARK  Name = 
REMARK  6 active torsions:
REMARK  status: ('A' for Active; 'I' for Inactive)
REMARK    1  A    between atoms: C_1  and  C_2
REMARK    2  A    between atoms: N_4  and  C_5
REMARK    3  A    between atoms: C_10  and  S_11
REMARK    4  A    between atoms: S_11  and  N_14
REMARK    5  A    between atoms: N_14  and  C_15
REMARK    6  A    between atoms: C_15  and  C_16
REMARK                            x       y       z     vdW  Elec       q    Type
REMARK                         _______ _______ _______ _____ _____    ______ ____
ROOT
ATOM      1  C   UNL     1       1.912   7.525  20.253  0.00  0.00    +0.000 A 
ATOM      2  C   UNL     1       2.131   8.349  19.143  0.00  0.00    +0.000 A 
ATOM      3  C   UNL     1       2.614   7.827  17.961  0.00  0.00    +0.000 A 
ATOM      4  C   UNL     1       2.890   6.471  17.878  0.00  0.00    +0.000 A 
ATOM      5  C   UNL     1       2.621   5.564  18.921  0.00  0.00    +0.000 A 
ATOM      6  C   UNL     1       2.782   4.151  18.795  0.00  0.00    +0.000 A 
ATOM      7  C   UNL     1       2.599   3.312  19.903  0.00  0.00    +0.000 A 
ATOM      8  C   UNL     1       2.249   3.848  21.132  0.00  0.00    +0.000 A 
ATOM      9  C   UNL     1       2.032   5.221  21.255  0.00  0.00    +0.000 A 
ATOM     10  C   UNL     1       2.177   6.118  20.165  0.00  0.00    +0.000 A 
ENDROOT
BRANCH   1  14
ATOM     11  C   UNL     1       0.160   9.487  22.986  0.00  0.00    +0.000 C 
ATOM     12  C   UNL     1       0.353   8.980  21.583  0.00  0.00    +0.000 C 
ATOM     13  O   UNL     1      -0.418   9.325  20.695  0.00  0.00    +0.000 OA
ATOM     14  N   UNL     1       1.434   8.114  21.465  0.00  0.00    +0.000 N 
ATOM     15  H   UNL     1       1.855   7.805  22.328  0.00  0.00    +0.000 HD
ENDBRANCH   1  14
BRANCH   6  16
ATOM     16  S   UNL     1       3.294   3.342  17.264  0.00  0.00    +0.000 S 
ATOM     17  O   UNL     1       3.981   2.117  17.611  0.00  0.00    +0.000 OA
ATOM     18  O   UNL     1       2.133   3.319  16.395  0.00  0.00    +0.000 OA
BRANCH  16  19
ATOM     19  N   UNL     1       4.379   4.409  16.527  0.00  0.00    +0.000 NA
ATOM     20  H   UNL     1       4.355   5.354  16.914  0.00  0.00    +0.000 HD
BRANCH  19  21
ATOM     21  C   UNL     1       5.737   3.910  16.265  0.00  0.00    +0.000 C 
BRANCH  21  22
ATOM     22  C   UNL     1       6.176   4.101  14.837  0.00  0.00    +0.000 A 
ATOM     23  C   UNL     1       7.233   4.978  14.534  0.00  0.00    +0.000 A 
ATOM     24  C   UNL     1       7.682   5.121  13.224  0.00  0.00    +0.000 A 
ATOM     25  C   UNL     1       7.077   4.393  12.202  0.00  0.00    +0.000 A 
ATOM     26  C   UNL     1       6.026   3.523  12.490  0.00  0.00    +0.000 A 
ATOM     27  C   UNL     1       5.575   3.377  13.802  0.00  0.00    +0.000 A 
ENDBRANCH  21  22
ENDBRANCH  19  21
ENDBRANCH  16  19
ENDBRANCH   6  16
TORSDOF 5
ENDMDL
MODEL 7
REMARK VINA RESULT:      -7.3      3.096      8.565
REMARK  Name = 
REMARK  6 active torsions:
REMARK  status: ('A' for Active; 'I' for Inactive)
REMARK    1  A    between atoms: C_1  and  C_2
REMARK    2  A    between atoms: N_4  and  C_5
REMARK    3  A    between atoms: C_10  and  S_11
REMARK    4  A    between atoms: S_11  and  N_14
REMARK    5  A    between atoms: N_14  and  C_15
REMARK    6  A    between atoms: C_15  and  C_16
REMARK                            x       y       z     vdW  Elec       q    Type
REMARK                         _______ _______ _______ _____ _____    ______ ____
ROOT
ATOM      1  C   UNL     1       2.967   5.445  18.595  0.00  0.00    +0.000 A 
ATOM      2  C   UNL     1       2.795   4.533  19.643  0.00  0.00    +0.000 A 
ATOM      3  C   UNL     1       2.197   4.920  20.824  0.00  0.00    +0.000 A 
ATOM      4  C   UNL     1       1.768   6.230  20.972  0.00  0.00    +0.000 A 
ATOM      5  C   UNL     1       1.832   7.184  19.939  0.00  0.00    +0.000 A 
ATOM      6  C   UNL     1       1.276   8.495  20.044  0.00  0.00    +0.000 A 
ATOM      7  C   UNL     1       1.465   9.433  19.019  0.00  0.00    +0.000 A 
ATOM      8  C   UNL     1       2.188   9.091  17.888  0.00  0.00    +0.000 A 
ATOM      9  C   UNL     1       2.687   7.796  17.747  0.00  0.00    +0.000 A 
ATOM     10  C   UNL     1       2.508   6.796  18.737  0.00  0.00    +0.000 A 
ENDROOT
BRANCH   1  14
ATOM     11  C   UNL     1       5.349   4.480  15.804  0.00  0.00    +0.000 C 
ATOM     12  C   UNL     1       4.987   4.894  17.205  0.00  0.00    +0.000 C 
ATOM     13  O   UNL     1       5.869   5.076  18.037  0.00  0.00    +0.000 OA
ATOM     14  N   UNL     1       3.615   5.005  17.399  0.00  0.00    +0.000 N 
ATOM     15  H   UNL     1       3.030   4.653  16.657  0.00  0.00    +0.000 HD
ENDBRANCH   1  14
BRANCH   6  16
ATOM     16  S   UNL     1       0.368   9.076  21.493  0.00  0.00    +0.000 S 
ATOM     17  O   UNL     1      -0.684   8.124  21.776  0.00  0.00    +0.000 OA
ATOM     18  O   UNL     1       1.357   9.408  22.500  0.00  0.00    +0.000 OA
BRANCH  16  19
ATOM     19  N   UNL     1      -0.315  10.554  21.037  0.00  0.00    +0.000 NA
ATOM     20  H   UNL     1      -1.323  10.512  20.883  0.00  0.00    +0.000 HD
BRANCH  19  21
ATOM     21  C   UNL     1       0.124  11.751  21.769  0.00  0.00    +0.000 C 
BRANCH  21  22
ATOM     22  C   UNL     1      -0.980  12.404  22.559  0.00  0.00    +0.000 A 
ATOM     23  C   UNL     1      -0.943  13.787  22.812  0.00  0.00    +0.000 A 
ATOM     24  C   UNL     1      -1.986  14.410  23.495  0.00  0.00    +0.000 A 
ATOM     25  C   UNL     1      -3.072  13.657  23.935  0.00  0.00    +0.000 A 
ATOM     26  C   UNL     1      -3.117  12.285  23.693  0.00  0.00    +0.000 A 
ATOM     27  C   UNL     1      -2.075  11.658  23.008  0.00  0.00    +0.000 A 
ENDBRANCH  21  22
ENDBRANCH  19  21
ENDBRANCH  16  19
ENDBRANCH   6  16
TORSDOF 5
ENDMDL
MODEL 8
REMARK VINA RESULT:      -7.3      3.384      8.738
REMARK  Name = 
REMARK  6 active torsions:
REMARK  status: ('A' for Active; 'I' for Inactive)
REMARK    1  A    between atoms: C_1  and  C_2
REMARK    2  A    between atoms: N_4  and  C_5
REMARK    3  A    between atoms: C_10  and  S_11
REMARK    4  A    between atoms: S_11  and  N_14
REMARK    5  A    between atoms: N_14  and  C_15
REMARK    6  A    between atoms: C_15  and  C_16
REMARK                            x       y       z     vdW  Elec       q    Type
REMARK                         _______ _______ _______ _____ _____    ______ ____
ROOT
ATOM      1  C   UNL     1       3.041   5.786  18.485  0.00  0.00    +0.000 A 
ATOM      2  C   UNL     1       2.929   4.820  19.492  0.00  0.00    +0.000 A 
ATOM      3  C   UNL     1       2.326   5.122  20.695  0.00  0.00    +0.000 A 
ATOM      4  C   UNL     1       1.831   6.400  20.907  0.00  0.00    +0.000 A 
ATOM      5  C   UNL     1       1.832   7.401  19.918  0.00  0.00    +0.000 A 
ATOM      6  C   UNL     1       1.210   8.675  20.088  0.00  0.00    +0.000 A 
ATOM      7  C   UNL     1       1.338   9.667  19.105  0.00  0.00    +0.000 A 
ATOM      8  C   UNL     1       2.064   9.415  17.953  0.00  0.00    +0.000 A 
ATOM      9  C   UNL     1       2.628   8.155  17.748  0.00  0.00    +0.000 A 
ATOM     10  C   UNL     1       2.513   7.104  18.693  0.00  0.00    +0.000 A 
ENDROOT
BRANCH   1  14
ATOM     11  C   UNL     1       5.412   5.191  15.584  0.00  0.00    +0.000 C 
ATOM     12  C   UNL     1       5.053   5.578  16.993  0.00  0.00    +0.000 C 
ATOM     13  O   UNL     1       5.926   5.951  17.768  0.00  0.00    +0.000 OA
ATOM     14  N   UNL     1       3.696   5.436  17.264  0.00  0.00    +0.000 N 
ATOM     15  H   UNL     1       3.150   4.955  16.566  0.00  0.00    +0.000 HD
ENDBRANCH   1  14
BRANCH   6  16
ATOM     16  S   UNL     1       0.291   9.142  21.570  0.00  0.00    +0.000 S 
ATOM     17  O   UNL     1      -0.752   8.161  21.780  0.00  0.00    +0.000 OA
ATOM     18  O   UNL     1       1.272   9.411  22.603  0.00  0.00    +0.000 OA
BRANCH  16  19
ATOM     19  N   UNL     1      -0.407  10.641  21.218  0.00  0.00    +0.000 NA
ATOM     20  H   UNL     1      -1.152  10.596  20.521  0.00  0.00    +0.000 HD
BRANCH  19  21
ATOM     21  C   UNL     1      -0.710  11.524  22.354  0.00  0.00    +0.000 C 
BRANCH  21  22
ATOM     22  C   UNL     1      -2.099  12.103  22.304  0.00  0.00    +0.000 A 
ATOM     23  C   UNL     1      -2.879  12.169  23.472  0.00  0.00    +0.000 A 
ATOM     24  C   UNL     1      -4.144  12.752  23.448  0.00  0.00    +0.000 A 
ATOM     25  C   UNL     1      -4.644  13.271  22.255  0.00  0.00    +0.000 A 
ATOM     26  C   UNL     1      -3.881  13.208  21.090  0.00  0.00    +0.000 A 
ATOM     27  C   UNL     1      -2.613  12.626  21.112  0.00  0.00    +0.000 A 
ENDBRANCH  21  22
ENDBRANCH  19  21
ENDBRANCH  16  19
ENDBRANCH   6  16
TORSDOF 5
ENDMDL
MODEL 9
REMARK VINA RESULT:      -7.2      2.530      3.965
REMARK  Name = 
REMARK  6 active torsions:
REMARK  status: ('A' for Active; 'I' for Inactive)
REMARK    1  A    between atoms: C_1  and  C_2
REMARK    2  A    between atoms: N_4  and  C_5
REMARK    3  A    between atoms: C_10  and  S_11
REMARK    4  A    between atoms: S_11  and  N_14
REMARK    5  A    between atoms: N_14  and  C_15
REMARK    6  A    between atoms: C_15  and  C_16
REMARK                            x       y       z     vdW  Elec       q    Type
REMARK                         _______ _______ _______ _____ _____    ______ ____
ROOT
ATOM      1  C   UNL     1       0.691  10.353  20.225  0.00  0.00    +0.000 A 
ATOM      2  C   UNL     1       0.127  10.048  21.470  0.00  0.00    +0.000 A 
ATOM      3  C   UNL     1       0.193   8.767  21.979  0.00  0.00    +0.000 A 
ATOM      4  C   UNL     1       0.821   7.774  21.244  0.00  0.00    +0.000 A 
ATOM      5  C   UNL     1       1.482   8.017  20.025  0.00  0.00    +0.000 A 
ATOM      6  C   UNL     1       2.238   7.026  19.330  0.00  0.00    +0.000 A 
ATOM      7  C   UNL     1       2.784   7.302  18.067  0.00  0.00    +0.000 A 
ATOM      8  C   UNL     1       2.600   8.547  17.487  0.00  0.00    +0.000 A 
ATOM      9  C   UNL     1       1.913   9.543  18.181  0.00  0.00    +0.000 A 
ATOM     10  C   UNL     1       1.359   9.333  19.470  0.00  0.00    +0.000 A 
ENDROOT
BRANCH   1  14
ATOM     11  C   UNL     1      -0.266  13.619  18.548  0.00  0.00    +0.000 C 
ATOM     12  C   UNL     1      -0.489  12.199  18.994  0.00  0.00    +0.000 C 
ATOM     13  O   UNL     1      -1.538  11.628  18.717  0.00  0.00    +0.000 OA
ATOM     14  N   UNL     1       0.577  11.688  19.726  0.00  0.00    +0.000 N 
ATOM     15  H   UNL     1       1.284  12.350  20.006  0.00  0.00    +0.000 HD
ENDBRANCH   1  14
BRANCH   6  16
ATOM     16  S   UNL     1       2.494   5.352  19.954  0.00  0.00    +0.000 S 
ATOM     17  O   UNL     1       2.273   5.367  21.383  0.00  0.00    +0.000 OA
ATOM     18  O   UNL     1       1.732   4.465  19.096  0.00  0.00    +0.000 OA
BRANCH  16  19
ATOM     19  N   UNL     1       4.116   4.992  19.636  0.00  0.00    +0.000 NA
ATOM     20  H   UNL     1       4.717   5.039  20.460  0.00  0.00    +0.000 HD
BRANCH  19  21
ATOM     21  C   UNL     1       4.389   3.839  18.767  0.00  0.00    +0.000 C 
BRANCH  21  22
ATOM     22  C   UNL     1       5.255   4.178  17.582  0.00  0.00    +0.000 A 
ATOM     23  C   UNL     1       4.736   4.084  16.278  0.00  0.00    +0.000 A 
ATOM     24  C   UNL     1       5.511   4.448  15.179  0.00  0.00    +0.000 A 
ATOM     25  C   UNL     1       6.813   4.904  15.372  0.00  0.00    +0.000 A 
ATOM     26  C   UNL     1       7.339   4.998  16.659  0.00  0.00    +0.000 A 
ATOM     27  C   UNL     1       6.564   4.636  17.762  0.00  0.00    +0.000 A 
ENDBRANCH  21  22
ENDBRANCH  19  21
ENDBRANCH  16  19
ENDBRANCH   6  16
TORSDOF 5
ENDMDL
