MODEL 1
REMARK VINA RESULT:      -6.6      0.000      0.000
REMARK  Name = 
REMARK  6 active torsions:
REMARK  status: ('A' for Active; 'I' for Inactive)
REMARK    1  A    between atoms: C_1  and  N_2
REMARK    2  A    between atoms: N_2  and  C_3
REMARK    3  A    between atoms: C_3  and  C_4
REMARK    4  A    between atoms: C_4  and  C_5
REMARK    5  A    between atoms: N_12  and  C_13
REMARK    6  A    between atoms: C_13  and  C_14
REMARK                            x       y       z     vdW  Elec       q    Type
REMARK                         _______ _______ _______ _____ _____    ______ ____
ROOT
ATOM      1  C   UNL     1       0.825   4.393  20.383  0.00  0.00    +0.000 C 
ATOM      2  N   UNL     1       1.975   5.286  20.425  0.00  0.00    +0.000 N 
ATOM      3  C   UNL     1       3.148   4.748  19.913  0.00  0.00    +0.000 C 
ATOM      4  O   UNL     1       3.239   3.572  19.563  0.00  0.00    +0.000 OA
ATOM      5  N   UNL     1       4.213   5.608  19.822  0.00  0.00    +0.000 N 
ATOM      6  H   UNL     1       3.984   6.564  19.609  0.00  0.00    +0.000 HD
ENDROOT
BRANCH   2   7
ATOM      7  C   UNL     1       1.799   6.685  20.844  0.00  0.00    +0.000 C 
BRANCH   7   8
ATOM      8  C   UNL     1       1.830   7.770  19.753  0.00  0.00    +0.000 C 
BRANCH   8   9
ATOM      9  C   UNL     1       1.082   9.024  20.112  0.00  0.00    +0.000 A 
ATOM     10  C   UNL     1       0.536   9.962  19.255  0.00  0.00    +0.000 A 
ATOM     11  C   UNL     1      -0.102  11.026  19.956  0.00  0.00    +0.000 A 
ATOM     12  C   UNL     1      -0.017  10.868  21.320  0.00  0.00    +0.000 A 
ATOM     13  S   UNL     1       0.843   9.457  21.753  0.00  0.00    +0.000 S 
ENDBRANCH   8   9
ENDBRANCH   7   8
ENDBRANCH   2   7
BRANCH   5  14
ATOM     14  C   UNL     1       5.471   5.110  19.298  0.00  0.00    +0.000 C 
BRANCH  14  15
ATOM     15  C   UNL     1       6.110   6.059  18.270  0.00  0.00    +0.000 C 
ATOM     16  C   UNL     1       7.493   5.591  17.785  0.00  0.00    +0.000 C 
ATOM     17  C   UNL     1       7.423   4.373  16.864  0.00  0.00    +0.000 C 
ATOM     18  C   UNL     1       6.484   4.595  15.678  0.00  0.00    +0.000 C 
ATOM     19  C   UNL     1       5.093   5.039  16.154  0.00  0.00    +0.000 C 
ATOM     20  C   UNL     1       5.168   6.265  17.069  0.00  0.00    +0.000 C 
ATOM     21  O   UNL     1       7.023   5.607  14.824  0.00  0.00    +0.000 OA
ATOM     22  C   UNL     1       6.796   5.169  13.488  0.00  0.00    +0.000 C 
ATOM     23  C   UNL     1       6.277   3.754  13.574  0.00  0.00    +0.000 C 
ATOM     24  O   UNL     1       6.375   3.377  14.942  0.00  0.00    +0.000 OA
ENDBRANCH  14  15
ENDBRANCH   5  14
TORSDOF 5
ENDMDL
MODEL 2
REMARK VINA RESULT:      -6.6      2.128      2.981
REMARK  Name = 
REMARK  6 active torsions:
REMARK  status: ('A' for Active; 'I' for Inactive)
REMARK    1  A    between atoms: C_1  and  N_2
REMARK    2  A    between atoms: N_2  and  C_3
REMARK    3  A    between atoms: C_3  and  C_4
REMARK    4  A    between atoms: C_4  and  C_5
REMARK    5  A    between atoms: N_12  and  C_13
REMARK    6  A    between atoms: C_13  and  C_14
REMARK                            x       y       z     vdW  Elec       q    Type
REMARK                         _______ _______ _______ _____ _____    ______ ____
ROOT
ATOM      1  C   UNL     1       3.480   1.303  18.696  0.00  0.00    +0.000 C 
ATOM      2  N   UNL     1       3.579   2.718  18.369  0.00  0.00    +0.000 N 
ATOM      3  C   UNL     1       4.568   3.407  19.059  0.00  0.00    +0.000 C 
ATOM      4  O   UNL     1       5.227   2.891  19.960  0.00  0.00    +0.000 OA
ATOM      5  N   UNL     1       4.769   4.710  18.679  0.00  0.00    +0.000 N 
ATOM      6  H   UNL     1       4.634   4.904  17.700  0.00  0.00    +0.000 HD
ENDROOT
BRANCH   2   7
ATOM      7  C   UNL     1       2.770   3.274  17.273  0.00  0.00    +0.000 C 
BRANCH   7   8
ATOM      8  C   UNL     1       1.480   4.027  17.644  0.00  0.00    +0.000 C 
BRANCH   8   9
ATOM      9  C   UNL     1       1.675   5.107  18.673  0.00  0.00    +0.000 A 
ATOM     10  C   UNL     1       1.411   5.046  20.029  0.00  0.00    +0.000 A 
ATOM     11  C   UNL     1       1.718   6.268  20.694  0.00  0.00    +0.000 A 
ATOM     12  C   UNL     1       2.200   7.220  19.826  0.00  0.00    +0.000 A 
ATOM     13  S   UNL     1       2.262   6.651  18.216  0.00  0.00    +0.000 S 
ENDBRANCH   8   9
ENDBRANCH   7   8
ENDBRANCH   2   7
BRANCH   5  14
ATOM     14  C   UNL     1       5.786   5.488  19.360  0.00  0.00    +0.000 C 
BRANCH  14  15
ATOM     15  C   UNL     1       6.749   6.195  18.392  0.00  0.00    +0.000 C 
ATOM     16  C   UNL     1       7.930   5.313  17.951  0.00  0.00    +0.000 C 
ATOM     17  C   UNL     1       7.517   4.200  16.988  0.00  0.00    +0.000 C 
ATOM     18  C   UNL     1       6.762   4.733  15.771  0.00  0.00    +0.000 C 
ATOM     19  C   UNL     1       5.566   5.596  16.202  0.00  0.00    +0.000 C 
ATOM     20  C   UNL     1       5.986   6.716  17.158  0.00  0.00    +0.000 C 
ATOM     21  O   UNL     1       7.642   5.531  14.975  0.00  0.00    +0.000 OA
ATOM     22  C   UNL     1       7.353   5.213  13.617  0.00  0.00    +0.000 C 
ATOM     23  C   UNL     1       6.402   4.041  13.634  0.00  0.00    +0.000 C 
ATOM     24  O   UNL     1       6.303   3.629  14.992  0.00  0.00    +0.000 OA
ENDBRANCH  14  15
ENDBRANCH   5  14
TORSDOF 5
ENDMDL
MODEL 3
REMARK VINA RESULT:      -6.4      3.274      4.976
REMARK  Name = 
REMARK  6 active torsions:
REMARK  status: ('A' for Active; 'I' for Inactive)
REMARK    1  A    between atoms: C_1  and  N_2
REMARK    2  A    between atoms: N_2  and  C_3
REMARK    3  A    between atoms: C_3  and  C_4
REMARK    4  A    between atoms: C_4  and  C_5
REMARK    5  A    between atoms: N_12  and  C_13
REMARK    6  A    between atoms: C_13  and  C_14
REMARK                            x       y       z     vdW  Elec       q    Type
REMARK                         _______ _______ _______ _____ _____    ______ ____
ROOT
ATOM      1  C   UNL     1      -0.543  10.211  21.643  0.00  0.00    +0.000 C 
ATOM      2  N   UNL     1       0.055   9.836  20.369  0.00  0.00    +0.000 N 
ATOM      3  C   UNL     1       1.081   8.903  20.460  0.00  0.00    +0.000 C 
ATOM      4  O   UNL     1       1.528   8.516  21.538  0.00  0.00    +0.000 OA
ATOM      5  N   UNL     1       1.576   8.437  19.268  0.00  0.00    +0.000 N 
ATOM      6  H   UNL     1       0.906   8.352  18.522  0.00  0.00    +0.000 HD
ENDROOT
BRANCH   2   7
ATOM      7  C   UNL     1      -0.532  10.326  19.112  0.00  0.00    +0.000 C 
BRANCH   7   8
ATOM      8  C   UNL     1      -1.680  11.346  19.207  0.00  0.00    +0.000 C 
BRANCH   8   9
ATOM      9  C   UNL     1      -2.697  11.230  18.105  0.00  0.00    +0.000 A 
ATOM     10  C   UNL     1      -3.993  11.714  18.091  0.00  0.00    +0.000 A 
ATOM     11  C   UNL     1      -4.667  11.414  16.873  0.00  0.00    +0.000 A 
ATOM     12  C   UNL     1      -3.869  10.709  16.002  0.00  0.00    +0.000 A 
ATOM     13  S   UNL     1      -2.323  10.394  16.658  0.00  0.00    +0.000 S 
ENDBRANCH   8   9
ENDBRANCH   7   8
ENDBRANCH   2   7
BRANCH   5  14
ATOM     14  C   UNL     1       2.649   7.462  19.291  0.00  0.00    +0.000 C 
BRANCH  14  15
ATOM     15  C   UNL     1       2.682   6.577  18.034  0.00  0.00    +0.000 C 
ATOM     16  C   UNL     1       4.098   6.111  17.653  0.00  0.00    +0.000 C 
ATOM     17  C   UNL     1       4.659   5.060  18.610  0.00  0.00    +0.000 C 
ATOM     18  C   UNL     1       3.724   3.861  18.771  0.00  0.00    +0.000 C 
ATOM     19  C   UNL     1       2.314   4.315  19.175  0.00  0.00    +0.000 C 
ATOM     20  C   UNL     1       1.752   5.361  18.208  0.00  0.00    +0.000 C 
ATOM     21  O   UNL     1       3.642   3.150  17.532  0.00  0.00    +0.000 OA
ATOM     22  C   UNL     1       3.655   1.765  17.863  0.00  0.00    +0.000 C 
ATOM     23  C   UNL     1       3.954   1.670  19.340  0.00  0.00    +0.000 C 
ATOM     24  O   UNL     1       4.256   2.992  19.770  0.00  0.00    +0.000 OA
ENDBRANCH  14  15
ENDBRANCH   5  14
TORSDOF 5
ENDMDL
MODEL 4
REMARK VINA RESULT:      -6.4      3.281      7.084
REMARK  Name = 
REMARK  6 active torsions:
REMARK  status: ('A' for Active; 'I' for Inactive)
REMARK    1  A    between atoms: C_1  and  N_2
REMARK    2  A    between atoms: N_2  and  C_3
REMARK    3  A    between atoms: C_3  and  C_4
REMARK    4  A    between atoms: C_4  and  C_5
REMARK    5  A    between atoms: N_12  and  C_13
REMARK    6  A    between atoms: C_13  and  C_14
REMARK                            x       y       z     vdW  Elec       q    Type
REMARK                         _______ _______ _______ _____ _____    ______ ____
ROOT
ATOM      1  C   UNL     1       4.418   2.555  19.621  0.00  0.00    +0.000 C 
ATOM      2  N   UNL     1       3.582   3.459  18.844  0.00  0.00    +0.000 N 
ATOM      3  C   UNL     1       2.910   4.417  19.591  0.00  0.00    +0.000 C 
ATOM      4  O   UNL     1       2.925   4.427  20.821  0.00  0.00    +0.000 OA
ATOM      5  N   UNL     1       2.216   5.360  18.874  0.00  0.00    +0.000 N 
ATOM      6  H   UNL     1       2.628   5.629  17.996  0.00  0.00    +0.000 HD
ENDROOT
BRANCH   2   7
ATOM      7  C   UNL     1       3.615   3.404  17.374  0.00  0.00    +0.000 C 
BRANCH   7   8
ATOM      8  C   UNL     1       4.978   3.574  16.680  0.00  0.00    +0.000 C 
BRANCH   8   9
ATOM      9  C   UNL     1       5.677   4.865  17.008  0.00  0.00    +0.000 A 
ATOM     10  C   UNL     1       5.264   6.152  16.714  0.00  0.00    +0.000 A 
ATOM     11  C   UNL     1       6.186   7.133  17.180  0.00  0.00    +0.000 A 
ATOM     12  C   UNL     1       7.271   6.565  17.806  0.00  0.00    +0.000 A 
ATOM     13  S   UNL     1       7.188   4.858  17.815  0.00  0.00    +0.000 S 
ENDBRANCH   8   9
ENDBRANCH   7   8
ENDBRANCH   2   7
BRANCH   5  14
ATOM     14  C   UNL     1       1.490   6.389  19.593  0.00  0.00    +0.000 C 
BRANCH  14  15
ATOM     15  C   UNL     1       2.273   7.708  19.707  0.00  0.00    +0.000 C 
ATOM     16  C   UNL     1       2.497   8.404  18.353  0.00  0.00    +0.000 C 
ATOM     17  C   UNL     1       1.220   9.019  17.779  0.00  0.00    +0.000 C 
ATOM     18  C   UNL     1       0.538   9.968  18.765  0.00  0.00    +0.000 C 
ATOM     19  C   UNL     1       0.289   9.273  20.113  0.00  0.00    +0.000 C 
ATOM     20  C   UNL     1       1.572   8.667  20.688  0.00  0.00    +0.000 C 
ATOM     21  O   UNL     1       1.371  11.110  18.983  0.00  0.00    +0.000 OA
ATOM     22  C   UNL     1       0.502  12.238  19.022  0.00  0.00    +0.000 C 
ATOM     23  C   UNL     1      -0.868  11.750  18.616  0.00  0.00    +0.000 C 
ATOM     24  O   UNL     1      -0.703  10.398  18.208  0.00  0.00    +0.000 OA
ENDBRANCH  14  15
ENDBRANCH   5  14
TORSDOF 5
ENDMDL
MODEL 5
REMARK VINA RESULT:      -6.3      3.417      7.378
REMARK  Name = 
REMARK  6 active torsions:
REMARK  status: ('A' for Active; 'I' for Inactive)
REMARK    1  A    between atoms: C_1  and  N_2
REMARK    2  A    between atoms: N_2  and  C_3
REMARK    3  A    between atoms: C_3  and  C_4
REMARK    4  A    between atoms: C_4  and  C_5
REMARK    5  A    between atoms: N_12  and  C_13
REMARK    6  A    between atoms: C_13  and  C_14
REMARK                            x       y       z     vdW  Elec       q    Type
REMARK                         _______ _______ _______ _____ _____    ______ ____
ROOT
ATOM      1  C   UNL     1       2.131   2.037  19.006  0.00  0.00    +0.000 C 
ATOM      2  N   UNL     1       2.419   3.452  18.818  0.00  0.00    +0.000 N 
ATOM      3  C   UNL     1       1.685   4.308  19.630  0.00  0.00    +0.000 C 
ATOM      4  O   UNL     1       0.779   3.910  20.361  0.00  0.00    +0.000 OA
ATOM      5  N   UNL     1       2.026   5.635  19.566  0.00  0.00    +0.000 N 
ATOM      6  H   UNL     1       3.002   5.827  19.415  0.00  0.00    +0.000 HD
ENDROOT
BRANCH   2   7
ATOM      7  C   UNL     1       3.522   3.864  17.936  0.00  0.00    +0.000 C 
BRANCH   7   8
ATOM      8  C   UNL     1       4.949   3.837  18.512  0.00  0.00    +0.000 C 
BRANCH   8   9
ATOM      9  C   UNL     1       5.773   5.046  18.167  0.00  0.00    +0.000 A 
ATOM     10  C   UNL     1       7.070   5.331  18.558  0.00  0.00    +0.000 A 
ATOM     11  C   UNL     1       7.529   6.574  18.039  0.00  0.00    +0.000 A 
ATOM     12  C   UNL     1       6.570   7.200  17.276  0.00  0.00    +0.000 A 
ATOM     13  S   UNL     1       5.119   6.302  17.203  0.00  0.00    +0.000 S 
ENDBRANCH   8   9
ENDBRANCH   7   8
ENDBRANCH   2   7
BRANCH   5  14
ATOM     14  C   UNL     1       1.297   6.584  20.386  0.00  0.00    +0.000 C 
BRANCH  14  15
ATOM     15  C   UNL     1       1.949   7.976  20.416  0.00  0.00    +0.000 C 
ATOM     16  C   UNL     1       2.051   8.632  19.028  0.00  0.00    +0.000 C 
ATOM     17  C   UNL     1       0.699   9.094  18.484  0.00  0.00    +0.000 C 
ATOM     18  C   UNL     1      -0.037  10.013  19.460  0.00  0.00    +0.000 C 
ATOM     19  C   UNL     1      -0.165   9.356  20.842  0.00  0.00    +0.000 C 
ATOM     20  C   UNL     1       1.192   8.904  21.387  0.00  0.00    +0.000 C 
ATOM     21  O   UNL     1       0.684  11.239  19.598  0.00  0.00    +0.000 OA
ATOM     22  C   UNL     1      -0.290  12.277  19.629  0.00  0.00    +0.000 C 
ATOM     23  C   UNL     1      -1.619  11.640  19.300  0.00  0.00    +0.000 C 
ATOM     24  O   UNL     1      -1.336  10.295  18.938  0.00  0.00    +0.000 OA
ENDBRANCH  14  15
ENDBRANCH   5  14
TORSDOF 5
ENDMDL
MODEL 6
REMARK VINA RESULT:      -6.3      3.176      7.405
REMARK  Name = 
REMARK  6 active torsions:
REMARK  status: ('A' for Active; 'I' for Inactive)
REMARK    1  A    between atoms: C_1  and  N_2
REMARK    2  A    between atoms: N_2  and  C_3
REMARK    3  A    between atoms: C_3  and  C_4
REMARK    4  A    between atoms: C_4  and  C_5
REMARK    5  A    between atoms: N_12  and  C_13
REMARK    6  A    between atoms: C_13  and  C_14
REMARK                            x       y       z     vdW  Elec       q    Type
REMARK                         _______ _______ _______ _____ _____    ______ ____
ROOT
ATOM      1  C   UNL     1       5.835   4.164  16.654  0.00  0.00    +0.000 C 
ATOM      2  N   UNL     1       5.276   4.969  17.731  0.00  0.00    +0.000 N 
ATOM      3  C   UNL     1       4.613   6.116  17.317  0.00  0.00    +0.000 C 
ATOM      4  O   UNL     1       4.601   6.485  16.143  0.00  0.00    +0.000 OA
ATOM      5  N   UNL     1       3.968   6.825  18.299  0.00  0.00    +0.000 N 
ATOM      6  H   UNL     1       3.570   6.276  19.043  0.00  0.00    +0.000 HD
ENDROOT
BRANCH   2   7
ATOM      7  C   UNL     1       5.313   4.467  19.114  0.00  0.00    +0.000 C 
BRANCH   7   8
ATOM      8  C   UNL     1       4.653   3.107  19.402  0.00  0.00    +0.000 C 
BRANCH   8   9
ATOM      9  C   UNL     1       3.150   3.148  19.429  0.00  0.00    +0.000 A 
ATOM     10  C   UNL     1       2.334   3.801  20.336  0.00  0.00    +0.000 A 
ATOM     11  C   UNL     1       0.952   3.616  20.049  0.00  0.00    +0.000 A 
ATOM     12  C   UNL     1       0.757   2.826  18.939  0.00  0.00    +0.000 A 
ATOM     13  S   UNL     1       2.232   2.295  18.261  0.00  0.00    +0.000 S 
ENDBRANCH   8   9
ENDBRANCH   7   8
ENDBRANCH   2   7
BRANCH   5  14
ATOM     14  C   UNL     1       3.256   8.035  17.935  0.00  0.00    +0.000 C 
BRANCH  14  15
ATOM     15  C   UNL     1       1.743   7.942  18.191  0.00  0.00    +0.000 C 
ATOM     16  C   UNL     1       1.391   7.576  19.643  0.00  0.00    +0.000 C 
ATOM     17  C   UNL     1       1.655   8.716  20.627  0.00  0.00    +0.000 C 
ATOM     18  C   UNL     1       0.958  10.013  20.215  0.00  0.00    +0.000 C 
ATOM     19  C   UNL     1       1.322  10.398  18.774  0.00  0.00    +0.000 C 
ATOM     20  C   UNL     1       1.047   9.257  17.791  0.00  0.00    +0.000 C 
ATOM     21  O   UNL     1      -0.460   9.841  20.301  0.00  0.00    +0.000 OA
ATOM     22  C   UNL     1      -0.978  11.049  20.850  0.00  0.00    +0.000 C 
ATOM     23  C   UNL     1       0.208  11.878  21.279  0.00  0.00    +0.000 C 
ATOM     24  O   UNL     1       1.354  11.053  21.108  0.00  0.00    +0.000 OA
ENDBRANCH  14  15
ENDBRANCH   5  14
TORSDOF 5
ENDMDL
MODEL 7
REMARK VINA RESULT:      -6.3      3.766      8.956
REMARK  Name = 
REMARK  6 active torsions:
REMARK  status: ('A' for Active; 'I' for Inactive)
REMARK    1  A    between atoms: C_1  and  N_2
REMARK    2  A    between atoms: N_2  and  C_3
REMARK    3  A    between atoms: C_3  and  C_4
REMARK    4  A    between atoms: C_4  and  C_5
REMARK    5  A    between atoms: N_12  and  C_13
REMARK    6  A    between atoms: C_13  and  C_14
REMARK                            x       y       z     vdW  Elec       q    Type
REMARK                         _______ _______ _______ _____ _____    ______ ____
ROOT
ATOM      1  C   UNL     1       2.819   3.692  19.673  0.00  0.00    +0.000 C 
ATOM      2  N   UNL     1       2.932   5.143  19.712  0.00  0.00    +0.000 N 
ATOM      3  C   UNL     1       1.878   5.792  20.342  0.00  0.00    +0.000 C 
ATOM      4  O   UNL     1       0.872   5.199  20.728  0.00  0.00    +0.000 OA
ATOM      5  N   UNL     1       2.019   7.147  20.505  0.00  0.00    +0.000 N 
ATOM      6  H   UNL     1       2.957   7.471  20.672  0.00  0.00    +0.000 HD
ENDROOT
BRANCH   2   7
ATOM      7  C   UNL     1       4.165   5.794  19.242  0.00  0.00    +0.000 C 
BRANCH   7   8
ATOM      8  C   UNL     1       5.441   4.938  19.160  0.00  0.00    +0.000 C 
BRANCH   8   9
ATOM      9  C   UNL     1       5.904   4.661  17.756  0.00  0.00    +0.000 A 
ATOM     10  C   UNL     1       7.175   4.824  17.233  0.00  0.00    +0.000 A 
ATOM     11  C   UNL     1       7.242   4.460  15.858  0.00  0.00    +0.000 A 
ATOM     12  C   UNL     1       6.025   4.037  15.376  0.00  0.00    +0.000 A 
ATOM     13  S   UNL     1       4.804   4.098  16.570  0.00  0.00    +0.000 S 
ENDBRANCH   8   9
ENDBRANCH   7   8
ENDBRANCH   2   7
BRANCH   5  14
ATOM     14  C   UNL     1       0.953   7.887  21.154  0.00  0.00    +0.000 C 
BRANCH  14  15
ATOM     15  C   UNL     1       1.443   9.183  21.822  0.00  0.00    +0.000 C 
ATOM     16  C   UNL     1       1.371  10.412  20.899  0.00  0.00    +0.000 C 
ATOM     17  C   UNL     1      -0.061  10.886  20.647  0.00  0.00    +0.000 C 
ATOM     18  C   UNL     1      -0.825  11.145  21.946  0.00  0.00    +0.000 C 
ATOM     19  C   UNL     1      -0.778   9.914  22.864  0.00  0.00    +0.000 C 
ATOM     20  C   UNL     1       0.658   9.448  23.121  0.00  0.00    +0.000 C 
ATOM     21  O   UNL     1      -0.239  12.254  22.632  0.00  0.00    +0.000 OA
ATOM     22  C   UNL     1      -1.320  13.020  23.153  0.00  0.00    +0.000 C 
ATOM     23  C   UNL     1      -2.588  12.435  22.579  0.00  0.00    +0.000 C 
ATOM     24  O   UNL     1      -2.180  11.459  21.628  0.00  0.00    +0.000 OA
ENDBRANCH  14  15
ENDBRANCH   5  14
TORSDOF 5
ENDMDL
MODEL 8
REMARK VINA RESULT:      -6.3      2.444      3.521
REMARK  Name = 
REMARK  6 active torsions:
REMARK  status: ('A' for Active; 'I' for Inactive)
REMARK    1  A    between atoms: C_1  and  N_2
REMARK    2  A    between atoms: N_2  and  C_3
REMARK    3  A    between atoms: C_3  and  C_4
REMARK    4  A    between atoms: C_4  and  C_5
REMARK    5  A    between atoms: N_12  and  C_13
REMARK    6  A    between atoms: C_13  and  C_14
REMARK                            x       y       z     vdW  Elec       q    Type
REMARK                         _______ _______ _______ _____ _____    ______ ____
ROOT
ATOM      1  C   UNL     1       1.387  11.211  18.724  0.00  0.00    +0.000 C 
ATOM      2  N   UNL     1       1.351   9.859  19.264  0.00  0.00    +0.000 N 
ATOM      3  C   UNL     1       1.859   8.881  18.418  0.00  0.00    +0.000 C 
ATOM      4  O   UNL     1       2.200   9.121  17.261  0.00  0.00    +0.000 OA
ATOM      5  N   UNL     1       1.955   7.620  18.949  0.00  0.00    +0.000 N 
ATOM      6  H   UNL     1       2.175   7.576  19.930  0.00  0.00    +0.000 HD
ENDROOT
BRANCH   2   7
ATOM      7  C   UNL     1       0.942   9.639  20.660  0.00  0.00    +0.000 C 
BRANCH   7   8
ATOM      8  C   UNL     1      -0.560   9.712  20.986  0.00  0.00    +0.000 C 
BRANCH   8   9
ATOM      9  C   UNL     1      -0.995  11.018  21.590  0.00  0.00    +0.000 A 
ATOM     10  C   UNL     1      -0.953  11.396  22.920  0.00  0.00    +0.000 A 
ATOM     11  C   UNL     1      -1.452  12.714  23.123  0.00  0.00    +0.000 A 
ATOM     12  C   UNL     1      -1.863  13.296  21.947  0.00  0.00    +0.000 A 
ATOM     13  S   UNL     1      -1.666  12.252  20.609  0.00  0.00    +0.000 S 
ENDBRANCH   8   9
ENDBRANCH   7   8
ENDBRANCH   2   7
BRANCH   5  14
ATOM     14  C   UNL     1       2.476   6.551  18.119  0.00  0.00    +0.000 C 
BRANCH  14  15
ATOM     15  C   UNL     1       3.924   6.169  18.470  0.00  0.00    +0.000 C 
ATOM     16  C   UNL     1       4.188   4.654  18.409  0.00  0.00    +0.000 C 
ATOM     17  C   UNL     1       4.215   4.110  16.980  0.00  0.00    +0.000 C 
ATOM     18  C   UNL     1       5.203   4.864  16.090  0.00  0.00    +0.000 C 
ATOM     19  C   UNL     1       4.931   6.376  16.126  0.00  0.00    +0.000 C 
ATOM     20  C   UNL     1       4.914   6.918  17.558  0.00  0.00    +0.000 C 
ATOM     21  O   UNL     1       6.537   4.625  16.546  0.00  0.00    +0.000 OA
ATOM     22  C   UNL     1       7.336   4.456  15.379  0.00  0.00    +0.000 C 
ATOM     23  C   UNL     1       6.390   4.403  14.204  0.00  0.00    +0.000 C 
ATOM     24  O   UNL     1       5.077   4.384  14.751  0.00  0.00    +0.000 OA
ENDBRANCH  14  15
ENDBRANCH   5  14
TORSDOF 5
ENDMDL
MODEL 9
REMARK VINA RESULT:      -6.3      3.149      7.381
REMARK  Name = 
REMARK  6 active torsions:
REMARK  status: ('A' for Active; 'I' for Inactive)
REMARK    1  A    between atoms: C_1  and  N_2
REMARK    2  A    between atoms: N_2  and  C_3
REMARK    3  A    between atoms: C_3  and  C_4
REMARK    4  A    between atoms: C_4  and  C_5
REMARK    5  A    between atoms: N_12  and  C_13
REMARK    6  A    between atoms: C_13  and  C_14
REMARK                            x       y       z     vdW  Elec       q    Type
REMARK                         _______ _______ _______ _____ _____    ______ ____
ROOT
ATOM      1  C   UNL     1       5.976   4.862  15.272  0.00  0.00    +0.000 C 
ATOM      2  N   UNL     1       5.197   5.072  16.484  0.00  0.00    +0.000 N 
ATOM      3  C   UNL     1       4.716   6.365  16.650  0.00  0.00    +0.000 C 
ATOM      4  O   UNL     1       5.024   7.286  15.896  0.00  0.00    +0.000 OA
ATOM      5  N   UNL     1       3.874   6.560  17.716  0.00  0.00    +0.000 N 
ATOM      6  H   UNL     1       3.274   5.785  17.944  0.00  0.00    +0.000 HD
ENDROOT
BRANCH   2   7
ATOM      7  C   UNL     1       4.854   3.926  17.341  0.00  0.00    +0.000 C 
BRANCH   7   8
ATOM      8  C   UNL     1       3.433   3.346  17.228  0.00  0.00    +0.000 C 
BRANCH   8   9
ATOM      9  C   UNL     1       2.641   3.407  18.505  0.00  0.00    +0.000 A 
ATOM     10  C   UNL     1       1.326   3.802  18.671  0.00  0.00    +0.000 A 
ATOM     11  C   UNL     1       0.910   3.731  20.031  0.00  0.00    +0.000 A 
ATOM     12  C   UNL     1       1.918   3.292  20.857  0.00  0.00    +0.000 A 
ATOM     13  S   UNL     1       3.364   2.985  20.000  0.00  0.00    +0.000 S 
ENDBRANCH   8   9
ENDBRANCH   7   8
ENDBRANCH   2   7
BRANCH   5  14
ATOM     14  C   UNL     1       3.337   7.886  17.949  0.00  0.00    +0.000 C 
BRANCH  14  15
ATOM     15  C   UNL     1       1.806   7.899  18.086  0.00  0.00    +0.000 C 
ATOM     16  C   UNL     1       1.315   7.497  19.488  0.00  0.00    +0.000 C 
ATOM     17  C   UNL     1       1.584   8.567  20.545  0.00  0.00    +0.000 C 
ATOM     18  C   UNL     1       1.018   9.931  20.148  0.00  0.00    +0.000 C 
ATOM     19  C   UNL     1       1.522  10.352  18.759  0.00  0.00    +0.000 C 
ATOM     20  C   UNL     1       1.242   9.280  17.702  0.00  0.00    +0.000 C 
ATOM     21  O   UNL     1      -0.410   9.866  20.119  0.00  0.00    +0.000 OA
ATOM     22  C   UNL     1      -0.879  11.084  20.688  0.00  0.00    +0.000 C 
ATOM     23  C   UNL     1       0.327  11.800  21.247  0.00  0.00    +0.000 C 
ATOM     24  O   UNL     1       1.419  10.897  21.120  0.00  0.00    +0.000 OA
ENDBRANCH  14  15
ENDBRANCH   5  14
TORSDOF 5
ENDMDL
