MODEL 1
REMARK VINA RESULT:      -7.8      0.000      0.000
REMARK  Name = 
REMARK  7 active torsions:
REMARK  status: ('A' for Active; 'I' for Inactive)
REMARK    1  A    between atoms: C_1  and  N_2
REMARK    2  A    between atoms: C_5  and  O_6
REMARK    3  A    between atoms: O_6  and  N_7
REMARK    4  A    between atoms: C_8  and  C_9
REMARK    5  A    between atoms: C_14  and  O_15
REMARK    6  A    between atoms: O_15  and  C_16
REMARK    7  A    between atoms: C_16  and  C_17
REMARK                            x       y       z     vdW  Elec       q    Type
REMARK                         _______ _______ _______ _____ _____    ______ ____
ROOT
ATOM      1  C   UNL     1       2.609   3.741  18.478  0.00  0.00    +0.000 A 
ATOM      2  C   UNL     1       2.336   2.503  19.085  0.00  0.00    +0.000 A 
ATOM      3  C   UNL     1       1.676   2.438  20.311  0.00  0.00    +0.000 A 
ATOM      4  C   UNL     1       1.301   3.608  20.954  0.00  0.00    +0.000 A 
ATOM      5  C   UNL     1       1.547   4.842  20.353  0.00  0.00    +0.000 A 
ATOM      6  C   UNL     1       2.166   4.932  19.090  0.00  0.00    +0.000 A 
ENDROOT
BRANCH   1   8
ATOM      7  N   UNL     1       4.693   3.674  17.241  0.00  0.00    +0.000 NA
ATOM      8  C   UNL     1       3.395   3.734  17.217  0.00  0.00    +0.000 C 
BRANCH   7   9
ATOM      9  O   UNL     1       5.219   3.768  15.937  0.00  0.00    +0.000 OA
BRANCH   9  14
ATOM     10  C   UNL     1       7.888   6.018  19.018  0.00  0.00    +0.000 C 
ATOM     11  N   UNL     1       7.483   5.910  17.624  0.00  0.00    +0.000 NA
ATOM     12  C   UNL     1       6.248   6.639  17.344  0.00  0.00    +0.000 C 
ATOM     13  C   UNL     1       5.852   6.111  15.971  0.00  0.00    +0.000 C 
ATOM     14  C   UNL     1       6.345   4.660  15.945  0.00  0.00    +0.000 C 
ATOM     15  C   UNL     1       7.187   4.525  17.224  0.00  0.00    +0.000 C 
ENDBRANCH   9  14
ENDBRANCH   7   9
ENDBRANCH   1   8
BRANCH   6  16
ATOM     16  O   UNL     1       2.399   6.139  18.485  0.00  0.00    +0.000 OA
BRANCH  16  17
ATOM     17  C   UNL     1       2.675   7.247  19.372  0.00  0.00    +0.000 C 
BRANCH  17  18
ATOM     18  C   UNL     1       1.712   8.417  19.230  0.00  0.00    +0.000 A 
ATOM     19  C   UNL     1       1.415   8.919  17.953  0.00  0.00    +0.000 A 
ATOM     20  C   UNL     1       0.453   9.920  17.777  0.00  0.00    +0.000 A 
ATOM     21  C   UNL     1      -0.231  10.424  18.878  0.00  0.00    +0.000 A 
ATOM     22 CL   UNL     1      -1.468  11.601  18.650  0.00  0.00    +0.000 Cl
ATOM     23  C   UNL     1       0.064   9.969  20.157  0.00  0.00    +0.000 A 
ATOM     24  C   UNL     1       1.031   8.971  20.333  0.00  0.00    +0.000 A 
ATOM     25 CL   UNL     1       1.355   8.471  21.954  0.00  0.00    +0.000 Cl
ENDBRANCH  17  18
ENDBRANCH  16  17
ENDBRANCH   6  16
TORSDOF 6
ENDMDL
MODEL 2
REMARK VINA RESULT:      -7.6      1.326      1.776
REMARK  Name = 
REMARK  7 active torsions:
REMARK  status: ('A' for Active; 'I' for Inactive)
REMARK    1  A    between atoms: C_1  and  N_2
REMARK    2  A    between atoms: C_5  and  O_6
REMARK    3  A    between atoms: O_6  and  N_7
REMARK    4  A    between atoms: C_8  and  C_9
REMARK    5  A    between atoms: C_14  and  O_15
REMARK    6  A    between atoms: O_15  and  C_16
REMARK    7  A    between atoms: C_16  and  C_17
REMARK                            x       y       z     vdW  Elec       q    Type
REMARK                         _______ _______ _______ _____ _____    ______ ____
ROOT
ATOM      1  C   UNL     1       2.957   3.714  18.925  0.00  0.00    +0.000 A 
ATOM      2  C   UNL     1       3.285   2.524  19.597  0.00  0.00    +0.000 A 
ATOM      3  C   UNL     1       2.933   2.337  20.933  0.00  0.00    +0.000 A 
ATOM      4  C   UNL     1       2.269   3.344  21.617  0.00  0.00    +0.000 A 
ATOM      5  C   UNL     1       1.919   4.520  20.956  0.00  0.00    +0.000 A 
ATOM      6  C   UNL     1       2.218   4.712  19.592  0.00  0.00    +0.000 A 
ENDROOT
BRANCH   1   8
ATOM      7  N   UNL     1       4.703   3.724  17.243  0.00  0.00    +0.000 NA
ATOM      8  C   UNL     1       3.444   3.877  17.531  0.00  0.00    +0.000 C 
BRANCH   7   9
ATOM      9  O   UNL     1       4.939   4.011  15.883  0.00  0.00    +0.000 OA
BRANCH   9  14
ATOM     10  C   UNL     1       7.845   6.336  18.683  0.00  0.00    +0.000 C 
ATOM     11  N   UNL     1       7.263   6.249  17.351  0.00  0.00    +0.000 NA
ATOM     12  C   UNL     1       5.955   6.897  17.271  0.00  0.00    +0.000 C 
ATOM     13  C   UNL     1       5.413   6.392  15.940  0.00  0.00    +0.000 C 
ATOM     14  C   UNL     1       5.994   4.981  15.782  0.00  0.00    +0.000 C 
ATOM     15  C   UNL     1       7.008   4.862  16.931  0.00  0.00    +0.000 C 
ENDBRANCH   9  14
ENDBRANCH   7   9
ENDBRANCH   1   8
BRANCH   6  16
ATOM     16  O   UNL     1       1.865   5.859  18.931  0.00  0.00    +0.000 OA
BRANCH  16  17
ATOM     17  C   UNL     1       2.566   7.059  19.329  0.00  0.00    +0.000 C 
BRANCH  17  18
ATOM     18  C   UNL     1       1.676   8.125  19.953  0.00  0.00    +0.000 A 
ATOM     19  C   UNL     1       1.246   7.978  21.281  0.00  0.00    +0.000 A 
ATOM     20  C   UNL     1       0.519   8.988  21.921  0.00  0.00    +0.000 A 
ATOM     21  C   UNL     1       0.222  10.165  21.240  0.00  0.00    +0.000 A 
ATOM     22 CL   UNL     1      -0.606  11.436  22.054  0.00  0.00    +0.000 Cl
ATOM     23  C   UNL     1       0.608  10.326  19.915  0.00  0.00    +0.000 A 
ATOM     24  C   UNL     1       1.331   9.311  19.275  0.00  0.00    +0.000 A 
ATOM     25 CL   UNL     1       1.758   9.578  17.622  0.00  0.00    +0.000 Cl
ENDBRANCH  17  18
ENDBRANCH  16  17
ENDBRANCH   6  16
TORSDOF 6
ENDMDL
MODEL 3
REMARK VINA RESULT:      -7.5      1.895      2.728
REMARK  Name = 
REMARK  7 active torsions:
REMARK  status: ('A' for Active; 'I' for Inactive)
REMARK    1  A    between atoms: C_1  and  N_2
REMARK    2  A    between atoms: C_5  and  O_6
REMARK    3  A    between atoms: O_6  and  N_7
REMARK    4  A    between atoms: C_8  and  C_9
REMARK    5  A    between atoms: C_14  and  O_15
REMARK    6  A    between atoms: O_15  and  C_16
REMARK    7  A    between atoms: C_16  and  C_17
REMARK                            x       y       z     vdW  Elec       q    Type
REMARK                         _______ _______ _______ _____ _____    ______ ____
ROOT
ATOM      1  C   UNL     1       3.266   4.467  19.623  0.00  0.00    +0.000 A 
ATOM      2  C   UNL     1       3.245   3.226  18.964  0.00  0.00    +0.000 A 
ATOM      3  C   UNL     1       2.083   2.455  18.929  0.00  0.00    +0.000 A 
ATOM      4  C   UNL     1       0.939   2.906  19.570  0.00  0.00    +0.000 A 
ATOM      5  C   UNL     1       0.942   4.145  20.209  0.00  0.00    +0.000 A 
ATOM      6  C   UNL     1       2.088   4.965  20.214  0.00  0.00    +0.000 A 
ENDROOT
BRANCH   1   8
ATOM      7  N   UNL     1       5.682   4.574  19.447  0.00  0.00    +0.000 NA
ATOM      8  C   UNL     1       4.564   5.188  19.695  0.00  0.00    +0.000 C 
BRANCH   7   9
ATOM      9  O   UNL     1       6.779   5.433  19.662  0.00  0.00    +0.000 OA
BRANCH   9  14
ATOM     10  C   UNL     1       5.414   6.185  15.274  0.00  0.00    +0.000 C 
ATOM     11  N   UNL     1       6.541   5.930  16.160  0.00  0.00    +0.000 NA
ATOM     12  C   UNL     1       6.724   4.506  16.433  0.00  0.00    +0.000 C 
ATOM     13  C   UNL     1       7.692   4.513  17.609  0.00  0.00    +0.000 C 
ATOM     14  C   UNL     1       7.357   5.786  18.394  0.00  0.00    +0.000 C 
ATOM     15  C   UNL     1       6.365   6.535  17.490  0.00  0.00    +0.000 C 
ENDBRANCH   9  14
ENDBRANCH   7   9
ENDBRANCH   1   8
BRANCH   6  16
ATOM     16  O   UNL     1       2.094   6.191  20.827  0.00  0.00    +0.000 OA
BRANCH  16  17
ATOM     17  C   UNL     1       1.962   7.335  19.954  0.00  0.00    +0.000 C 
BRANCH  17  18
ATOM     18  C   UNL     1       1.176   8.493  20.554  0.00  0.00    +0.000 A 
ATOM     19  C   UNL     1       0.751   8.422  21.890  0.00  0.00    +0.000 A 
ATOM     20  C   UNL     1       0.123   9.510  22.506  0.00  0.00    +0.000 A 
ATOM     21  C   UNL     1      -0.079  10.688  21.793  0.00  0.00    +0.000 A 
ATOM     22 CL   UNL     1      -0.784  12.050  22.576  0.00  0.00    +0.000 Cl
ATOM     23  C   UNL     1       0.303  10.775  20.460  0.00  0.00    +0.000 A 
ATOM     24  C   UNL     1       0.927   9.684  19.843  0.00  0.00    +0.000 A 
ATOM     25 CL   UNL     1       1.355   9.864  18.180  0.00  0.00    +0.000 Cl
ENDBRANCH  17  18
ENDBRANCH  16  17
ENDBRANCH   6  16
TORSDOF 6
ENDMDL
MODEL 4
REMARK VINA RESULT:      -7.5      1.511      1.989
REMARK  Name = 
REMARK  7 active torsions:
REMARK  status: ('A' for Active; 'I' for Inactive)
REMARK    1  A    between atoms: C_1  and  N_2
REMARK    2  A    between atoms: C_5  and  O_6
REMARK    3  A    between atoms: O_6  and  N_7
REMARK    4  A    between atoms: C_8  and  C_9
REMARK    5  A    between atoms: C_14  and  O_15
REMARK    6  A    between atoms: O_15  and  C_16
REMARK    7  A    between atoms: C_16  and  C_17
REMARK                            x       y       z     vdW  Elec       q    Type
REMARK                         _______ _______ _______ _____ _____    ______ ____
ROOT
ATOM      1  C   UNL     1       2.991   3.563  18.679  0.00  0.00    +0.000 A 
ATOM      2  C   UNL     1       2.282   2.389  18.373  0.00  0.00    +0.000 A 
ATOM      3  C   UNL     1       1.034   2.138  18.943  0.00  0.00    +0.000 A 
ATOM      4  C   UNL     1       0.493   3.046  19.840  0.00  0.00    +0.000 A 
ATOM      5  C   UNL     1       1.177   4.224  20.135  0.00  0.00    +0.000 A 
ATOM      6  C   UNL     1       2.415   4.524  19.533  0.00  0.00    +0.000 A 
ENDROOT
BRANCH   1   8
ATOM      7  N   UNL     1       4.519   3.931  16.832  0.00  0.00    +0.000 NA
ATOM      8  C   UNL     1       4.353   3.717  18.104  0.00  0.00    +0.000 C 
BRANCH   7   9
ATOM      9  O   UNL     1       5.890   3.956  16.508  0.00  0.00    +0.000 OA
BRANCH   9  14
ATOM     10  C   UNL     1       7.778   8.030  17.744  0.00  0.00    +0.000 C 
ATOM     11  N   UNL     1       6.996   7.315  16.744  0.00  0.00    +0.000 NA
ATOM     12  C   UNL     1       5.577   7.250  17.088  0.00  0.00    +0.000 C 
ATOM     13  C   UNL     1       5.047   6.200  16.120  0.00  0.00    +0.000 C 
ATOM     14  C   UNL     1       6.212   5.224  15.913  0.00  0.00    +0.000 C 
ATOM     15  C   UNL     1       7.402   5.907  16.606  0.00  0.00    +0.000 C 
ENDBRANCH   9  14
ENDBRANCH   7   9
ENDBRANCH   1   8
BRANCH   6  16
ATOM     16  O   UNL     1       3.087   5.687  19.807  0.00  0.00    +0.000 OA
BRANCH  16  17
ATOM     17  C   UNL     1       2.717   6.834  19.010  0.00  0.00    +0.000 C 
BRANCH  17  18
ATOM     18  C   UNL     1       1.871   7.862  19.747  0.00  0.00    +0.000 A 
ATOM     19  C   UNL     1       1.499   7.626  21.080  0.00  0.00    +0.000 A 
ATOM     20  C   UNL     1       0.815   8.595  21.822  0.00  0.00    +0.000 A 
ATOM     21  C   UNL     1       0.504   9.820  21.240  0.00  0.00    +0.000 A 
ATOM     22 CL   UNL     1      -0.269  11.039  22.178  0.00  0.00    +0.000 Cl
ATOM     23  C   UNL     1       0.832  10.070  19.913  0.00  0.00    +0.000 A 
ATOM     24  C   UNL     1       1.511   9.097  19.170  0.00  0.00    +0.000 A 
ATOM     25 CL   UNL     1       1.867   9.476  17.523  0.00  0.00    +0.000 Cl
ENDBRANCH  17  18
ENDBRANCH  16  17
ENDBRANCH   6  16
TORSDOF 6
ENDMDL
MODEL 5
REMARK VINA RESULT:      -7.4      3.231      6.258
REMARK  Name = 
REMARK  7 active torsions:
REMARK  status: ('A' for Active; 'I' for Inactive)
REMARK    1  A    between atoms: C_1  and  N_2
REMARK    2  A    between atoms: C_5  and  O_6
REMARK    3  A    between atoms: O_6  and  N_7
REMARK    4  A    between atoms: C_8  and  C_9
REMARK    5  A    between atoms: C_14  and  O_15
REMARK    6  A    between atoms: O_15  and  C_16
REMARK    7  A    between atoms: C_16  and  C_17
REMARK                            x       y       z     vdW  Elec       q    Type
REMARK                         _______ _______ _______ _____ _____    ______ ____
ROOT
ATOM      1  C   UNL     1       2.148   5.250  19.162  0.00  0.00    +0.000 A 
ATOM      2  C   UNL     1       1.741   5.175  20.506  0.00  0.00    +0.000 A 
ATOM      3  C   UNL     1       1.216   3.994  21.029  0.00  0.00    +0.000 A 
ATOM      4  C   UNL     1       1.071   2.883  20.211  0.00  0.00    +0.000 A 
ATOM      5  C   UNL     1       1.491   2.939  18.882  0.00  0.00    +0.000 A 
ATOM      6  C   UNL     1       2.072   4.104  18.345  0.00  0.00    +0.000 A 
ENDROOT
BRANCH   1   8
ATOM      7  N   UNL     1       1.959   7.656  18.931  0.00  0.00    +0.000 NA
ATOM      8  C   UNL     1       2.612   6.567  18.654  0.00  0.00    +0.000 C 
BRANCH   7   9
ATOM      9  O   UNL     1       2.535   8.761  18.273  0.00  0.00    +0.000 OA
BRANCH   9  14
ATOM     10  C   UNL     1       1.856  13.197  19.516  0.00  0.00    +0.000 C 
ATOM     11  N   UNL     1       1.242  11.979  19.006  0.00  0.00    +0.000 NA
ATOM     12  C   UNL     1       0.867  11.054  20.074  0.00  0.00    +0.000 C 
ATOM     13  C   UNL     1       0.585   9.764  19.315  0.00  0.00    +0.000 C 
ATOM     14  C   UNL     1       1.543   9.789  18.117  0.00  0.00    +0.000 C 
ATOM     15  C   UNL     1       2.153  11.199  18.153  0.00  0.00    +0.000 C 
ENDBRANCH   9  14
ENDBRANCH   7   9
ENDBRANCH   1   8
BRANCH   6  16
ATOM     16  O   UNL     1       2.500   4.163  17.044  0.00  0.00    +0.000 OA
BRANCH  16  17
ATOM     17  C   UNL     1       3.790   3.569  16.776  0.00  0.00    +0.000 C 
BRANCH  17  18
ATOM     18  C   UNL     1       4.974   4.430  17.193  0.00  0.00    +0.000 A 
ATOM     19  C   UNL     1       5.472   5.399  16.307  0.00  0.00    +0.000 A 
ATOM     20  C   UNL     1       6.487   6.280  16.697  0.00  0.00    +0.000 A 
ATOM     21  C   UNL     1       7.010   6.207  17.985  0.00  0.00    +0.000 A 
ATOM     22 CL   UNL     1       8.204   7.341  18.486  0.00  0.00    +0.000 Cl
ATOM     23  C   UNL     1       6.559   5.238  18.872  0.00  0.00    +0.000 A 
ATOM     24  C   UNL     1       5.547   4.353  18.478  0.00  0.00    +0.000 A 
ATOM     25 CL   UNL     1       5.054   3.165  19.631  0.00  0.00    +0.000 Cl
ENDBRANCH  17  18
ENDBRANCH  16  17
ENDBRANCH   6  16
TORSDOF 6
ENDMDL
MODEL 6
REMARK VINA RESULT:      -7.4      4.003      7.437
REMARK  Name = 
REMARK  7 active torsions:
REMARK  status: ('A' for Active; 'I' for Inactive)
REMARK    1  A    between atoms: C_1  and  N_2
REMARK    2  A    between atoms: C_5  and  O_6
REMARK    3  A    between atoms: O_6  and  N_7
REMARK    4  A    between atoms: C_8  and  C_9
REMARK    5  A    between atoms: C_14  and  O_15
REMARK    6  A    between atoms: O_15  and  C_16
REMARK    7  A    between atoms: C_16  and  C_17
REMARK                            x       y       z     vdW  Elec       q    Type
REMARK                         _______ _______ _______ _____ _____    ______ ____
ROOT
ATOM      1  C   UNL     1       1.947   4.978  19.604  0.00  0.00    +0.000 A 
ATOM      2  C   UNL     1       0.973   4.204  20.259  0.00  0.00    +0.000 A 
ATOM      3  C   UNL     1       0.760   2.873  19.903  0.00  0.00    +0.000 A 
ATOM      4  C   UNL     1       1.499   2.309  18.875  0.00  0.00    +0.000 A 
ATOM      5  C   UNL     1       2.483   3.059  18.232  0.00  0.00    +0.000 A 
ATOM      6  C   UNL     1       2.753   4.390  18.609  0.00  0.00    +0.000 A 
ENDROOT
BRANCH   1   8
ATOM      7  N   UNL     1       1.415   6.884  21.007  0.00  0.00    +0.000 NA
ATOM      8  C   UNL     1       2.054   6.413  19.977  0.00  0.00    +0.000 C 
BRANCH   7   9
ATOM      9  O   UNL     1       1.599   8.277  21.111  0.00  0.00    +0.000 OA
BRANCH   9  14
ATOM     10  C   UNL     1      -0.302  12.437  21.985  0.00  0.00    +0.000 C 
ATOM     11  N   UNL     1      -0.553  11.034  21.686  0.00  0.00    +0.000 NA
ATOM     12  C   UNL     1      -0.516  10.194  22.881  0.00  0.00    +0.000 C 
ATOM     13  C   UNL     1      -0.455   8.788  22.300  0.00  0.00    +0.000 C 
ATOM     14  C   UNL     1       0.326   8.932  20.988  0.00  0.00    +0.000 C 
ATOM     15  C   UNL     1       0.468  10.451  20.800  0.00  0.00    +0.000 C 
ENDBRANCH   9  14
ENDBRANCH   7   9
ENDBRANCH   1   8
BRANCH   6  16
ATOM     16  O   UNL     1       3.727   5.131  17.992  0.00  0.00    +0.000 OA
BRANCH  16  17
ATOM     17  C   UNL     1       5.060   4.572  18.022  0.00  0.00    +0.000 C 
BRANCH  17  18
ATOM     18  C   UNL     1       5.777   4.591  16.679  0.00  0.00    +0.000 A 
ATOM     19  C   UNL     1       5.350   3.734  15.653  0.00  0.00    +0.000 A 
ATOM     20  C   UNL     1       5.914   3.800  14.375  0.00  0.00    +0.000 A 
ATOM     21  C   UNL     1       6.908   4.736  14.105  0.00  0.00    +0.000 A 
ATOM     22 CL   UNL     1       7.546   4.867  12.511  0.00  0.00    +0.000 Cl
ATOM     23  C   UNL     1       7.372   5.576  15.108  0.00  0.00    +0.000 A 
ATOM     24  C   UNL     1       6.811   5.505  16.389  0.00  0.00    +0.000 A 
ATOM     25 CL   UNL     1       7.455   6.569  17.587  0.00  0.00    +0.000 Cl
ENDBRANCH  17  18
ENDBRANCH  16  17
ENDBRANCH   6  16
TORSDOF 6
ENDMDL
MODEL 7
REMARK VINA RESULT:      -7.4      3.311      6.440
REMARK  Name = 
REMARK  7 active torsions:
REMARK  status: ('A' for Active; 'I' for Inactive)
REMARK    1  A    between atoms: C_1  and  N_2
REMARK    2  A    between atoms: C_5  and  O_6
REMARK    3  A    between atoms: O_6  and  N_7
REMARK    4  A    between atoms: C_8  and  C_9
REMARK    5  A    between atoms: C_14  and  O_15
REMARK    6  A    between atoms: O_15  and  C_16
REMARK    7  A    between atoms: C_16  and  C_17
REMARK                            x       y       z     vdW  Elec       q    Type
REMARK                         _______ _______ _______ _____ _____    ______ ____
ROOT
ATOM      1  C   UNL     1       2.049   4.963  19.931  0.00  0.00    +0.000 A 
ATOM      2  C   UNL     1       1.865   4.480  21.239  0.00  0.00    +0.000 A 
ATOM      3  C   UNL     1       1.543   3.143  21.468  0.00  0.00    +0.000 A 
ATOM      4  C   UNL     1       1.381   2.280  20.395  0.00  0.00    +0.000 A 
ATOM      5  C   UNL     1       1.581   2.742  19.095  0.00  0.00    +0.000 A 
ATOM      6  C   UNL     1       1.958   4.076  18.840  0.00  0.00    +0.000 A 
ENDROOT
BRANCH   1   8
ATOM      7  N   UNL     1       1.572   7.297  20.383  0.00  0.00    +0.000 NA
ATOM      8  C   UNL     1       2.301   6.417  19.762  0.00  0.00    +0.000 C 
BRANCH   7   9
ATOM      9  O   UNL     1       1.938   8.604  20.002  0.00  0.00    +0.000 OA
BRANCH   9  14
ATOM     10  C   UNL     1       0.680  12.880  18.654  0.00  0.00    +0.000 C 
ATOM     11  N   UNL     1       0.340  11.722  19.469  0.00  0.00    +0.000 NA
ATOM     12  C   UNL     1       1.008  11.739  20.769  0.00  0.00    +0.000 C 
ATOM     13  C   UNL     1       0.788  10.320  21.276  0.00  0.00    +0.000 C 
ATOM     14  C   UNL     1       0.773   9.444  20.018  0.00  0.00    +0.000 C 
ATOM     15  C   UNL     1       0.765  10.452  18.858  0.00  0.00    +0.000 C 
ENDBRANCH   9  14
ENDBRANCH   7   9
ENDBRANCH   1   8
BRANCH   6  16
ATOM     16  O   UNL     1       2.170   4.534  17.566  0.00  0.00    +0.000 OA
BRANCH  16  17
ATOM     17  C   UNL     1       3.358   4.040  16.907  0.00  0.00    +0.000 C 
BRANCH  17  18
ATOM     18  C   UNL     1       4.619   4.837  17.209  0.00  0.00    +0.000 A 
ATOM     19  C   UNL     1       4.972   5.916  16.382  0.00  0.00    +0.000 A 
ATOM     20  C   UNL     1       6.062   6.736  16.692  0.00  0.00    +0.000 A 
ATOM     21  C   UNL     1       6.808   6.492  17.841  0.00  0.00    +0.000 A 
ATOM     22 CL   UNL     1       8.102   7.548  18.259  0.00  0.00    +0.000 Cl
ATOM     23  C   UNL     1       6.502   5.413  18.660  0.00  0.00    +0.000 A 
ATOM     24  C   UNL     1       5.414   4.589  18.346  0.00  0.00    +0.000 A 
ATOM     25 CL   UNL     1       5.108   3.257  19.403  0.00  0.00    +0.000 Cl
ENDBRANCH  17  18
ENDBRANCH  16  17
ENDBRANCH   6  16
TORSDOF 6
ENDMDL
MODEL 8
REMARK VINA RESULT:      -7.4      3.310      6.460
REMARK  Name = 
REMARK  7 active torsions:
REMARK  status: ('A' for Active; 'I' for Inactive)
REMARK    1  A    between atoms: C_1  and  N_2
REMARK    2  A    between atoms: C_5  and  O_6
REMARK    3  A    between atoms: O_6  and  N_7
REMARK    4  A    between atoms: C_8  and  C_9
REMARK    5  A    between atoms: C_14  and  O_15
REMARK    6  A    between atoms: O_15  and  C_16
REMARK    7  A    between atoms: C_16  and  C_17
REMARK                            x       y       z     vdW  Elec       q    Type
REMARK                         _______ _______ _______ _____ _____    ______ ____
ROOT
ATOM      1  C   UNL     1       2.586   5.170  19.088  0.00  0.00    +0.000 A 
ATOM      2  C   UNL     1       2.120   5.040  20.407  0.00  0.00    +0.000 A 
ATOM      3  C   UNL     1       2.017   3.786  21.008  0.00  0.00    +0.000 A 
ATOM      4  C   UNL     1       2.358   2.649  20.292  0.00  0.00    +0.000 A 
ATOM      5  C   UNL     1       2.842   2.766  18.990  0.00  0.00    +0.000 A 
ATOM      6  C   UNL     1       3.004   4.026  18.378  0.00  0.00    +0.000 A 
ENDROOT
BRANCH   1   8
ATOM      7  N   UNL     1       2.261   7.570  19.192  0.00  0.00    +0.000 NA
ATOM      8  C   UNL     1       2.582   6.528  18.485  0.00  0.00    +0.000 C 
BRANCH   7   9
ATOM      9  O   UNL     1       2.244   8.729  18.390  0.00  0.00    +0.000 OA
BRANCH   9  14
ATOM     10  C   UNL     1       1.348  12.871  20.320  0.00  0.00    +0.000 C 
ATOM     11  N   UNL     1       0.806  11.575  19.938  0.00  0.00    +0.000 NA
ATOM     12  C   UNL     1       1.050  10.548  20.949  0.00  0.00    +0.000 C 
ATOM     13  C   UNL     1       0.721   9.261  20.204  0.00  0.00    +0.000 C 
ATOM     14  C   UNL     1       1.108   9.534  18.746  0.00  0.00    +0.000 C 
ATOM     15  C   UNL     1       1.427  11.037  18.716  0.00  0.00    +0.000 C 
ENDBRANCH   9  14
ENDBRANCH   7   9
ENDBRANCH   1   8
BRANCH   6  16
ATOM     16  O   UNL     1       3.493   4.151  17.104  0.00  0.00    +0.000 OA
BRANCH  16  17
ATOM     17  C   UNL     1       4.912   3.929  16.946  0.00  0.00    +0.000 C 
BRANCH  17  18
ATOM     18  C   UNL     1       5.784   5.079  17.429  0.00  0.00    +0.000 A 
ATOM     19  C   UNL     1       6.577   4.914  18.576  0.00  0.00    +0.000 A 
ATOM     20  C   UNL     1       7.470   5.909  18.986  0.00  0.00    +0.000 A 
ATOM     21  C   UNL     1       7.588   7.081  18.246  0.00  0.00    +0.000 A 
ATOM     22 CL   UNL     1       8.743   8.271  18.709  0.00  0.00    +0.000 Cl
ATOM     23  C   UNL     1       6.794   7.286  17.124  0.00  0.00    +0.000 A 
ATOM     24  C   UNL     1       5.896   6.291  16.718  0.00  0.00    +0.000 A 
ATOM     25 CL   UNL     1       4.931   6.628  15.326  0.00  0.00    +0.000 Cl
ENDBRANCH  17  18
ENDBRANCH  16  17
ENDBRANCH   6  16
TORSDOF 6
ENDMDL
MODEL 9
REMARK VINA RESULT:      -7.3      3.832      7.219
REMARK  Name = 
REMARK  7 active torsions:
REMARK  status: ('A' for Active; 'I' for Inactive)
REMARK    1  A    between atoms: C_1  and  N_2
REMARK    2  A    between atoms: C_5  and  O_6
REMARK    3  A    between atoms: O_6  and  N_7
REMARK    4  A    between atoms: C_8  and  C_9
REMARK    5  A    between atoms: C_14  and  O_15
REMARK    6  A    between atoms: O_15  and  C_16
REMARK    7  A    between atoms: C_16  and  C_17
REMARK                            x       y       z     vdW  Elec       q    Type
REMARK                         _______ _______ _______ _____ _____    ______ ____
ROOT
ATOM      1  C   UNL     1       2.357   5.402  19.987  0.00  0.00    +0.000 A 
ATOM      2  C   UNL     1       1.227   4.805  20.571  0.00  0.00    +0.000 A 
ATOM      3  C   UNL     1       1.255   3.474  20.985  0.00  0.00    +0.000 A 
ATOM      4  C   UNL     1       2.404   2.720  20.801  0.00  0.00    +0.000 A 
ATOM      5  C   UNL     1       3.538   3.307  20.243  0.00  0.00    +0.000 A 
ATOM      6  C   UNL     1       3.552   4.664  19.864  0.00  0.00    +0.000 A 
ENDROOT
BRANCH   1   8
ATOM      7  N   UNL     1       1.806   7.746  20.272  0.00  0.00    +0.000 NA
ATOM      8  C   UNL     1       2.222   6.796  19.489  0.00  0.00    +0.000 C 
BRANCH   7   9
ATOM      9  O   UNL     1       1.677   8.956  19.560  0.00  0.00    +0.000 OA
BRANCH   9  14
ATOM     10  C   UNL     1      -0.784  12.751  18.456  0.00  0.00    +0.000 C 
ATOM     11  N   UNL     1      -0.574  11.691  19.431  0.00  0.00    +0.000 NA
ATOM     12  C   UNL     1       0.506  11.999  20.366  0.00  0.00    +0.000 C 
ATOM     13  C   UNL     1       0.764  10.655  21.034  0.00  0.00    +0.000 C 
ATOM     14  C   UNL     1       0.460   9.609  19.955  0.00  0.00    +0.000 C 
ATOM     15  C   UNL     1      -0.165  10.421  18.810  0.00  0.00    +0.000 C 
ENDBRANCH   9  14
ENDBRANCH   7   9
ENDBRANCH   1   8
BRANCH   6  16
ATOM     16  O   UNL     1       4.667   5.252  19.327  0.00  0.00    +0.000 OA
BRANCH  16  17
ATOM     17  C   UNL     1       5.671   4.350  18.811  0.00  0.00    +0.000 C 
BRANCH  17  18
ATOM     18  C   UNL     1       5.907   4.468  17.312  0.00  0.00    +0.000 A 
ATOM     19  C   UNL     1       7.148   4.924  16.840  0.00  0.00    +0.000 A 
ATOM     20  C   UNL     1       7.438   4.942  15.471  0.00  0.00    +0.000 A 
ATOM     21  C   UNL     1       6.490   4.493  14.557  0.00  0.00    +0.000 A 
ATOM     22 CL   UNL     1       6.876   4.445  12.880  0.00  0.00    +0.000 Cl
ATOM     23  C   UNL     1       5.242   4.065  14.993  0.00  0.00    +0.000 A 
ATOM     24  C   UNL     1       4.951   4.053  16.363  0.00  0.00    +0.000 A 
ATOM     25 CL   UNL     1       3.372   3.526  16.824  0.00  0.00    +0.000 Cl
ENDBRANCH  17  18
ENDBRANCH  16  17
ENDBRANCH   6  16
TORSDOF 6
ENDMDL
