MODEL 1
REMARK VINA RESULT:      -7.8      0.000      0.000
REMARK  Name = 
REMARK  7 active torsions:
REMARK  status: ('A' for Active; 'I' for Inactive)
REMARK    1  A    between atoms: C_1  and  N_2
REMARK    2  A    between atoms: C_5  and  C_6
REMARK    3  A    between atoms: C_7  and  C_8
REMARK    4  A    between atoms: N_11  and  C_12
REMARK    5  A    between atoms: C_16  and  S_17
REMARK    6  A    between atoms: S_17  and  C_18
REMARK    7  A    between atoms: C_24  and  C_25
REMARK                            x       y       z     vdW  Elec       q    Type
REMARK                         _______ _______ _______ _____ _____    ______ ____
ROOT
ATOM      1  C   UNL     1       0.996   9.923  19.669  0.00  0.00    +0.000 A 
ATOM      2  N   UNL     1       1.775   9.291  18.744  0.00  0.00    +0.000 NA
ATOM      3  C   UNL     1       2.239   8.065  19.040  0.00  0.00    +0.000 A 
ATOM      4  N   UNL     1       2.987   7.386  18.076  0.00  0.00    +0.000 N 
ATOM      5  N   UNL     1       2.012   7.470  20.219  0.00  0.00    +0.000 NA
ATOM      6  C   UNL     1       1.227   8.097  21.104  0.00  0.00    +0.000 A 
ATOM      7  C   UNL     1       0.670   9.329  20.879  0.00  0.00    +0.000 A 
ATOM      8  H   UNL     1       3.189   7.980  17.286  0.00  0.00    +0.000 HD
ENDROOT
BRANCH   1  15
ATOM      9  C   UNL     1      -0.603  15.866  18.889  0.00  0.00    +0.000 C 
ATOM     10  N   UNL     1       0.563  15.015  18.804  0.00  0.00    +0.000 N 
ATOM     11  C   UNL     1       0.364  13.679  18.819  0.00  0.00    +0.000 A 
ATOM     12  N   UNL     1      -0.743  13.073  18.474  0.00  0.00    +0.000 NA
ATOM     13  C   UNL     1      -0.648  11.702  18.682  0.00  0.00    +0.000 A 
ATOM     14  C   UNL     1      -1.837  10.889  18.313  0.00  0.00    +0.000 C 
ATOM     15  C   UNL     1       0.548  11.268  19.248  0.00  0.00    +0.000 A 
ATOM     16  S   UNL     1       1.611  12.630  19.336  0.00  0.00    +0.000 S 
ATOM     17  H   UNL     1       1.363  15.344  19.336  0.00  0.00    +0.000 HD
ENDBRANCH   1  15
BRANCH   4  18
ATOM     18  C   UNL     1       3.129   5.999  17.876  0.00  0.00    +0.000 A 
ATOM     19  C   UNL     1       4.154   5.516  17.049  0.00  0.00    +0.000 A 
ATOM     20  C   UNL     1       4.349   4.139  16.859  0.00  0.00    +0.000 A 
ATOM     21  C   UNL     1       3.531   3.215  17.507  0.00  0.00    +0.000 A 
ATOM     22  C   UNL     1       2.532   3.682  18.354  0.00  0.00    +0.000 A 
ATOM     23  C   UNL     1       2.331   5.052  18.533  0.00  0.00    +0.000 A 
BRANCH  22  24
ATOM     24  S   UNL     1       1.450   2.541  19.181  0.00  0.00    +0.000 S 
ATOM     25  C   UNL     1       1.103   3.348  20.722  0.00  0.00    +0.000 C 
ATOM     26  O   UNL     1       0.215   2.467  18.422  0.00  0.00    +0.000 OA
ATOM     27  O   UNL     1       2.217   1.342  19.463  0.00  0.00    +0.000 OA
ENDBRANCH  22  24
ENDBRANCH   4  18
BRANCH   7  28
ATOM     28  C   UNL     1      -0.184   9.864  21.879  0.00  0.00    +0.000 C 
ATOM     29  N   UNL     1      -0.844  10.297  22.733  0.00  0.00    +0.000 NA
ENDBRANCH   7  28
TORSDOF 4
ENDMDL
MODEL 2
REMARK VINA RESULT:      -7.5      2.974      3.535
REMARK  Name = 
REMARK  7 active torsions:
REMARK  status: ('A' for Active; 'I' for Inactive)
REMARK    1  A    between atoms: C_1  and  N_2
REMARK    2  A    between atoms: C_5  and  C_6
REMARK    3  A    between atoms: C_7  and  C_8
REMARK    4  A    between atoms: N_11  and  C_12
REMARK    5  A    between atoms: C_16  and  S_17
REMARK    6  A    between atoms: S_17  and  C_18
REMARK    7  A    between atoms: C_24  and  C_25
REMARK                            x       y       z     vdW  Elec       q    Type
REMARK                         _______ _______ _______ _____ _____    ______ ____
ROOT
ATOM      1  C   UNL     1       0.078   9.748  19.981  0.00  0.00    +0.000 A 
ATOM      2  N   UNL     1       0.794   9.344  18.893  0.00  0.00    +0.000 NA
ATOM      3  C   UNL     1       1.816   8.492  19.090  0.00  0.00    +0.000 A 
ATOM      4  N   UNL     1       2.515   8.025  17.976  0.00  0.00    +0.000 N 
ATOM      5  N   UNL     1       2.186   8.075  20.308  0.00  0.00    +0.000 NA
ATOM      6  C   UNL     1       1.457   8.466  21.360  0.00  0.00    +0.000 A 
ATOM      7  C   UNL     1       0.371   9.296  21.259  0.00  0.00    +0.000 A 
ATOM      8  H   UNL     1       2.222   8.499  17.135  0.00  0.00    +0.000 HD
ENDROOT
BRANCH   1  15
ATOM      9  C   UNL     1      -4.844  13.506  19.606  0.00  0.00    +0.000 C 
ATOM     10  N   UNL     1      -3.473  13.523  20.067  0.00  0.00    +0.000 N 
ATOM     11  C   UNL     1      -2.675  12.499  19.693  0.00  0.00    +0.000 A 
ATOM     12  N   UNL     1      -2.858  11.740  18.643  0.00  0.00    +0.000 NA
ATOM     13  C   UNL     1      -1.908  10.727  18.588  0.00  0.00    +0.000 A 
ATOM     14  C   UNL     1      -1.991   9.799  17.430  0.00  0.00    +0.000 C 
ATOM     15  C   UNL     1      -1.015  10.691  19.656  0.00  0.00    +0.000 A 
ATOM     16  S   UNL     1      -1.306  12.089  20.631  0.00  0.00    +0.000 S 
ATOM     17  H   UNL     1      -3.356  13.843  21.023  0.00  0.00    +0.000 HD
ENDBRANCH   1  15
BRANCH   4  18
ATOM     18  C   UNL     1       3.207   6.810  17.806  0.00  0.00    +0.000 A 
ATOM     19  C   UNL     1       2.500   5.598  17.812  0.00  0.00    +0.000 A 
ATOM     20  C   UNL     1       3.152   4.372  17.607  0.00  0.00    +0.000 A 
ATOM     21  C   UNL     1       4.526   4.335  17.373  0.00  0.00    +0.000 A 
ATOM     22  C   UNL     1       5.232   5.532  17.334  0.00  0.00    +0.000 A 
ATOM     23  C   UNL     1       4.585   6.750  17.550  0.00  0.00    +0.000 A 
BRANCH  22  24
ATOM     24  S   UNL     1       6.988   5.531  17.065  0.00  0.00    +0.000 S 
ATOM     25  C   UNL     1       7.510   7.080  17.753  0.00  0.00    +0.000 C 
ATOM     26  O   UNL     1       7.561   4.465  17.865  0.00  0.00    +0.000 OA
ATOM     27  O   UNL     1       7.207   5.577  15.631  0.00  0.00    +0.000 OA
ENDBRANCH  22  24
ENDBRANCH   4  18
BRANCH   7  28
ATOM     28  C   UNL     1      -0.346   9.598  22.447  0.00  0.00    +0.000 C 
ATOM     29  N   UNL     1      -0.973   9.818  23.401  0.00  0.00    +0.000 NA
ENDBRANCH   7  28
TORSDOF 4
ENDMDL
MODEL 3
REMARK VINA RESULT:      -7.5      2.899      3.458
REMARK  Name = 
REMARK  7 active torsions:
REMARK  status: ('A' for Active; 'I' for Inactive)
REMARK    1  A    between atoms: C_1  and  N_2
REMARK    2  A    between atoms: C_5  and  C_6
REMARK    3  A    between atoms: C_7  and  C_8
REMARK    4  A    between atoms: N_11  and  C_12
REMARK    5  A    between atoms: C_16  and  S_17
REMARK    6  A    between atoms: S_17  and  C_18
REMARK    7  A    between atoms: C_24  and  C_25
REMARK                            x       y       z     vdW  Elec       q    Type
REMARK                         _______ _______ _______ _____ _____    ______ ____
ROOT
ATOM      1  C   UNL     1       0.071   9.833  20.052  0.00  0.00    +0.000 A 
ATOM      2  N   UNL     1       0.716   9.390  18.934  0.00  0.00    +0.000 NA
ATOM      3  C   UNL     1       1.723   8.513  19.090  0.00  0.00    +0.000 A 
ATOM      4  N   UNL     1       2.347   8.008  17.949  0.00  0.00    +0.000 N 
ATOM      5  N   UNL     1       2.147   8.106  20.294  0.00  0.00    +0.000 NA
ATOM      6  C   UNL     1       1.488   8.534  21.376  0.00  0.00    +0.000 A 
ATOM      7  C   UNL     1       0.421   9.394  21.320  0.00  0.00    +0.000 A 
ATOM      8  H   UNL     1       2.022   8.477  17.117  0.00  0.00    +0.000 HD
ENDROOT
BRANCH   1  15
ATOM      9  C   UNL     1      -4.750  13.732  19.879  0.00  0.00    +0.000 C 
ATOM     10  N   UNL     1      -3.354  13.719  20.254  0.00  0.00    +0.000 N 
ATOM     11  C   UNL     1      -2.611  12.660  19.859  0.00  0.00    +0.000 A 
ATOM     12  N   UNL     1      -2.882  11.882  18.843  0.00  0.00    +0.000 NA
ATOM     13  C   UNL     1      -1.967  10.838  18.757  0.00  0.00    +0.000 A 
ATOM     14  C   UNL     1      -2.149   9.886  17.631  0.00  0.00    +0.000 C 
ATOM     15  C   UNL     1      -1.011  10.801  19.769  0.00  0.00    +0.000 A 
ATOM     16  S   UNL     1      -1.200  12.232  20.722  0.00  0.00    +0.000 S 
ATOM     17  H   UNL     1      -3.168  14.057  21.193  0.00  0.00    +0.000 HD
ENDBRANCH   1  15
BRANCH   4  18
ATOM     18  C   UNL     1       2.995   6.771  17.764  0.00  0.00    +0.000 A 
ATOM     19  C   UNL     1       2.270   5.578  17.898  0.00  0.00    +0.000 A 
ATOM     20  C   UNL     1       2.874   4.329  17.682  0.00  0.00    +0.000 A 
ATOM     21  C   UNL     1       4.215   4.250  17.310  0.00  0.00    +0.000 A 
ATOM     22  C   UNL     1       4.936   5.427  17.144  0.00  0.00    +0.000 A 
ATOM     23  C   UNL     1       4.337   6.669  17.370  0.00  0.00    +0.000 A 
BRANCH  22  24
ATOM     24  S   UNL     1       6.654   5.374  16.696  0.00  0.00    +0.000 S 
ATOM     25  C   UNL     1       6.647   4.514  15.145  0.00  0.00    +0.000 C 
ATOM     26  O   UNL     1       7.095   6.735  16.455  0.00  0.00    +0.000 OA
ATOM     27  O   UNL     1       7.331   4.539  17.671  0.00  0.00    +0.000 OA
ENDBRANCH  22  24
ENDBRANCH   4  18
BRANCH   7  28
ATOM     28  C   UNL     1      -0.222   9.736  22.539  0.00  0.00    +0.000 C 
ATOM     29  N   UNL     1      -0.740   9.967  23.554  0.00  0.00    +0.000 NA
ENDBRANCH   7  28
TORSDOF 4
ENDMDL
MODEL 4
REMARK VINA RESULT:      -7.4      1.806      1.946
REMARK  Name = 
REMARK  7 active torsions:
REMARK  status: ('A' for Active; 'I' for Inactive)
REMARK    1  A    between atoms: C_1  and  N_2
REMARK    2  A    between atoms: C_5  and  C_6
REMARK    3  A    between atoms: C_7  and  C_8
REMARK    4  A    between atoms: N_11  and  C_12
REMARK    5  A    between atoms: C_16  and  S_17
REMARK    6  A    between atoms: S_17  and  C_18
REMARK    7  A    between atoms: C_24  and  C_25
REMARK                            x       y       z     vdW  Elec       q    Type
REMARK                         _______ _______ _______ _____ _____    ______ ____
ROOT
ATOM      1  C   UNL     1       0.031   9.876  20.042  0.00  0.00    +0.000 A 
ATOM      2  N   UNL     1       0.672   9.459  18.912  0.00  0.00    +0.000 NA
ATOM      3  C   UNL     1       1.686   8.585  19.047  0.00  0.00    +0.000 A 
ATOM      4  N   UNL     1       2.307   8.106  17.893  0.00  0.00    +0.000 N 
ATOM      5  N   UNL     1       2.120   8.159  20.241  0.00  0.00    +0.000 NA
ATOM      6  C   UNL     1       1.464   8.563  21.335  0.00  0.00    +0.000 A 
ATOM      7  C   UNL     1       0.391   9.417  21.300  0.00  0.00    +0.000 A 
ATOM      8  H   UNL     1       1.974   8.587  17.072  0.00  0.00    +0.000 HD
ENDROOT
BRANCH   1  15
ATOM      9  C   UNL     1      -4.792  13.777  19.979  0.00  0.00    +0.000 C 
ATOM     10  N   UNL     1      -3.385  13.766  20.312  0.00  0.00    +0.000 N 
ATOM     11  C   UNL     1      -2.655  12.703  19.905  0.00  0.00    +0.000 A 
ATOM     12  N   UNL     1      -2.957  11.915  18.905  0.00  0.00    +0.000 NA
ATOM     13  C   UNL     1      -2.045  10.870  18.801  0.00  0.00    +0.000 A 
ATOM     14  C   UNL     1      -2.262   9.906  17.690  0.00  0.00    +0.000 C 
ATOM     15  C   UNL     1      -1.058  10.842  19.783  0.00  0.00    +0.000 A 
ATOM     16  S   UNL     1      -1.218  12.282  20.727  0.00  0.00    +0.000 S 
ATOM     17  H   UNL     1      -3.170  14.113  21.240  0.00  0.00    +0.000 HD
ENDBRANCH   1  15
BRANCH   4  18
ATOM     18  C   UNL     1       2.962   6.876  17.682  0.00  0.00    +0.000 A 
ATOM     19  C   UNL     1       4.255   6.859  17.137  0.00  0.00    +0.000 A 
ATOM     20  C   UNL     1       4.951   5.655  16.949  0.00  0.00    +0.000 A 
ATOM     21  C   UNL     1       4.374   4.442  17.320  0.00  0.00    +0.000 A 
ATOM     22  C   UNL     1       3.105   4.449  17.890  0.00  0.00    +0.000 A 
ATOM     23  C   UNL     1       2.409   5.646  18.066  0.00  0.00    +0.000 A 
BRANCH  22  24
ATOM     24  S   UNL     1       2.321   2.925  18.355  0.00  0.00    +0.000 S 
ATOM     25  C   UNL     1       2.582   2.846  20.107  0.00  0.00    +0.000 C 
ATOM     26  O   UNL     1       0.897   3.065  18.117  0.00  0.00    +0.000 OA
ATOM     27  O   UNL     1       3.070   1.846  17.738  0.00  0.00    +0.000 OA
ENDBRANCH  22  24
ENDBRANCH   4  18
BRANCH   7  28
ATOM     28  C   UNL     1      -0.247   9.732  22.529  0.00  0.00    +0.000 C 
ATOM     29  N   UNL     1      -0.732  10.026  23.543  0.00  0.00    +0.000 NA
ENDBRANCH   7  28
TORSDOF 4
ENDMDL
MODEL 5
REMARK VINA RESULT:      -7.4      1.648      2.488
REMARK  Name = 
REMARK  7 active torsions:
REMARK  status: ('A' for Active; 'I' for Inactive)
REMARK    1  A    between atoms: C_1  and  N_2
REMARK    2  A    between atoms: C_5  and  C_6
REMARK    3  A    between atoms: C_7  and  C_8
REMARK    4  A    between atoms: N_11  and  C_12
REMARK    5  A    between atoms: C_16  and  S_17
REMARK    6  A    between atoms: S_17  and  C_18
REMARK    7  A    between atoms: C_24  and  C_25
REMARK                            x       y       z     vdW  Elec       q    Type
REMARK                         _______ _______ _______ _____ _____    ______ ____
ROOT
ATOM      1  C   UNL     1       0.428  10.630  20.632  0.00  0.00    +0.000 A 
ATOM      2  N   UNL     1       1.230   9.731  19.994  0.00  0.00    +0.000 NA
ATOM      3  C   UNL     1       1.451   8.546  20.590  0.00  0.00    +0.000 A 
ATOM      4  N   UNL     1       2.220   7.596  19.916  0.00  0.00    +0.000 N 
ATOM      5  N   UNL     1       0.962   8.243  21.800  0.00  0.00    +0.000 NA
ATOM      6  C   UNL     1       0.160   9.130  22.400  0.00  0.00    +0.000 A 
ATOM      7  C   UNL     1      -0.161  10.346  21.855  0.00  0.00    +0.000 A 
ATOM      8  H   UNL     1       2.626   7.983  19.077  0.00  0.00    +0.000 HD
ENDROOT
BRANCH   1  15
ATOM      9  C   UNL     1      -0.385  16.404  18.513  0.00  0.00    +0.000 C 
ATOM     10  N   UNL     1       0.670  15.546  19.006  0.00  0.00    +0.000 N 
ATOM     11  C   UNL     1       0.402  14.226  19.117  0.00  0.00    +0.000 A 
ATOM     12  N   UNL     1      -0.519  13.581  18.448  0.00  0.00    +0.000 NA
ATOM     13  C   UNL     1      -0.594  12.254  18.855  0.00  0.00    +0.000 A 
ATOM     14  C   UNL     1      -1.592  11.400  18.159  0.00  0.00    +0.000 C 
ATOM     15  C   UNL     1       0.260  11.903  19.897  0.00  0.00    +0.000 A 
ATOM     16  S   UNL     1       1.284  13.260  20.216  0.00  0.00    +0.000 S 
ATOM     17  H   UNL     1       1.218  15.946  19.761  0.00  0.00    +0.000 HD
ENDBRANCH   1  15
BRANCH   4  18
ATOM     18  C   UNL     1       2.176   6.191  20.005  0.00  0.00    +0.000 A 
ATOM     19  C   UNL     1       1.041   5.561  20.538  0.00  0.00    +0.000 A 
ATOM     20  C   UNL     1       0.948   4.163  20.606  0.00  0.00    +0.000 A 
ATOM     21  C   UNL     1       1.983   3.363  20.125  0.00  0.00    +0.000 A 
ATOM     22  C   UNL     1       3.100   3.975  19.567  0.00  0.00    +0.000 A 
ATOM     23  C   UNL     1       3.197   5.367  19.511  0.00  0.00    +0.000 A 
BRANCH  22  24
ATOM     24  S   UNL     1       4.455   2.996  18.966  0.00  0.00    +0.000 S 
ATOM     25  C   UNL     1       5.603   4.207  18.367  0.00  0.00    +0.000 C 
ATOM     26  O   UNL     1       5.058   2.324  20.101  0.00  0.00    +0.000 OA
ATOM     27  O   UNL     1       3.969   2.235  17.830  0.00  0.00    +0.000 OA
ENDBRANCH  22  24
ENDBRANCH   4  18
BRANCH   7  28
ATOM     28  C   UNL     1      -1.062  11.178  22.572  0.00  0.00    +0.000 C 
ATOM     29  N   UNL     1      -1.823  11.816  23.176  0.00  0.00    +0.000 NA
ENDBRANCH   7  28
TORSDOF 4
ENDMDL
MODEL 6
REMARK VINA RESULT:      -7.4      3.266      4.394
REMARK  Name = 
REMARK  7 active torsions:
REMARK  status: ('A' for Active; 'I' for Inactive)
REMARK    1  A    between atoms: C_1  and  N_2
REMARK    2  A    between atoms: C_5  and  C_6
REMARK    3  A    between atoms: C_7  and  C_8
REMARK    4  A    between atoms: N_11  and  C_12
REMARK    5  A    between atoms: C_16  and  S_17
REMARK    6  A    between atoms: S_17  and  C_18
REMARK    7  A    between atoms: C_24  and  C_25
REMARK                            x       y       z     vdW  Elec       q    Type
REMARK                         _______ _______ _______ _____ _____    ______ ____
ROOT
ATOM      1  C   UNL     1      -0.108  11.136  18.487  0.00  0.00    +0.000 A 
ATOM      2  N   UNL     1       0.073   9.804  18.254  0.00  0.00    +0.000 NA
ATOM      3  C   UNL     1       1.329   9.360  18.072  0.00  0.00    +0.000 A 
ATOM      4  N   UNL     1       1.530   7.990  17.894  0.00  0.00    +0.000 N 
ATOM      5  N   UNL     1       2.391  10.177  18.056  0.00  0.00    +0.000 NA
ATOM      6  C   UNL     1       2.194  11.477  18.308  0.00  0.00    +0.000 A 
ATOM      7  C   UNL     1       0.958  12.020  18.550  0.00  0.00    +0.000 A 
ATOM      8  H   UNL     1       0.653   7.500  17.807  0.00  0.00    +0.000 HD
ENDROOT
BRANCH   1  15
ATOM      9  C   UNL     1      -6.022  12.122  20.080  0.00  0.00    +0.000 C 
ATOM     10  N   UNL     1      -4.699  12.624  20.379  0.00  0.00    +0.000 N 
ATOM     11  C   UNL     1      -3.690  12.252  19.560  0.00  0.00    +0.000 A 
ATOM     12  N   UNL     1      -3.827  11.859  18.319  0.00  0.00    +0.000 NA
ATOM     13  C   UNL     1      -2.605  11.468  17.783  0.00  0.00    +0.000 A 
ATOM     14  C   UNL     1      -2.615  11.014  16.368  0.00  0.00    +0.000 C 
ATOM     15  C   UNL     1      -1.526  11.520  18.662  0.00  0.00    +0.000 A 
ATOM     16  S   UNL     1      -2.079  12.252  20.128  0.00  0.00    +0.000 S 
ATOM     17  H   UNL     1      -4.473  12.650  21.368  0.00  0.00    +0.000 HD
ENDBRANCH   1  15
BRANCH   4  18
ATOM     18  C   UNL     1       2.660   7.210  18.209  0.00  0.00    +0.000 A 
ATOM     19  C   UNL     1       2.659   6.415  19.365  0.00  0.00    +0.000 A 
ATOM     20  C   UNL     1       3.752   5.596  19.688  0.00  0.00    +0.000 A 
ATOM     21  C   UNL     1       4.864   5.541  18.849  0.00  0.00    +0.000 A 
ATOM     22  C   UNL     1       4.863   6.300  17.684  0.00  0.00    +0.000 A 
ATOM     23  C   UNL     1       3.781   7.125  17.370  0.00  0.00    +0.000 A 
BRANCH  22  24
ATOM     24  S   UNL     1       6.269   6.282  16.599  0.00  0.00    +0.000 S 
ATOM     25  C   UNL     1       7.131   4.804  17.068  0.00  0.00    +0.000 C 
ATOM     26  O   UNL     1       5.784   6.110  15.243  0.00  0.00    +0.000 OA
ATOM     27  O   UNL     1       7.102   7.418  16.947  0.00  0.00    +0.000 OA
ENDBRANCH  22  24
ENDBRANCH   4  18
BRANCH   7  28
ATOM     28  C   UNL     1       0.890  13.406  18.850  0.00  0.00    +0.000 C 
ATOM     29  N   UNL     1       0.812  14.529  19.142  0.00  0.00    +0.000 NA
ENDBRANCH   7  28
TORSDOF 4
ENDMDL
MODEL 7
REMARK VINA RESULT:      -7.3      2.418      2.923
REMARK  Name = 
REMARK  7 active torsions:
REMARK  status: ('A' for Active; 'I' for Inactive)
REMARK    1  A    between atoms: C_1  and  N_2
REMARK    2  A    between atoms: C_5  and  C_6
REMARK    3  A    between atoms: C_7  and  C_8
REMARK    4  A    between atoms: N_11  and  C_12
REMARK    5  A    between atoms: C_16  and  S_17
REMARK    6  A    between atoms: S_17  and  C_18
REMARK    7  A    between atoms: C_24  and  C_25
REMARK                            x       y       z     vdW  Elec       q    Type
REMARK                         _______ _______ _______ _____ _____    ______ ____
ROOT
ATOM      1  C   UNL     1       0.650  10.128  20.213  0.00  0.00    +0.000 A 
ATOM      2  N   UNL     1       1.357   9.683  19.135  0.00  0.00    +0.000 NA
ATOM      3  C   UNL     1       2.046   8.535  19.261  0.00  0.00    +0.000 A 
ATOM      4  N   UNL     1       2.723   8.039  18.145  0.00  0.00    +0.000 N 
ATOM      5  N   UNL     1       2.107   7.851  20.411  0.00  0.00    +0.000 NA
ATOM      6  C   UNL     1       1.390   8.293  21.451  0.00  0.00    +0.000 A 
ATOM      7  C   UNL     1       0.621   9.427  21.409  0.00  0.00    +0.000 A 
ATOM      8  H   UNL     1       2.699   8.699  17.382  0.00  0.00    +0.000 HD
ENDROOT
BRANCH   1  15
ATOM      9  C   UNL     1      -2.294  15.589  20.254  0.00  0.00    +0.000 C 
ATOM     10  N   UNL     1      -0.948  15.059  20.249  0.00  0.00    +0.000 N 
ATOM     11  C   UNL     1      -0.795  13.745  19.972  0.00  0.00    +0.000 A 
ATOM     12  N   UNL     1      -1.643  13.008  19.303  0.00  0.00    +0.000 NA
ATOM     13  C   UNL     1      -1.229  11.681  19.265  0.00  0.00    +0.000 A 
ATOM     14  C   UNL     1      -2.098  10.734  18.517  0.00  0.00    +0.000 C 
ATOM     15  C   UNL     1      -0.061  11.403  19.971  0.00  0.00    +0.000 A 
ATOM     16  S   UNL     1       0.587  12.907  20.526  0.00  0.00    +0.000 S 
ATOM     17  H   UNL     1      -0.351  15.424  20.984  0.00  0.00    +0.000 HD
ENDBRANCH   1  15
BRANCH   4  18
ATOM     18  C   UNL     1       3.042   6.707  17.819  0.00  0.00    +0.000 A 
ATOM     19  C   UNL     1       2.120   5.684  18.084  0.00  0.00    +0.000 A 
ATOM     20  C   UNL     1       2.390   4.351  17.738  0.00  0.00    +0.000 A 
ATOM     21  C   UNL     1       3.584   4.016  17.100  0.00  0.00    +0.000 A 
ATOM     22  C   UNL     1       4.492   5.027  16.804  0.00  0.00    +0.000 A 
ATOM     23  C   UNL     1       4.228   6.351  17.161  0.00  0.00    +0.000 A 
BRANCH  22  24
ATOM     24  S   UNL     1       6.037   4.643  16.016  0.00  0.00    +0.000 S 
ATOM     25  C   UNL     1       7.197   4.658  17.358  0.00  0.00    +0.000 C 
ATOM     26  O   UNL     1       5.954   3.288  15.506  0.00  0.00    +0.000 OA
ATOM     27  O   UNL     1       6.359   5.747  15.131  0.00  0.00    +0.000 OA
ENDBRANCH  22  24
ENDBRANCH   4  18
BRANCH   7  28
ATOM     28  C   UNL     1      -0.131   9.763  22.566  0.00  0.00    +0.000 C 
ATOM     29  N   UNL     1      -0.771   9.992  23.509  0.00  0.00    +0.000 NA
ENDBRANCH   7  28
TORSDOF 4
ENDMDL
MODEL 8
REMARK VINA RESULT:      -7.3      1.795      2.374
REMARK  Name = 
REMARK  7 active torsions:
REMARK  status: ('A' for Active; 'I' for Inactive)
REMARK    1  A    between atoms: C_1  and  N_2
REMARK    2  A    between atoms: C_5  and  C_6
REMARK    3  A    between atoms: C_7  and  C_8
REMARK    4  A    between atoms: N_11  and  C_12
REMARK    5  A    between atoms: C_16  and  S_17
REMARK    6  A    between atoms: S_17  and  C_18
REMARK    7  A    between atoms: C_24  and  C_25
REMARK                            x       y       z     vdW  Elec       q    Type
REMARK                         _______ _______ _______ _____ _____    ______ ____
ROOT
ATOM      1  C   UNL     1       0.385  10.710  20.538  0.00  0.00    +0.000 A 
ATOM      2  N   UNL     1       1.189   9.822  19.885  0.00  0.00    +0.000 NA
ATOM      3  C   UNL     1       1.424   8.634  20.470  0.00  0.00    +0.000 A 
ATOM      4  N   UNL     1       2.195   7.695  19.781  0.00  0.00    +0.000 N 
ATOM      5  N   UNL     1       0.947   8.316  21.681  0.00  0.00    +0.000 NA
ATOM      6  C   UNL     1       0.144   9.192  22.295  0.00  0.00    +0.000 A 
ATOM      7  C   UNL     1      -0.192  10.411  21.763  0.00  0.00    +0.000 A 
ATOM      8  H   UNL     1       2.591   8.093  18.942  0.00  0.00    +0.000 HD
ENDROOT
BRANCH   1  15
ATOM      9  C   UNL     1      -0.405  16.506  18.475  0.00  0.00    +0.000 C 
ATOM     10  N   UNL     1       0.657  15.616  18.887  0.00  0.00    +0.000 N 
ATOM     11  C   UNL     1       0.357  14.305  19.021  0.00  0.00    +0.000 A 
ATOM     12  N   UNL     1      -0.633  13.689  18.426  0.00  0.00    +0.000 NA
ATOM     13  C   UNL     1      -0.718  12.365  18.841  0.00  0.00    +0.000 A 
ATOM     14  C   UNL     1      -1.793  11.544  18.226  0.00  0.00    +0.000 C 
ATOM     15  C   UNL     1       0.202  11.987  19.815  0.00  0.00    +0.000 A 
ATOM     16  S   UNL     1       1.290  13.311  20.051  0.00  0.00    +0.000 S 
ATOM     17  H   UNL     1       1.274  15.998  19.597  0.00  0.00    +0.000 HD
ENDBRANCH   1  15
BRANCH   4  18
ATOM     18  C   UNL     1       2.162   6.289  19.859  0.00  0.00    +0.000 A 
ATOM     19  C   UNL     1       1.105   5.652  20.526  0.00  0.00    +0.000 A 
ATOM     20  C   UNL     1       1.021   4.253  20.589  0.00  0.00    +0.000 A 
ATOM     21  C   UNL     1       1.985   3.460  19.969  0.00  0.00    +0.000 A 
ATOM     22  C   UNL     1       3.021   4.080  19.279  0.00  0.00    +0.000 A 
ATOM     23  C   UNL     1       3.111   5.472  19.227  0.00  0.00    +0.000 A 
BRANCH  22  24
ATOM     24  S   UNL     1       4.287   3.110  18.497  0.00  0.00    +0.000 S 
ATOM     25  C   UNL     1       3.614   1.469  18.509  0.00  0.00    +0.000 C 
ATOM     26  O   UNL     1       4.393   3.544  17.117  0.00  0.00    +0.000 OA
ATOM     27  O   UNL     1       5.447   3.127  19.368  0.00  0.00    +0.000 OA
ENDBRANCH  22  24
ENDBRANCH   4  18
BRANCH   7  28
ATOM     28  C   UNL     1      -1.092  11.229  22.495  0.00  0.00    +0.000 C 
ATOM     29  N   UNL     1      -1.807  11.883  23.138  0.00  0.00    +0.000 NA
ENDBRANCH   7  28
TORSDOF 4
ENDMDL
MODEL 9
REMARK VINA RESULT:      -7.3      3.032      4.232
REMARK  Name = 
REMARK  7 active torsions:
REMARK  status: ('A' for Active; 'I' for Inactive)
REMARK    1  A    between atoms: C_1  and  N_2
REMARK    2  A    between atoms: C_5  and  C_6
REMARK    3  A    between atoms: C_7  and  C_8
REMARK    4  A    between atoms: N_11  and  C_12
REMARK    5  A    between atoms: C_16  and  S_17
REMARK    6  A    between atoms: S_17  and  C_18
REMARK    7  A    between atoms: C_24  and  C_25
REMARK                            x       y       z     vdW  Elec       q    Type
REMARK                         _______ _______ _______ _____ _____    ______ ____
ROOT
ATOM      1  C   UNL     1       1.163   9.768  19.616  0.00  0.00    +0.000 A 
ATOM      2  N   UNL     1       1.274   8.412  19.713  0.00  0.00    +0.000 NA
ATOM      3  C   UNL     1       1.965   7.764  18.758  0.00  0.00    +0.000 A 
ATOM      4  N   UNL     1       2.135   6.384  18.881  0.00  0.00    +0.000 N 
ATOM      5  N   UNL     1       2.495   8.390  17.698  0.00  0.00    +0.000 NA
ATOM      6  C   UNL     1       2.394   9.722  17.633  0.00  0.00    +0.000 A 
ATOM      7  C   UNL     1       1.749  10.478  18.578  0.00  0.00    +0.000 A 
ATOM      8  H   UNL     1       1.594   6.017  19.649  0.00  0.00    +0.000 HD
ENDROOT
BRANCH   1  15
ATOM      9  C   UNL     1      -1.889  13.255  23.740  0.00  0.00    +0.000 C 
ATOM     10  N   UNL     1      -2.089  12.650  22.442  0.00  0.00    +0.000 N 
ATOM     11  C   UNL     1      -1.187  11.729  22.036  0.00  0.00    +0.000 A 
ATOM     12  N   UNL     1      -0.421  11.019  22.825  0.00  0.00    +0.000 NA
ATOM     13  C   UNL     1       0.451  10.225  22.091  0.00  0.00    +0.000 A 
ATOM     14  C   UNL     1       1.369   9.351  22.868  0.00  0.00    +0.000 C 
ATOM     15  C   UNL     1       0.375  10.379  20.709  0.00  0.00    +0.000 A 
ATOM     16  S   UNL     1      -0.960  11.425  20.370  0.00  0.00    +0.000 S 
ATOM     17  H   UNL     1      -2.411  13.292  21.724  0.00  0.00    +0.000 HD
ENDBRANCH   1  15
BRANCH   4  18
ATOM     18  C   UNL     1       3.180   5.571  18.399  0.00  0.00    +0.000 A 
ATOM     19  C   UNL     1       2.890   4.503  17.537  0.00  0.00    +0.000 A 
ATOM     20  C   UNL     1       3.910   3.697  17.007  0.00  0.00    +0.000 A 
ATOM     21  C   UNL     1       5.245   3.955  17.316  0.00  0.00    +0.000 A 
ATOM     22  C   UNL     1       5.546   5.030  18.144  0.00  0.00    +0.000 A 
ATOM     23  C   UNL     1       4.530   5.824  18.681  0.00  0.00    +0.000 A 
BRANCH  22  24
ATOM     24  S   UNL     1       7.230   5.381  18.585  0.00  0.00    +0.000 S 
ATOM     25  C   UNL     1       7.517   6.979  17.874  0.00  0.00    +0.000 C 
ATOM     26  O   UNL     1       7.297   5.510  20.028  0.00  0.00    +0.000 OA
ATOM     27  O   UNL     1       8.069   4.422  17.890  0.00  0.00    +0.000 OA
ENDBRANCH  22  24
ENDBRANCH   4  18
BRANCH   7  28
ATOM     28  C   UNL     1       1.753  11.889  18.417  0.00  0.00    +0.000 C 
ATOM     29  N   UNL     1       1.731  13.047  18.330  0.00  0.00    +0.000 NA
ENDBRANCH   7  28
TORSDOF 4
ENDMDL
