MODEL 1
REMARK VINA RESULT:      -8.2      0.000      0.000
REMARK  Name = 
REMARK  4 active torsions:
REMARK  status: ('A' for Active; 'I' for Inactive)
REMARK    1  A    between atoms: C_1  and  N_2
REMARK    2  A    between atoms: C_4  and  C_5
REMARK    3  A    between atoms: C_18  and  N_19
REMARK    4  A    between atoms: C_24  and  C_25
REMARK                            x       y       z     vdW  Elec       q    Type
REMARK                         _______ _______ _______ _____ _____    ______ ____
ROOT
ATOM      1  C   UNL     1      -5.114  16.637  24.614  0.00  0.00    +0.000 C 
ATOM      2  N   UNL     1      -4.951  15.421  23.851  0.00  0.00    +0.000 N 
ATOM      3  C   UNL     1      -5.948  14.782  23.166  0.00  0.00    +0.000 A 
ATOM      4  C   UNL     1      -5.392  13.683  22.551  0.00  0.00    +0.000 A 
ATOM      5  C   UNL     1      -4.016  13.619  22.909  0.00  0.00    +0.000 A 
ATOM      6  C   UNL     1      -2.952  12.735  22.615  0.00  0.00    +0.000 A 
ATOM      7  C   UNL     1      -1.661  12.985  23.109  0.00  0.00    +0.000 A 
ATOM      8  C   UNL     1      -1.460  14.124  23.899  0.00  0.00    +0.000 A 
ATOM      9  C   UNL     1      -2.488  15.016  24.210  0.00  0.00    +0.000 A 
ATOM     10  C   UNL     1      -3.761  14.739  23.706  0.00  0.00    +0.000 A 
ENDROOT
BRANCH   4  11
ATOM     11  C   UNL     1      -6.125  12.796  21.715  0.00  0.00    +0.000 C 
ATOM     12  C   UNL     1      -6.610  13.088  20.498  0.00  0.00    +0.000 C 
ATOM     13  C   UNL     1      -7.475  12.101  19.767  0.00  0.00    +0.000 C 
ATOM     14  O   UNL     1      -7.772  10.974  20.112  0.00  0.00    +0.000 OA
ATOM     15  N   UNL     1      -7.878  12.757  18.617  0.00  0.00    +0.000 N 
ATOM     16  C   UNL     1      -7.326  14.035  18.545  0.00  0.00    +0.000 A 
ATOM     17  C   UNL     1      -7.506  14.952  17.528  0.00  0.00    +0.000 A 
ATOM     18  C   UNL     1      -6.835  16.171  17.641  0.00  0.00    +0.000 A 
ATOM     19  C   UNL     1      -6.010  16.437  18.748  0.00  0.00    +0.000 A 
ATOM     20  C   UNL     1      -5.849  15.494  19.771  0.00  0.00    +0.000 A 
ATOM     21  C   UNL     1      -6.525  14.291  19.664  0.00  0.00    +0.000 A 
ATOM     22  H   UNL     1      -8.476  12.334  17.925  0.00  0.00    +0.000 HD
ENDBRANCH   4  11
BRANCH   7  23
ATOM     23  N   UNL     1      -0.604  12.135  22.748  0.00  0.00    +0.000 N 
ATOM     24  C   UNL     1      -0.338  11.527  21.523  0.00  0.00    +0.000 A 
ATOM     25  N   UNL     1       0.799  10.828  21.410  0.00  0.00    +0.000 NA
ATOM     26  C   UNL     1       1.005  10.201  20.234  0.00  0.00    +0.000 A 
ATOM     27  C   UNL     1       0.112  10.214  19.189  0.00  0.00    +0.000 A 
ATOM     28  C   UNL     1      -1.042  10.937  19.391  0.00  0.00    +0.000 A 
ATOM     29  N   UNL     1      -1.247  11.596  20.544  0.00  0.00    +0.000 NA
ATOM     30  H   UNL     1      -0.033  11.740  23.477  0.00  0.00    +0.000 HD
BRANCH  28  31
ATOM     31  C   UNL     1      -2.159  11.029  18.427  0.00  0.00    +0.000 A 
ATOM     32  C   UNL     1      -3.342  11.716  18.775  0.00  0.00    +0.000 A 
ATOM     33  C   UNL     1      -4.424  11.813  17.896  0.00  0.00    +0.000 A 
ATOM     34  C   UNL     1      -4.346  11.226  16.639  0.00  0.00    +0.000 A 
ATOM     35  C   UNL     1      -3.185  10.553  16.261  0.00  0.00    +0.000 A 
ATOM     36  C   UNL     1      -2.103  10.458  17.145  0.00  0.00    +0.000 A 
ENDBRANCH  28  31
ENDBRANCH   7  23
TORSDOF 3
ENDMDL
MODEL 2
REMARK VINA RESULT:      -8.0      2.746      7.208
REMARK  Name = 
REMARK  4 active torsions:
REMARK  status: ('A' for Active; 'I' for Inactive)
REMARK    1  A    between atoms: C_1  and  N_2
REMARK    2  A    between atoms: C_4  and  C_5
REMARK    3  A    between atoms: C_18  and  N_19
REMARK    4  A    between atoms: C_24  and  C_25
REMARK                            x       y       z     vdW  Elec       q    Type
REMARK                         _______ _______ _______ _____ _____    ______ ____
ROOT
ATOM      1  C   UNL     1       1.449   9.244  18.495  0.00  0.00    +0.000 C 
ATOM      2  N   UNL     1       0.410  10.083  19.047  0.00  0.00    +0.000 N 
ATOM      3  C   UNL     1       0.483  10.742  20.244  0.00  0.00    +0.000 A 
ATOM      4  C   UNL     1      -0.687  11.450  20.400  0.00  0.00    +0.000 A 
ATOM      5  C   UNL     1      -1.526  11.179  19.284  0.00  0.00    +0.000 A 
ATOM      6  C   UNL     1      -2.823  11.586  18.893  0.00  0.00    +0.000 A 
ATOM      7  C   UNL     1      -3.367  11.156  17.671  0.00  0.00    +0.000 A 
ATOM      8  C   UNL     1      -2.595  10.316  16.859  0.00  0.00    +0.000 A 
ATOM      9  C   UNL     1      -1.312   9.894  17.214  0.00  0.00    +0.000 A 
ATOM     10  C   UNL     1      -0.801  10.337  18.437  0.00  0.00    +0.000 A 
ENDROOT
BRANCH   4  11
ATOM     11  C   UNL     1      -0.952  12.291  21.517  0.00  0.00    +0.000 C 
ATOM     12  C   UNL     1      -0.880  13.631  21.524  0.00  0.00    +0.000 C 
ATOM     13  C   UNL     1      -1.065  14.396  22.804  0.00  0.00    +0.000 C 
ATOM     14  O   UNL     1      -1.351  13.954  23.900  0.00  0.00    +0.000 OA
ATOM     15  N   UNL     1      -0.824  15.718  22.471  0.00  0.00    +0.000 N 
ATOM     16  C   UNL     1      -0.540  15.854  21.113  0.00  0.00    +0.000 A 
ATOM     17  C   UNL     1      -0.268  17.030  20.444  0.00  0.00    +0.000 A 
ATOM     18  C   UNL     1      -0.037  16.945  19.070  0.00  0.00    +0.000 A 
ATOM     19  C   UNL     1      -0.089  15.706  18.408  0.00  0.00    +0.000 A 
ATOM     20  C   UNL     1      -0.359  14.524  19.110  0.00  0.00    +0.000 A 
ATOM     21  C   UNL     1      -0.575  14.608  20.474  0.00  0.00    +0.000 A 
ATOM     22  H   UNL     1      -0.875  16.470  23.140  0.00  0.00    +0.000 HD
ENDBRANCH   4  11
BRANCH   7  23
ATOM     23  N   UNL     1      -4.626  11.628  17.269  0.00  0.00    +0.000 N 
ATOM     24  C   UNL     1      -5.616  12.256  18.021  0.00  0.00    +0.000 A 
ATOM     25  N   UNL     1      -6.702  12.697  17.373  0.00  0.00    +0.000 NA
ATOM     26  C   UNL     1      -7.671  13.248  18.131  0.00  0.00    +0.000 A 
ATOM     27  C   UNL     1      -7.616  13.343  19.502  0.00  0.00    +0.000 A 
ATOM     28  C   UNL     1      -6.477  12.847  20.094  0.00  0.00    +0.000 A 
ATOM     29  N   UNL     1      -5.486  12.327  19.350  0.00  0.00    +0.000 NA
ATOM     30  H   UNL     1      -4.981  11.343  16.371  0.00  0.00    +0.000 HD
BRANCH  28  31
ATOM     31  C   UNL     1      -6.241  12.790  21.553  0.00  0.00    +0.000 A 
ATOM     32  C   UNL     1      -4.931  12.901  22.065  0.00  0.00    +0.000 A 
ATOM     33  C   UNL     1      -4.667  12.839  23.435  0.00  0.00    +0.000 A 
ATOM     34  C   UNL     1      -5.714  12.667  24.332  0.00  0.00    +0.000 A 
ATOM     35  C   UNL     1      -7.021  12.569  23.857  0.00  0.00    +0.000 A 
ATOM     36  C   UNL     1      -7.281  12.633  22.483  0.00  0.00    +0.000 A 
ENDBRANCH  28  31
ENDBRANCH   7  23
TORSDOF 3
ENDMDL
MODEL 3
REMARK VINA RESULT:      -7.9      4.464      7.247
REMARK  Name = 
REMARK  4 active torsions:
REMARK  status: ('A' for Active; 'I' for Inactive)
REMARK    1  A    between atoms: C_1  and  N_2
REMARK    2  A    between atoms: C_4  and  C_5
REMARK    3  A    between atoms: C_18  and  N_19
REMARK    4  A    between atoms: C_24  and  C_25
REMARK                            x       y       z     vdW  Elec       q    Type
REMARK                         _______ _______ _______ _____ _____    ______ ____
ROOT
ATOM      1  C   UNL     1       1.916  13.017  17.808  0.00  0.00    +0.000 C 
ATOM      2  N   UNL     1       1.251  12.350  18.903  0.00  0.00    +0.000 N 
ATOM      3  C   UNL     1       0.413  12.954  19.801  0.00  0.00    +0.000 A 
ATOM      4  C   UNL     1      -0.036  11.985  20.668  0.00  0.00    +0.000 A 
ATOM      5  C   UNL     1       0.584  10.752  20.320  0.00  0.00    +0.000 A 
ATOM      6  C   UNL     1       0.537   9.435  20.836  0.00  0.00    +0.000 A 
ATOM      7  C   UNL     1       1.261   8.402  20.216  0.00  0.00    +0.000 A 
ATOM      8  C   UNL     1       2.027   8.712  19.086  0.00  0.00    +0.000 A 
ATOM      9  C   UNL     1       2.096  10.000  18.551  0.00  0.00    +0.000 A 
ATOM     10  C   UNL     1       1.367  11.006  19.191  0.00  0.00    +0.000 A 
ENDROOT
BRANCH   4  11
ATOM     11  C   UNL     1      -0.961  12.239  21.719  0.00  0.00    +0.000 C 
ATOM     12  C   UNL     1      -2.291  12.354  21.582  0.00  0.00    +0.000 C 
ATOM     13  C   UNL     1      -3.146  12.746  22.754  0.00  0.00    +0.000 C 
ATOM     14  O   UNL     1      -2.794  12.928  23.903  0.00  0.00    +0.000 OA
ATOM     15  N   UNL     1      -4.425  12.872  22.240  0.00  0.00    +0.000 N 
ATOM     16  C   UNL     1      -4.455  12.568  20.880  0.00  0.00    +0.000 A 
ATOM     17  C   UNL     1      -5.567  12.577  20.060  0.00  0.00    +0.000 A 
ATOM     18  C   UNL     1      -5.380  12.211  18.727  0.00  0.00    +0.000 A 
ATOM     19  C   UNL     1      -4.108  11.845  18.253  0.00  0.00    +0.000 A 
ATOM     20  C   UNL     1      -2.994  11.851  19.102  0.00  0.00    +0.000 A 
ATOM     21  C   UNL     1      -3.177  12.227  20.420  0.00  0.00    +0.000 A 
ATOM     22  H   UNL     1      -5.219  13.131  22.804  0.00  0.00    +0.000 HD
ENDBRANCH   4  11
BRANCH   7  23
ATOM     23  N   UNL     1       1.146   7.090  20.700  0.00  0.00    +0.000 N 
ATOM     24  C   UNL     1       1.851   5.946  20.331  0.00  0.00    +0.000 A 
ATOM     25  N   UNL     1       1.614   4.822  21.018  0.00  0.00    +0.000 NA
ATOM     26  C   UNL     1       2.264   3.716  20.604  0.00  0.00    +0.000 A 
ATOM     27  C   UNL     1       3.107   3.680  19.517  0.00  0.00    +0.000 A 
ATOM     28  C   UNL     1       3.281   4.872  18.851  0.00  0.00    +0.000 A 
ATOM     29  N   UNL     1       2.668   5.991  19.272  0.00  0.00    +0.000 NA
ATOM     30  H   UNL     1       0.346   6.854  21.264  0.00  0.00    +0.000 HD
BRANCH  28  31
ATOM     31  C   UNL     1       4.088   5.042  17.624  0.00  0.00    +0.000 A 
ATOM     32  C   UNL     1       4.566   3.912  16.927  0.00  0.00    +0.000 A 
ATOM     33  C   UNL     1       5.342   4.032  15.772  0.00  0.00    +0.000 A 
ATOM     34  C   UNL     1       5.657   5.293  15.280  0.00  0.00    +0.000 A 
ATOM     35  C   UNL     1       5.187   6.428  15.939  0.00  0.00    +0.000 A 
ATOM     36  C   UNL     1       4.408   6.303  17.096  0.00  0.00    +0.000 A 
ENDBRANCH  28  31
ENDBRANCH   7  23
TORSDOF 3
ENDMDL
MODEL 4
REMARK VINA RESULT:      -7.8      2.459      4.922
REMARK  Name = 
REMARK  4 active torsions:
REMARK  status: ('A' for Active; 'I' for Inactive)
REMARK    1  A    between atoms: C_1  and  N_2
REMARK    2  A    between atoms: C_4  and  C_5
REMARK    3  A    between atoms: C_18  and  N_19
REMARK    4  A    between atoms: C_24  and  C_25
REMARK                            x       y       z     vdW  Elec       q    Type
REMARK                         _______ _______ _______ _____ _____    ______ ____
ROOT
ATOM      1  C   UNL     1       1.386  16.299  22.374  0.00  0.00    +0.000 C 
ATOM      2  N   UNL     1       0.427  15.238  22.170  0.00  0.00    +0.000 N 
ATOM      3  C   UNL     1      -0.450  14.777  23.114  0.00  0.00    +0.000 A 
ATOM      4  C   UNL     1      -1.206  13.787  22.530  0.00  0.00    +0.000 A 
ATOM      5  C   UNL     1      -0.747  13.601  21.196  0.00  0.00    +0.000 A 
ATOM      6  C   UNL     1      -1.106  12.742  20.131  0.00  0.00    +0.000 A 
ATOM      7  C   UNL     1      -0.462  12.843  18.886  0.00  0.00    +0.000 A 
ATOM      8  C   UNL     1       0.541  13.808  18.733  0.00  0.00    +0.000 A 
ATOM      9  C   UNL     1       0.921  14.671  19.763  0.00  0.00    +0.000 A 
ATOM     10  C   UNL     1       0.264  14.545  20.989  0.00  0.00    +0.000 A 
ENDROOT
BRANCH   4  11
ATOM     11  C   UNL     1      -2.255  13.100  23.203  0.00  0.00    +0.000 C 
ATOM     12  C   UNL     1      -3.487  13.581  23.432  0.00  0.00    +0.000 C 
ATOM     13  C   UNL     1      -4.466  12.801  24.263  0.00  0.00    +0.000 C 
ATOM     14  O   UNL     1      -4.317  11.694  24.743  0.00  0.00    +0.000 OA
ATOM     15  N   UNL     1      -5.573  13.623  24.382  0.00  0.00    +0.000 N 
ATOM     16  C   UNL     1      -5.393  14.816  23.683  0.00  0.00    +0.000 A 
ATOM     17  C   UNL     1      -6.301  15.851  23.577  0.00  0.00    +0.000 A 
ATOM     18  C   UNL     1      -5.929  16.950  22.801  0.00  0.00    +0.000 A 
ATOM     19  C   UNL     1      -4.681  16.984  22.156  0.00  0.00    +0.000 A 
ATOM     20  C   UNL     1      -3.773  15.926  22.285  0.00  0.00    +0.000 A 
ATOM     21  C   UNL     1      -4.137  14.843  23.065  0.00  0.00    +0.000 A 
ATOM     22  H   UNL     1      -6.399  13.360  24.895  0.00  0.00    +0.000 HD
ENDBRANCH   4  11
BRANCH   7  23
ATOM     23  N   UNL     1      -0.881  12.030  17.822  0.00  0.00    +0.000 N 
ATOM     24  C   UNL     1      -2.168  11.633  17.467  0.00  0.00    +0.000 A 
ATOM     25  N   UNL     1      -2.310  10.923  16.340  0.00  0.00    +0.000 NA
ATOM     26  C   UNL     1      -3.557  10.501  16.049  0.00  0.00    +0.000 A 
ATOM     27  C   UNL     1      -4.652  10.726  16.849  0.00  0.00    +0.000 A 
ATOM     28  C   UNL     1      -4.420  11.444  18.000  0.00  0.00    +0.000 A 
ATOM     29  N   UNL     1      -3.189  11.903  18.287  0.00  0.00    +0.000 NA
ATOM     30  H   UNL     1      -0.188  11.495  17.324  0.00  0.00    +0.000 HD
BRANCH  28  31
ATOM     31  C   UNL     1      -5.439  11.742  19.029  0.00  0.00    +0.000 A 
ATOM     32  C   UNL     1      -5.338  12.913  19.809  0.00  0.00    +0.000 A 
ATOM     33  C   UNL     1      -6.274  13.222  20.799  0.00  0.00    +0.000 A 
ATOM     34  C   UNL     1      -7.341  12.363  21.032  0.00  0.00    +0.000 A 
ATOM     35  C   UNL     1      -7.476  11.206  20.266  0.00  0.00    +0.000 A 
ATOM     36  C   UNL     1      -6.536  10.900  19.274  0.00  0.00    +0.000 A 
ENDBRANCH  28  31
ENDBRANCH   7  23
TORSDOF 3
ENDMDL
MODEL 5
REMARK VINA RESULT:      -7.8      4.316      7.215
REMARK  Name = 
REMARK  4 active torsions:
REMARK  status: ('A' for Active; 'I' for Inactive)
REMARK    1  A    between atoms: C_1  and  N_2
REMARK    2  A    between atoms: C_4  and  C_5
REMARK    3  A    between atoms: C_18  and  N_19
REMARK    4  A    between atoms: C_24  and  C_25
REMARK                            x       y       z     vdW  Elec       q    Type
REMARK                         _______ _______ _______ _____ _____    ______ ____
ROOT
ATOM      1  C   UNL     1       1.439  13.161  20.864  0.00  0.00    +0.000 C 
ATOM      2  N   UNL     1       0.825  12.058  20.161  0.00  0.00    +0.000 N 
ATOM      3  C   UNL     1       0.073  12.171  19.024  0.00  0.00    +0.000 A 
ATOM      4  C   UNL     1      -0.310  10.903  18.651  0.00  0.00    +0.000 A 
ATOM      5  C   UNL     1       0.186   9.984  19.618  0.00  0.00    +0.000 A 
ATOM      6  C   UNL     1       0.109   8.582  19.789  0.00  0.00    +0.000 A 
ATOM      7  C   UNL     1       0.763   7.958  20.864  0.00  0.00    +0.000 A 
ATOM      8  C   UNL     1       1.485   8.759  21.758  0.00  0.00    +0.000 A 
ATOM      9  C   UNL     1       1.581  10.145  21.620  0.00  0.00    +0.000 A 
ATOM     10  C   UNL     1       0.917  10.736  20.542  0.00  0.00    +0.000 A 
ENDROOT
BRANCH   4  11
ATOM     11  C   UNL     1      -1.076  10.625  17.484  0.00  0.00    +0.000 C 
ATOM     12  C   UNL     1      -2.383  10.882  17.326  0.00  0.00    +0.000 C 
ATOM     13  C   UNL     1      -3.103  10.426  16.088  0.00  0.00    +0.000 C 
ATOM     14  O   UNL     1      -2.631   9.874  15.114  0.00  0.00    +0.000 OA
ATOM     15  N   UNL     1      -4.431  10.756  16.302  0.00  0.00    +0.000 N 
ATOM     16  C   UNL     1      -4.601  11.397  17.528  0.00  0.00    +0.000 A 
ATOM     17  C   UNL     1      -5.787  11.874  18.049  0.00  0.00    +0.000 A 
ATOM     18  C   UNL     1      -5.731  12.512  19.289  0.00  0.00    +0.000 A 
ATOM     19  C   UNL     1      -4.507  12.661  19.965  0.00  0.00    +0.000 A 
ATOM     20  C   UNL     1      -3.317  12.161  19.420  0.00  0.00    +0.000 A 
ATOM     21  C   UNL     1      -3.377  11.517  18.197  0.00  0.00    +0.000 A 
ATOM     22  H   UNL     1      -5.158  10.567  15.631  0.00  0.00    +0.000 HD
ENDBRANCH   4  11
BRANCH   7  23
ATOM     23  N   UNL     1       0.734   6.560  20.976  0.00  0.00    +0.000 N 
ATOM     24  C   UNL     1       1.710   5.625  20.638  0.00  0.00    +0.000 A 
ATOM     25  N   UNL     1       1.468   4.341  20.932  0.00  0.00    +0.000 NA
ATOM     26  C   UNL     1       2.401   3.449  20.543  0.00  0.00    +0.000 A 
ATOM     27  C   UNL     1       3.539   3.782  19.845  0.00  0.00    +0.000 A 
ATOM     28  C   UNL     1       3.703   5.118  19.562  0.00  0.00    +0.000 A 
ATOM     29  N   UNL     1       2.800   6.024  19.974  0.00  0.00    +0.000 NA
ATOM     30  H   UNL     1      -0.150   6.110  21.153  0.00  0.00    +0.000 HD
BRANCH  28  31
ATOM     31  C   UNL     1       4.816   5.682  18.769  0.00  0.00    +0.000 A 
ATOM     32  C   UNL     1       4.549   6.438  17.608  0.00  0.00    +0.000 A 
ATOM     33  C   UNL     1       5.573   6.976  16.825  0.00  0.00    +0.000 A 
ATOM     34  C   UNL     1       6.899   6.772  17.190  0.00  0.00    +0.000 A 
ATOM     35  C   UNL     1       7.195   6.042  18.340  0.00  0.00    +0.000 A 
ATOM     36  C   UNL     1       6.164   5.505  19.122  0.00  0.00    +0.000 A 
ENDBRANCH  28  31
ENDBRANCH   7  23
TORSDOF 3
ENDMDL
MODEL 6
REMARK VINA RESULT:      -7.7      2.534      6.212
REMARK  Name = 
REMARK  4 active torsions:
REMARK  status: ('A' for Active; 'I' for Inactive)
REMARK    1  A    between atoms: C_1  and  N_2
REMARK    2  A    between atoms: C_4  and  C_5
REMARK    3  A    between atoms: C_18  and  N_19
REMARK    4  A    between atoms: C_24  and  C_25
REMARK                            x       y       z     vdW  Elec       q    Type
REMARK                         _______ _______ _______ _____ _____    ______ ____
ROOT
ATOM      1  C   UNL     1       0.578  17.040  21.944  0.00  0.00    +0.000 C 
ATOM      2  N   UNL     1      -0.195  15.820  21.962  0.00  0.00    +0.000 N 
ATOM      3  C   UNL     1       0.256  14.609  22.412  0.00  0.00    +0.000 A 
ATOM      4  C   UNL     1      -0.778  13.708  22.288  0.00  0.00    +0.000 A 
ATOM      5  C   UNL     1      -1.886  14.379  21.698  0.00  0.00    +0.000 A 
ATOM      6  C   UNL     1      -3.192  13.993  21.314  0.00  0.00    +0.000 A 
ATOM      7  C   UNL     1      -4.084  14.937  20.778  0.00  0.00    +0.000 A 
ATOM      8  C   UNL     1      -3.646  16.258  20.633  0.00  0.00    +0.000 A 
ATOM      9  C   UNL     1      -2.364  16.673  21.000  0.00  0.00    +0.000 A 
ATOM     10  C   UNL     1      -1.499  15.711  21.527  0.00  0.00    +0.000 A 
ENDROOT
BRANCH   4  11
ATOM     11  C   UNL     1      -0.688  12.348  22.697  0.00  0.00    +0.000 C 
ATOM     12  C   UNL     1      -0.207  11.338  21.955  0.00  0.00    +0.000 C 
ATOM     13  C   UNL     1      -0.281   9.924  22.458  0.00  0.00    +0.000 C 
ATOM     14  O   UNL     1      -0.684   9.539  23.538  0.00  0.00    +0.000 OA
ATOM     15  N   UNL     1       0.197   9.146  21.417  0.00  0.00    +0.000 N 
ATOM     16  C   UNL     1       0.587   9.935  20.336  0.00  0.00    +0.000 A 
ATOM     17  C   UNL     1       1.121   9.488  19.144  0.00  0.00    +0.000 A 
ATOM     18  C   UNL     1       1.472  10.453  18.199  0.00  0.00    +0.000 A 
ATOM     19  C   UNL     1       1.289  11.821  18.468  0.00  0.00    +0.000 A 
ATOM     20  C   UNL     1       0.738  12.250  19.682  0.00  0.00    +0.000 A 
ATOM     21  C   UNL     1       0.378  11.291  20.612  0.00  0.00    +0.000 A 
ATOM     22  H   UNL     1       0.263   8.142  21.469  0.00  0.00    +0.000 HD
ENDBRANCH   4  11
BRANCH   7  23
ATOM     23  N   UNL     1      -5.397  14.550  20.470  0.00  0.00    +0.000 N 
ATOM     24  C   UNL     1      -5.846  13.478  19.701  0.00  0.00    +0.000 A 
ATOM     25  N   UNL     1      -7.167  13.271  19.635  0.00  0.00    +0.000 NA
ATOM     26  C   UNL     1      -7.579  12.265  18.838  0.00  0.00    +0.000 A 
ATOM     27  C   UNL     1      -6.734  11.487  18.083  0.00  0.00    +0.000 A 
ATOM     28  C   UNL     1      -5.393  11.777  18.188  0.00  0.00    +0.000 A 
ATOM     29  N   UNL     1      -4.963  12.754  19.005  0.00  0.00    +0.000 NA
ATOM     30  H   UNL     1      -6.146  15.197  20.657  0.00  0.00    +0.000 HD
BRANCH  28  31
ATOM     31  C   UNL     1      -4.322  11.110  17.417  0.00  0.00    +0.000 A 
ATOM     32  C   UNL     1      -4.385  11.067  16.008  0.00  0.00    +0.000 A 
ATOM     33  C   UNL     1      -3.400  10.435  15.245  0.00  0.00    +0.000 A 
ATOM     34  C   UNL     1      -2.320   9.831  15.877  0.00  0.00    +0.000 A 
ATOM     35  C   UNL     1      -2.223   9.870  17.267  0.00  0.00    +0.000 A 
ATOM     36  C   UNL     1      -3.212  10.505  18.028  0.00  0.00    +0.000 A 
ENDBRANCH  28  31
ENDBRANCH   7  23
TORSDOF 3
ENDMDL
MODEL 7
REMARK VINA RESULT:      -7.7      5.847     11.245
REMARK  Name = 
REMARK  4 active torsions:
REMARK  status: ('A' for Active; 'I' for Inactive)
REMARK    1  A    between atoms: C_1  and  N_2
REMARK    2  A    between atoms: C_4  and  C_5
REMARK    3  A    between atoms: C_18  and  N_19
REMARK    4  A    between atoms: C_24  and  C_25
REMARK                            x       y       z     vdW  Elec       q    Type
REMARK                         _______ _______ _______ _____ _____    ______ ____
ROOT
ATOM      1  C   UNL     1       0.911   2.169  18.891  0.00  0.00    +0.000 C 
ATOM      2  N   UNL     1       1.595   3.411  18.612  0.00  0.00    +0.000 N 
ATOM      3  C   UNL     1       2.397   3.641  17.528  0.00  0.00    +0.000 A 
ATOM      4  C   UNL     1       2.838   4.943  17.606  0.00  0.00    +0.000 A 
ATOM      5  C   UNL     1       2.326   5.516  18.804  0.00  0.00    +0.000 A 
ATOM      6  C   UNL     1       2.440   6.781  19.428  0.00  0.00    +0.000 A 
ATOM      7  C   UNL     1       1.754   7.048  20.625  0.00  0.00    +0.000 A 
ATOM      8  C   UNL     1       0.965   6.033  21.180  0.00  0.00    +0.000 A 
ATOM      9  C   UNL     1       0.831   4.774  20.591  0.00  0.00    +0.000 A 
ATOM     10  C   UNL     1       1.527   4.538  19.403  0.00  0.00    +0.000 A 
ENDROOT
BRANCH   4  11
ATOM     11  C   UNL     1       3.668   5.551  16.624  0.00  0.00    +0.000 C 
ATOM     12  C   UNL     1       4.952   5.905  16.793  0.00  0.00    +0.000 C 
ATOM     13  C   UNL     1       5.683   6.653  15.714  0.00  0.00    +0.000 C 
ATOM     14  O   UNL     1       5.274   6.953  14.609  0.00  0.00    +0.000 OA
ATOM     15  N   UNL     1       6.923   6.945  16.255  0.00  0.00    +0.000 N 
ATOM     16  C   UNL     1       7.046   6.427  17.544  0.00  0.00    +0.000 A 
ATOM     17  C   UNL     1       8.153   6.520  18.364  0.00  0.00    +0.000 A 
ATOM     18  C   UNL     1       8.075   5.903  19.614  0.00  0.00    +0.000 A 
ATOM     19  C   UNL     1       6.913   5.215  20.004  0.00  0.00    +0.000 A 
ATOM     20  C   UNL     1       5.800   5.141  19.158  0.00  0.00    +0.000 A 
ATOM     21  C   UNL     1       5.873   5.764  17.925  0.00  0.00    +0.000 A 
ATOM     22  H   UNL     1       7.636   7.449  15.752  0.00  0.00    +0.000 HD
ENDBRANCH   4  11
BRANCH   7  23
ATOM     23  N   UNL     1       1.823   8.330  21.191  0.00  0.00    +0.000 N 
ATOM     24  C   UNL     1       1.013   9.441  20.966  0.00  0.00    +0.000 A 
ATOM     25  N   UNL     1       1.234  10.532  21.710  0.00  0.00    +0.000 NA
ATOM     26  C   UNL     1       0.476  11.612  21.434  0.00  0.00    +0.000 A 
ATOM     27  C   UNL     1      -0.461  11.657  20.429  0.00  0.00    +0.000 A 
ATOM     28  C   UNL     1      -0.614  10.503  19.696  0.00  0.00    +0.000 A 
ATOM     29  N   UNL     1       0.109   9.406  19.981  0.00  0.00    +0.000 NA
ATOM     30  H   UNL     1       2.654   8.587  21.699  0.00  0.00    +0.000 HD
BRANCH  28  31
ATOM     31  C   UNL     1      -1.515  10.355  18.533  0.00  0.00    +0.000 A 
ATOM     32  C   UNL     1      -2.798  10.943  18.551  0.00  0.00    +0.000 A 
ATOM     33  C   UNL     1      -3.683  10.815  17.477  0.00  0.00    +0.000 A 
ATOM     34  C   UNL     1      -3.302  10.094  16.351  0.00  0.00    +0.000 A 
ATOM     35  C   UNL     1      -2.035   9.515  16.299  0.00  0.00    +0.000 A 
ATOM     36  C   UNL     1      -1.151   9.646  17.377  0.00  0.00    +0.000 A 
ENDBRANCH  28  31
ENDBRANCH   7  23
TORSDOF 3
ENDMDL
MODEL 8
REMARK VINA RESULT:      -7.7      2.365      7.012
REMARK  Name = 
REMARK  4 active torsions:
REMARK  status: ('A' for Active; 'I' for Inactive)
REMARK    1  A    between atoms: C_1  and  N_2
REMARK    2  A    between atoms: C_4  and  C_5
REMARK    3  A    between atoms: C_18  and  N_19
REMARK    4  A    between atoms: C_24  and  C_25
REMARK                            x       y       z     vdW  Elec       q    Type
REMARK                         _______ _______ _______ _____ _____    ______ ____
ROOT
ATOM      1  C   UNL     1       1.112   9.222  20.847  0.00  0.00    +0.000 C 
ATOM      2  N   UNL     1       0.366  10.440  20.627  0.00  0.00    +0.000 N 
ATOM      3  C   UNL     1       0.594  11.629  21.265  0.00  0.00    +0.000 A 
ATOM      4  C   UNL     1      -0.301  12.547  20.766  0.00  0.00    +0.000 A 
ATOM      5  C   UNL     1      -1.138  11.887  19.823  0.00  0.00    +0.000 A 
ATOM      6  C   UNL     1      -2.227  12.285  19.011  0.00  0.00    +0.000 A 
ATOM      7  C   UNL     1      -2.828  11.370  18.130  0.00  0.00    +0.000 A 
ATOM      8  C   UNL     1      -2.326  10.064  18.081  0.00  0.00    +0.000 A 
ATOM      9  C   UNL     1      -1.254   9.639  18.869  0.00  0.00    +0.000 A 
ATOM     10  C   UNL     1      -0.679  10.570  19.737  0.00  0.00    +0.000 A 
ENDROOT
BRANCH   4  11
ATOM     11  C   UNL     1      -0.335  13.911  21.170  0.00  0.00    +0.000 C 
ATOM     12  C   UNL     1      -1.175  14.439  22.074  0.00  0.00    +0.000 C 
ATOM     13  C   UNL     1      -1.190  15.921  22.323  0.00  0.00    +0.000 C 
ATOM     14  O   UNL     1      -0.462  16.764  21.836  0.00  0.00    +0.000 OA
ATOM     15  N   UNL     1      -2.227  16.125  23.217  0.00  0.00    +0.000 N 
ATOM     16  C   UNL     1      -2.833  14.921  23.572  0.00  0.00    +0.000 A 
ATOM     17  C   UNL     1      -3.884  14.758  24.451  0.00  0.00    +0.000 A 
ATOM     18  C   UNL     1      -4.324  13.455  24.688  0.00  0.00    +0.000 A 
ATOM     19  C   UNL     1      -3.707  12.363  24.053  0.00  0.00    +0.000 A 
ATOM     20  C   UNL     1      -2.646  12.554  23.157  0.00  0.00    +0.000 A 
ATOM     21  C   UNL     1      -2.221  13.847  22.914  0.00  0.00    +0.000 A 
ATOM     22  H   UNL     1      -2.477  17.036  23.568  0.00  0.00    +0.000 HD
ENDBRANCH   4  11
BRANCH   7  23
ATOM     23  N   UNL     1      -3.860  11.802  17.282  0.00  0.00    +0.000 N 
ATOM     24  C   UNL     1      -5.101  12.347  17.606  0.00  0.00    +0.000 A 
ATOM     25  N   UNL     1      -5.876  12.769  16.599  0.00  0.00    +0.000 NA
ATOM     26  C   UNL     1      -7.095  13.237  16.935  0.00  0.00    +0.000 A 
ATOM     27  C   UNL     1      -7.580  13.268  18.221  0.00  0.00    +0.000 A 
ATOM     28  C   UNL     1      -6.731  12.797  19.196  0.00  0.00    +0.000 A 
ATOM     29  N   UNL     1      -5.500  12.359  18.883  0.00  0.00    +0.000 NA
ATOM     30  H   UNL     1      -3.822  11.546  16.309  0.00  0.00    +0.000 HD
BRANCH  28  31
ATOM     31  C   UNL     1      -7.076  12.680  20.630  0.00  0.00    +0.000 A 
ATOM     32  C   UNL     1      -7.568  11.461  21.144  0.00  0.00    +0.000 A 
ATOM     33  C   UNL     1      -7.917  11.315  22.488  0.00  0.00    +0.000 A 
ATOM     34  C   UNL     1      -7.776  12.390  23.358  0.00  0.00    +0.000 A 
ATOM     35  C   UNL     1      -7.277  13.602  22.883  0.00  0.00    +0.000 A 
ATOM     36  C   UNL     1      -6.929  13.744  21.534  0.00  0.00    +0.000 A 
ENDBRANCH  28  31
ENDBRANCH   7  23
TORSDOF 3
ENDMDL
MODEL 9
REMARK VINA RESULT:      -7.7      2.459      4.147
REMARK  Name = 
REMARK  4 active torsions:
REMARK  status: ('A' for Active; 'I' for Inactive)
REMARK    1  A    between atoms: C_1  and  N_2
REMARK    2  A    between atoms: C_4  and  C_5
REMARK    3  A    between atoms: C_18  and  N_19
REMARK    4  A    between atoms: C_24  and  C_25
REMARK                            x       y       z     vdW  Elec       q    Type
REMARK                         _______ _______ _______ _____ _____    ______ ____
ROOT
ATOM      1  C   UNL     1      -0.681  17.894  21.835  0.00  0.00    +0.000 C 
ATOM      2  N   UNL     1      -1.117  16.523  21.967  0.00  0.00    +0.000 N 
ATOM      3  C   UNL     1      -1.860  16.030  23.005  0.00  0.00    +0.000 A 
ATOM      4  C   UNL     1      -2.090  14.696  22.755  0.00  0.00    +0.000 A 
ATOM      5  C   UNL     1      -1.426  14.347  21.546  0.00  0.00    +0.000 A 
ATOM      6  C   UNL     1      -1.282  13.154  20.800  0.00  0.00    +0.000 A 
ATOM      7  C   UNL     1      -0.572  13.154  19.587  0.00  0.00    +0.000 A 
ATOM      8  C   UNL     1      -0.012  14.359  19.145  0.00  0.00    +0.000 A 
ATOM      9  C   UNL     1      -0.134  15.554  19.856  0.00  0.00    +0.000 A 
ATOM     10  C   UNL     1      -0.843  15.521  21.060  0.00  0.00    +0.000 A 
ENDROOT
BRANCH   4  11
ATOM     11  C   UNL     1      -2.867  13.861  23.606  0.00  0.00    +0.000 C 
ATOM     12  C   UNL     1      -4.189  13.652  23.504  0.00  0.00    +0.000 C 
ATOM     13  C   UNL     1      -4.913  12.842  24.542  0.00  0.00    +0.000 C 
ATOM     14  O   UNL     1      -4.435  12.256  25.494  0.00  0.00    +0.000 OA
ATOM     15  N   UNL     1      -6.250  12.919  24.191  0.00  0.00    +0.000 N 
ATOM     16  C   UNL     1      -6.424  13.666  23.027  0.00  0.00    +0.000 A 
ATOM     17  C   UNL     1      -7.621  13.929  22.391  0.00  0.00    +0.000 A 
ATOM     18  C   UNL     1      -7.568  14.678  21.214  0.00  0.00    +0.000 A 
ATOM     19  C   UNL     1      -6.339  15.135  20.708  0.00  0.00    +0.000 A 
ATOM     20  C   UNL     1      -5.138  14.862  21.376  0.00  0.00    +0.000 A 
ATOM     21  C   UNL     1      -5.193  14.131  22.548  0.00  0.00    +0.000 A 
ATOM     22  H   UNL     1      -6.981  12.466  24.715  0.00  0.00    +0.000 HD
ENDBRANCH   4  11
BRANCH   7  23
ATOM     23  N   UNL     1      -0.501  11.977  18.827  0.00  0.00    +0.000 N 
ATOM     24  C   UNL     1      -1.499  11.332  18.099  0.00  0.00    +0.000 A 
ATOM     25  N   UNL     1      -1.147  10.262  17.376  0.00  0.00    +0.000 NA
ATOM     26  C   UNL     1      -2.141   9.621  16.728  0.00  0.00    +0.000 A 
ATOM     27  C   UNL     1      -3.465   9.982  16.802  0.00  0.00    +0.000 A 
ATOM     28  C   UNL     1      -3.748  11.080  17.583  0.00  0.00    +0.000 A 
ATOM     29  N   UNL     1      -2.765  11.751  18.207  0.00  0.00    +0.000 NA
ATOM     30  H   UNL     1       0.309  11.387  18.930  0.00  0.00    +0.000 HD
BRANCH  28  31
ATOM     31  C   UNL     1      -5.107  11.597  17.851  0.00  0.00    +0.000 A 
ATOM     32  C   UNL     1      -5.673  12.576  17.007  0.00  0.00    +0.000 A 
ATOM     33  C   UNL     1      -6.948  13.099  17.235  0.00  0.00    +0.000 A 
ATOM     34  C   UNL     1      -7.694  12.648  18.318  0.00  0.00    +0.000 A 
ATOM     35  C   UNL     1      -7.168  11.671  19.161  0.00  0.00    +0.000 A 
ATOM     36  C   UNL     1      -5.889  11.149  18.928  0.00  0.00    +0.000 A 
ENDBRANCH  28  31
ENDBRANCH   7  23
TORSDOF 3
ENDMDL
