MODEL 1
REMARK VINA RESULT:      -6.7      0.000      0.000
REMARK  Name = 
REMARK  7 active torsions:
REMARK  status: ('A' for Active; 'I' for Inactive)
REMARK    1  A    between atoms: C_2  and  C_3
REMARK    2  A    between atoms: C_3  and  N_4
REMARK    3  A    between atoms: C_10  and  C_11
REMARK    4  A    between atoms: C_13  and  C_14
REMARK    5  A    between atoms: C_15  and  C_16
REMARK    6  A    between atoms: C_18  and  O_19
REMARK    7  A    between atoms: C_21  and  C_22
REMARK                            x       y       z     vdW  Elec       q    Type
REMARK                         _______ _______ _______ _____ _____    ______ ____
ROOT
ATOM      1  N   UNL     1      -4.296  14.737  22.334  0.00  0.00    +0.000 N 
ATOM      2  C   UNL     1      -5.443  14.094  22.805  0.00  0.00    +0.000 C 
ATOM      3  O   UNL     1      -6.051  14.285  23.842  0.00  0.00    +0.000 OA
ATOM      4  C   UNL     1      -5.716  13.132  21.805  0.00  0.00    +0.000 A 
ATOM      5  N   UNL     1      -6.586  12.141  21.573  0.00  0.00    +0.000 N 
ATOM      6  N   UNL     1      -6.295  11.483  20.425  0.00  0.00    +0.000 NA
ATOM      7  C   UNL     1      -5.214  12.121  19.903  0.00  0.00    +0.000 A 
ATOM      8  C   UNL     1      -4.826  13.165  20.771  0.00  0.00    +0.000 A 
ATOM      9  C   UNL     1      -3.840  14.250  20.995  0.00  0.00    +0.000 C 
ATOM     10  H   UNL     1      -7.373  11.835  22.134  0.00  0.00    +0.000 HD
ENDROOT
BRANCH   7  11
ATOM     11  C   UNL     1      -4.611  11.665  18.642  0.00  0.00    +0.000 A 
ATOM     12  C   UNL     1      -3.283  11.190  18.644  0.00  0.00    +0.000 A 
ATOM     13  C   UNL     1      -2.649  10.724  17.474  0.00  0.00    +0.000 A 
ATOM     14  C   UNL     1      -1.231  10.227  17.557  0.00  0.00    +0.000 C 
ATOM     15  C   UNL     1      -3.363  10.729  16.264  0.00  0.00    +0.000 A 
ATOM     16  C   UNL     1      -2.799  10.219  14.965  0.00  0.00    +0.000 C 
ATOM     17  C   UNL     1      -4.682  11.210  16.254  0.00  0.00    +0.000 A 
ATOM     18  C   UNL     1      -5.299  11.661  17.426  0.00  0.00    +0.000 A 
BRANCH  18  19
ATOM     19  O   UNL     1      -6.606  12.069  17.356  0.00  0.00    +0.000 OA
ATOM     20  H   UNL     1      -7.039  11.585  16.633  0.00  0.00    +0.000 HD
ENDBRANCH  18  19
ENDBRANCH   7  11
BRANCH   9  21
ATOM     21  C   UNL     1      -2.431  13.697  21.035  0.00  0.00    +0.000 A 
ATOM     22  C   UNL     1      -1.375  14.168  20.234  0.00  0.00    +0.000 A 
ATOM     23  C   UNL     1      -0.128  13.540  20.246  0.00  0.00    +0.000 A 
ATOM     24  C   UNL     1       0.082  12.411  21.037  0.00  0.00    +0.000 A 
ATOM     25  C   UNL     1      -0.954  11.926  21.827  0.00  0.00    +0.000 A 
ATOM     26 BR   UNL     1      -0.699  10.364  22.861  0.00  0.00    +0.000 Br
ATOM     27  C   UNL     1      -2.193  12.565  21.840  0.00  0.00    +0.000 A 
ENDBRANCH   9  21
BRANCH   1  28
ATOM     28  C   UNL     1      -3.577  15.725  23.106  0.00  0.00    +0.000 C 
BRANCH  28  30
ATOM     29  C   UNL     1      -2.878  15.002  25.406  0.00  0.00    +0.000 C 
ATOM     30  C   UNL     1      -2.665  15.058  24.084  0.00  0.00    +0.000 C 
ENDBRANCH  28  30
ENDBRANCH   1  28
TORSDOF 5
ENDMDL
MODEL 2
REMARK VINA RESULT:      -6.6      2.986      4.464
REMARK  Name = 
REMARK  7 active torsions:
REMARK  status: ('A' for Active; 'I' for Inactive)
REMARK    1  A    between atoms: C_2  and  C_3
REMARK    2  A    between atoms: C_3  and  N_4
REMARK    3  A    between atoms: C_10  and  C_11
REMARK    4  A    between atoms: C_13  and  C_14
REMARK    5  A    between atoms: C_15  and  C_16
REMARK    6  A    between atoms: C_18  and  O_19
REMARK    7  A    between atoms: C_21  and  C_22
REMARK                            x       y       z     vdW  Elec       q    Type
REMARK                         _______ _______ _______ _____ _____    ______ ____
ROOT
ATOM      1  N   UNL     1      -2.814  13.324  23.465  0.00  0.00    +0.000 N 
ATOM      2  C   UNL     1      -1.502  13.804  23.486  0.00  0.00    +0.000 C 
ATOM      3  O   UNL     1      -0.948  14.465  24.345  0.00  0.00    +0.000 OA
ATOM      4  C   UNL     1      -0.973  13.373  22.248  0.00  0.00    +0.000 A 
ATOM      5  N   UNL     1       0.162  13.485  21.545  0.00  0.00    +0.000 N 
ATOM      6  N   UNL     1       0.054  12.893  20.331  0.00  0.00    +0.000 NA
ATOM      7  C   UNL     1      -1.196  12.359  20.295  0.00  0.00    +0.000 A 
ATOM      8  C   UNL     1      -1.866  12.662  21.500  0.00  0.00    +0.000 A 
ATOM      9  C   UNL     1      -3.140  12.522  22.245  0.00  0.00    +0.000 C 
ATOM     10  H   UNL     1       1.028  13.949  21.796  0.00  0.00    +0.000 HD
ENDROOT
BRANCH   7  11
ATOM     11  C   UNL     1      -1.668  11.637  19.105  0.00  0.00    +0.000 A 
ATOM     12  C   UNL     1      -2.921  11.970  18.548  0.00  0.00    +0.000 A 
ATOM     13  C   UNL     1      -3.428  11.328  17.399  0.00  0.00    +0.000 A 
ATOM     14  C   UNL     1      -4.771  11.741  16.862  0.00  0.00    +0.000 C 
ATOM     15  C   UNL     1      -2.660  10.325  16.784  0.00  0.00    +0.000 A 
ATOM     16  C   UNL     1      -3.085   9.604  15.534  0.00  0.00    +0.000 C 
ATOM     17  C   UNL     1      -1.416   9.984  17.339  0.00  0.00    +0.000 A 
ATOM     18  C   UNL     1      -0.924  10.636  18.475  0.00  0.00    +0.000 A 
BRANCH  18  19
ATOM     19  O   UNL     1       0.320  10.290  18.935  0.00  0.00    +0.000 OA
ATOM     20  H   UNL     1       0.712  11.066  19.368  0.00  0.00    +0.000 HD
ENDBRANCH  18  19
ENDBRANCH   7  11
BRANCH   9  21
ATOM     21  C   UNL     1      -4.292  13.114  21.460  0.00  0.00    +0.000 A 
ATOM     22  C   UNL     1      -5.348  12.361  20.919  0.00  0.00    +0.000 A 
ATOM     23  C   UNL     1      -6.320  12.960  20.114  0.00  0.00    +0.000 A 
ATOM     24  C   UNL     1      -6.240  14.318  19.809  0.00  0.00    +0.000 A 
ATOM     25  C   UNL     1      -5.195  15.075  20.327  0.00  0.00    +0.000 A 
ATOM     26 BR   UNL     1      -5.044  16.905  19.877  0.00  0.00    +0.000 Br
ATOM     27  C   UNL     1      -4.237  14.489  21.153  0.00  0.00    +0.000 A 
ENDBRANCH   9  21
BRANCH   1  28
ATOM     28  C   UNL     1      -3.782  13.640  24.489  0.00  0.00    +0.000 C 
BRANCH  28  30
ATOM     29  C   UNL     1      -5.963  12.400  24.597  0.00  0.00    +0.000 C 
ATOM     30  C   UNL     1      -4.637  12.450  24.784  0.00  0.00    +0.000 C 
ENDBRANCH  28  30
ENDBRANCH   1  28
TORSDOF 5
ENDMDL
MODEL 3
REMARK VINA RESULT:      -6.6      1.150      1.477
REMARK  Name = 
REMARK  7 active torsions:
REMARK  status: ('A' for Active; 'I' for Inactive)
REMARK    1  A    between atoms: C_2  and  C_3
REMARK    2  A    between atoms: C_3  and  N_4
REMARK    3  A    between atoms: C_10  and  C_11
REMARK    4  A    between atoms: C_13  and  C_14
REMARK    5  A    between atoms: C_15  and  C_16
REMARK    6  A    between atoms: C_18  and  O_19
REMARK    7  A    between atoms: C_21  and  C_22
REMARK                            x       y       z     vdW  Elec       q    Type
REMARK                         _______ _______ _______ _____ _____    ______ ____
ROOT
ATOM      1  N   UNL     1      -4.244  14.590  22.397  0.00  0.00    +0.000 N 
ATOM      2  C   UNL     1      -5.405  13.959  22.849  0.00  0.00    +0.000 C 
ATOM      3  O   UNL     1      -6.013  14.138  23.889  0.00  0.00    +0.000 OA
ATOM      4  C   UNL     1      -5.694  13.028  21.826  0.00  0.00    +0.000 A 
ATOM      5  N   UNL     1      -6.584  12.060  21.568  0.00  0.00    +0.000 N 
ATOM      6  N   UNL     1      -6.302  11.425  20.405  0.00  0.00    +0.000 NA
ATOM      7  C   UNL     1      -5.206  12.052  19.902  0.00  0.00    +0.000 A 
ATOM      8  C   UNL     1      -4.800  13.067  20.795  0.00  0.00    +0.000 A 
ATOM      9  C   UNL     1      -3.793  14.126  21.049  0.00  0.00    +0.000 C 
ATOM     10  H   UNL     1      -7.379  11.758  22.119  0.00  0.00    +0.000 HD
ENDROOT
BRANCH   7  11
ATOM     11  C   UNL     1      -4.609  11.614  18.632  0.00  0.00    +0.000 A 
ATOM     12  C   UNL     1      -3.291  11.109  18.627  0.00  0.00    +0.000 A 
ATOM     13  C   UNL     1      -2.663  10.658  17.448  0.00  0.00    +0.000 A 
ATOM     14  C   UNL     1      -1.257  10.128  17.524  0.00  0.00    +0.000 C 
ATOM     15  C   UNL     1      -3.372  10.710  16.236  0.00  0.00    +0.000 A 
ATOM     16  C   UNL     1      -2.814  10.219  14.927  0.00  0.00    +0.000 C 
ATOM     17  C   UNL     1      -4.680  11.220  16.233  0.00  0.00    +0.000 A 
ATOM     18  C   UNL     1      -5.292  11.656  17.414  0.00  0.00    +0.000 A 
BRANCH  18  19
ATOM     19  O   UNL     1      -6.588  12.094  17.349  0.00  0.00    +0.000 OA
ATOM     20  H   UNL     1      -6.986  12.003  18.231  0.00  0.00    +0.000 HD
ENDBRANCH  18  19
ENDBRANCH   7  11
BRANCH   9  21
ATOM     21  C   UNL     1      -2.396  13.544  21.080  0.00  0.00    +0.000 A 
ATOM     22  C   UNL     1      -2.035  12.395  21.807  0.00  0.00    +0.000 A 
ATOM     23  C   UNL     1      -0.704  11.978  21.876  0.00  0.00    +0.000 A 
ATOM     24  C   UNL     1       0.297  12.714  21.245  0.00  0.00    +0.000 A 
ATOM     25  C   UNL     1      -0.041  13.858  20.530  0.00  0.00    +0.000 A 
ATOM     26 BR   UNL     1       1.313  14.895  19.716  0.00  0.00    +0.000 Br
ATOM     27  C   UNL     1      -1.371  14.265  20.435  0.00  0.00    +0.000 A 
ENDBRANCH   9  21
BRANCH   1  28
ATOM     28  C   UNL     1      -3.508  15.544  23.195  0.00  0.00    +0.000 C 
BRANCH  28  30
ATOM     29  C   UNL     1      -1.467  14.900  24.508  0.00  0.00    +0.000 C 
ATOM     30  C   UNL     1      -2.791  14.849  24.307  0.00  0.00    +0.000 C 
ENDBRANCH  28  30
ENDBRANCH   1  28
TORSDOF 5
ENDMDL
MODEL 4
REMARK VINA RESULT:      -6.5      1.095      1.384
REMARK  Name = 
REMARK  7 active torsions:
REMARK  status: ('A' for Active; 'I' for Inactive)
REMARK    1  A    between atoms: C_2  and  C_3
REMARK    2  A    between atoms: C_3  and  N_4
REMARK    3  A    between atoms: C_10  and  C_11
REMARK    4  A    between atoms: C_13  and  C_14
REMARK    5  A    between atoms: C_15  and  C_16
REMARK    6  A    between atoms: C_18  and  O_19
REMARK    7  A    between atoms: C_21  and  C_22
REMARK                            x       y       z     vdW  Elec       q    Type
REMARK                         _______ _______ _______ _____ _____    ______ ____
ROOT
ATOM      1  N   UNL     1      -2.789  14.627  22.341  0.00  0.00    +0.000 N 
ATOM      2  C   UNL     1      -4.042  14.320  22.877  0.00  0.00    +0.000 C 
ATOM      3  O   UNL     1      -4.515  14.657  23.946  0.00  0.00    +0.000 OA
ATOM      4  C   UNL     1      -4.625  13.486  21.896  0.00  0.00    +0.000 A 
ATOM      5  N   UNL     1      -5.747  12.777  21.715  0.00  0.00    +0.000 N 
ATOM      6  N   UNL     1      -5.713  12.082  20.553  0.00  0.00    +0.000 NA
ATOM      7  C   UNL     1      -4.527  12.402  19.970  0.00  0.00    +0.000 A 
ATOM      8  C   UNL     1      -3.819  13.285  20.813  0.00  0.00    +0.000 A 
ATOM      9  C   UNL     1      -2.560  14.052  20.980  0.00  0.00    +0.000 C 
ATOM     10  H   UNL     1      -6.556  12.694  22.319  0.00  0.00    +0.000 HD
ENDROOT
BRANCH   7  11
ATOM     11  C   UNL     1      -4.145  11.815  18.677  0.00  0.00    +0.000 A 
ATOM     12  C   UNL     1      -2.916  11.131  18.567  0.00  0.00    +0.000 A 
ATOM     13  C   UNL     1      -2.494  10.531  17.363  0.00  0.00    +0.000 A 
ATOM     14  C   UNL     1      -1.172   9.815  17.325  0.00  0.00    +0.000 C 
ATOM     15  C   UNL     1      -3.325  10.615  16.233  0.00  0.00    +0.000 A 
ATOM     16  C   UNL     1      -2.993   9.979  14.910  0.00  0.00    +0.000 C 
ATOM     17  C   UNL     1      -4.545  11.302  16.334  0.00  0.00    +0.000 A 
ATOM     18  C   UNL     1      -4.953  11.885  17.540  0.00  0.00    +0.000 A 
BRANCH  18  19
ATOM     19  O   UNL     1      -6.178  12.496  17.583  0.00  0.00    +0.000 OA
ATOM     20  H   UNL     1      -6.846  11.865  17.269  0.00  0.00    +0.000 HD
ENDBRANCH  18  19
ENDBRANCH   7  11
BRANCH   9  21
ATOM     21  C   UNL     1      -1.359  13.130  20.941  0.00  0.00    +0.000 A 
ATOM     22  C   UNL     1      -0.336  13.206  19.978  0.00  0.00    +0.000 A 
ATOM     23  C   UNL     1       0.686  12.255  19.940  0.00  0.00    +0.000 A 
ATOM     24  C   UNL     1       0.692  11.192  20.842  0.00  0.00    +0.000 A 
ATOM     25  C   UNL     1      -0.318  11.097  21.793  0.00  0.00    +0.000 A 
ATOM     26 BR   UNL     1      -0.352   9.631  22.987  0.00  0.00    +0.000 Br
ATOM     27  C   UNL     1      -1.326  12.058  21.855  0.00  0.00    +0.000 A 
ENDBRANCH   9  21
BRANCH   1  28
ATOM     28  C   UNL     1      -1.784  15.366  23.069  0.00  0.00    +0.000 C 
BRANCH  28  30
ATOM     29  C   UNL     1      -2.452  17.538  22.001  0.00  0.00    +0.000 C 
ATOM     30  C   UNL     1      -1.509  16.673  22.398  0.00  0.00    +0.000 C 
ENDBRANCH  28  30
ENDBRANCH   1  28
TORSDOF 5
ENDMDL
MODEL 5
REMARK VINA RESULT:      -6.5      1.422      1.829
REMARK  Name = 
REMARK  7 active torsions:
REMARK  status: ('A' for Active; 'I' for Inactive)
REMARK    1  A    between atoms: C_2  and  C_3
REMARK    2  A    between atoms: C_3  and  N_4
REMARK    3  A    between atoms: C_10  and  C_11
REMARK    4  A    between atoms: C_13  and  C_14
REMARK    5  A    between atoms: C_15  and  C_16
REMARK    6  A    between atoms: C_18  and  O_19
REMARK    7  A    between atoms: C_21  and  C_22
REMARK                            x       y       z     vdW  Elec       q    Type
REMARK                         _______ _______ _______ _____ _____    ______ ____
ROOT
ATOM      1  N   UNL     1      -5.205  14.144  23.148  0.00  0.00    +0.000 N 
ATOM      2  C   UNL     1      -6.403  13.458  23.364  0.00  0.00    +0.000 C 
ATOM      3  O   UNL     1      -7.138  13.498  24.333  0.00  0.00    +0.000 OA
ATOM      4  C   UNL     1      -6.547  12.670  22.199  0.00  0.00    +0.000 A 
ATOM      5  N   UNL     1      -7.381  11.745  21.706  0.00  0.00    +0.000 N 
ATOM      6  N   UNL     1      -6.946  11.269  20.515  0.00  0.00    +0.000 NA
ATOM      7  C   UNL     1      -5.807  11.958  20.240  0.00  0.00    +0.000 A 
ATOM      8  C   UNL     1      -5.532  12.846  21.303  0.00  0.00    +0.000 A 
ATOM      9  C   UNL     1      -4.583  13.862  21.818  0.00  0.00    +0.000 C 
ATOM     10  H   UNL     1      -8.233  11.372  22.109  0.00  0.00    +0.000 HD
ENDROOT
BRANCH   7  11
ATOM     11  C   UNL     1      -5.048  11.693  19.009  0.00  0.00    +0.000 A 
ATOM     12  C   UNL     1      -3.650  11.518  19.083  0.00  0.00    +0.000 A 
ATOM     13  C   UNL     1      -2.864  11.246  17.945  0.00  0.00    +0.000 A 
ATOM     14  C   UNL     1      -1.379  11.068  18.105  0.00  0.00    +0.000 C 
ATOM     15  C   UNL     1      -3.493  11.141  16.693  0.00  0.00    +0.000 A 
ATOM     16  C   UNL     1      -2.758  10.815  15.420  0.00  0.00    +0.000 C 
ATOM     17  C   UNL     1      -4.883  11.323  16.611  0.00  0.00    +0.000 A 
ATOM     18  C   UNL     1      -5.649  11.584  17.752  0.00  0.00    +0.000 A 
BRANCH  18  19
ATOM     19  O   UNL     1      -7.007  11.700  17.610  0.00  0.00    +0.000 OA
ATOM     20  H   UNL     1      -7.338  12.296  18.302  0.00  0.00    +0.000 HD
ENDBRANCH  18  19
ENDBRANCH   7  11
BRANCH   9  21
ATOM     21  C   UNL     1      -3.190  13.282  21.947  0.00  0.00    +0.000 A 
ATOM     22  C   UNL     1      -2.861  12.198  22.781  0.00  0.00    +0.000 A 
ATOM     23  C   UNL     1      -1.535  11.785  22.932  0.00  0.00    +0.000 A 
ATOM     24  C   UNL     1      -0.509  12.462  22.277  0.00  0.00    +0.000 A 
ATOM     25  C   UNL     1      -0.816  13.543  21.457  0.00  0.00    +0.000 A 
ATOM     26 BR   UNL     1       0.572  14.505  20.607  0.00  0.00    +0.000 Br
ATOM     27  C   UNL     1      -2.140  13.944  21.281  0.00  0.00    +0.000 A 
ENDBRANCH   9  21
BRANCH   1  28
ATOM     28  C   UNL     1      -4.590  14.984  24.150  0.00  0.00    +0.000 C 
BRANCH  28  30
ATOM     29  C   UNL     1      -4.303  17.329  23.299  0.00  0.00    +0.000 C 
ATOM     30  C   UNL     1      -5.011  16.407  23.966  0.00  0.00    +0.000 C 
ENDBRANCH  28  30
ENDBRANCH   1  28
TORSDOF 5
ENDMDL
MODEL 6
REMARK VINA RESULT:      -6.4      2.935      4.400
REMARK  Name = 
REMARK  7 active torsions:
REMARK  status: ('A' for Active; 'I' for Inactive)
REMARK    1  A    between atoms: C_2  and  C_3
REMARK    2  A    between atoms: C_3  and  N_4
REMARK    3  A    between atoms: C_10  and  C_11
REMARK    4  A    between atoms: C_13  and  C_14
REMARK    5  A    between atoms: C_15  and  C_16
REMARK    6  A    between atoms: C_18  and  O_19
REMARK    7  A    between atoms: C_21  and  C_22
REMARK                            x       y       z     vdW  Elec       q    Type
REMARK                         _______ _______ _______ _____ _____    ______ ____
ROOT
ATOM      1  N   UNL     1      -2.487  13.734  23.694  0.00  0.00    +0.000 N 
ATOM      2  C   UNL     1      -1.185  14.239  23.665  0.00  0.00    +0.000 C 
ATOM      3  O   UNL     1      -0.631  14.960  24.475  0.00  0.00    +0.000 OA
ATOM      4  C   UNL     1      -0.665  13.745  22.448  0.00  0.00    +0.000 A 
ATOM      5  N   UNL     1       0.456  13.835  21.721  0.00  0.00    +0.000 N 
ATOM      6  N   UNL     1       0.342  13.171  20.546  0.00  0.00    +0.000 NA
ATOM      7  C   UNL     1      -0.897  12.613  20.562  0.00  0.00    +0.000 A 
ATOM      8  C   UNL     1      -1.555  12.974  21.757  0.00  0.00    +0.000 A 
ATOM      9  C   UNL     1      -2.816  12.855  22.529  0.00  0.00    +0.000 C 
ATOM     10  H   UNL     1       1.317  14.330  21.930  0.00  0.00    +0.000 HD
ENDROOT
BRANCH   7  11
ATOM     11  C   UNL     1      -1.373  11.812  19.424  0.00  0.00    +0.000 A 
ATOM     12  C   UNL     1      -2.664  12.048  18.905  0.00  0.00    +0.000 A 
ATOM     13  C   UNL     1      -3.177  11.328  17.807  0.00  0.00    +0.000 A 
ATOM     14  C   UNL     1      -4.561  11.640  17.308  0.00  0.00    +0.000 C 
ATOM     15  C   UNL     1      -2.376  10.343  17.204  0.00  0.00    +0.000 A 
ATOM     16  C   UNL     1      -2.807   9.544  16.004  0.00  0.00    +0.000 C 
ATOM     17  C   UNL     1      -1.094  10.098  17.721  0.00  0.00    +0.000 A 
ATOM     18  C   UNL     1      -0.597  10.827  18.807  0.00  0.00    +0.000 A 
BRANCH  18  19
ATOM     19  O   UNL     1       0.682  10.573  19.229  0.00  0.00    +0.000 OA
ATOM     20  H   UNL     1       0.912  11.221  19.915  0.00  0.00    +0.000 HD
ENDBRANCH  18  19
ENDBRANCH   7  11
BRANCH   9  21
ATOM     21  C   UNL     1      -3.990  13.378  21.729  0.00  0.00    +0.000 A 
ATOM     22  C   UNL     1      -4.016  14.632  21.094  0.00  0.00    +0.000 A 
ATOM     23  C   UNL     1      -5.174  15.094  20.463  0.00  0.00    +0.000 A 
ATOM     24  C   UNL     1      -6.336  14.326  20.478  0.00  0.00    +0.000 A 
ATOM     25  C   UNL     1      -6.330  13.088  21.111  0.00  0.00    +0.000 A 
ATOM     26 BR   UNL     1      -7.916  12.061  21.186  0.00  0.00    +0.000 Br
ATOM     27  C   UNL     1      -5.171  12.609  21.719  0.00  0.00    +0.000 A 
ENDBRANCH   9  21
BRANCH   1  28
ATOM     28  C   UNL     1      -3.446  14.093  24.712  0.00  0.00    +0.000 C 
BRANCH  28  30
ATOM     29  C   UNL     1      -5.016  16.013  24.318  0.00  0.00    +0.000 C 
ATOM     30  C   UNL     1      -3.795  15.543  24.611  0.00  0.00    +0.000 C 
ENDBRANCH  28  30
ENDBRANCH   1  28
TORSDOF 5
ENDMDL
MODEL 7
REMARK VINA RESULT:      -6.3      3.273      5.714
REMARK  Name = 
REMARK  7 active torsions:
REMARK  status: ('A' for Active; 'I' for Inactive)
REMARK    1  A    between atoms: C_2  and  C_3
REMARK    2  A    between atoms: C_3  and  N_4
REMARK    3  A    between atoms: C_10  and  C_11
REMARK    4  A    between atoms: C_13  and  C_14
REMARK    5  A    between atoms: C_15  and  C_16
REMARK    6  A    between atoms: C_18  and  O_19
REMARK    7  A    between atoms: C_21  and  C_22
REMARK                            x       y       z     vdW  Elec       q    Type
REMARK                         _______ _______ _______ _____ _____    ______ ____
ROOT
ATOM      1  N   UNL     1       0.180   9.940  19.801  0.00  0.00    +0.000 N 
ATOM      2  C   UNL     1       0.282   9.896  18.409  0.00  0.00    +0.000 C 
ATOM      3  O   UNL     1       1.211   9.504  17.726  0.00  0.00    +0.000 OA
ATOM      4  C   UNL     1      -0.941  10.453  17.970  0.00  0.00    +0.000 A 
ATOM      5  N   UNL     1      -1.542  10.782  16.819  0.00  0.00    +0.000 N 
ATOM      6  N   UNL     1      -2.738  11.379  17.036  0.00  0.00    +0.000 NA
ATOM      7  C   UNL     1      -2.902  11.387  18.386  0.00  0.00    +0.000 A 
ATOM      8  C   UNL     1      -1.767  10.812  18.996  0.00  0.00    +0.000 A 
ATOM      9  C   UNL     1      -1.131  10.467  20.291  0.00  0.00    +0.000 C 
ATOM     10  H   UNL     1      -1.213  10.661  15.867  0.00  0.00    +0.000 HD
ENDROOT
BRANCH   7  11
ATOM     11  C   UNL     1      -4.106  11.975  18.991  0.00  0.00    +0.000 A 
ATOM     12  C   UNL     1      -3.983  12.739  20.171  0.00  0.00    +0.000 A 
ATOM     13  C   UNL     1      -5.093  13.344  20.795  0.00  0.00    +0.000 A 
ATOM     14  C   UNL     1      -4.881  14.148  22.049  0.00  0.00    +0.000 C 
ATOM     15  C   UNL     1      -6.367  13.183  20.223  0.00  0.00    +0.000 A 
ATOM     16  C   UNL     1      -7.612  13.816  20.782  0.00  0.00    +0.000 C 
ATOM     17  C   UNL     1      -6.497  12.416  19.054  0.00  0.00    +0.000 A 
ATOM     18  C   UNL     1      -5.383  11.830  18.443  0.00  0.00    +0.000 A 
BRANCH  18  19
ATOM     19  O   UNL     1      -5.573  11.137  17.276  0.00  0.00    +0.000 OA
ATOM     20  H   UNL     1      -4.811  11.301  16.696  0.00  0.00    +0.000 HD
ENDBRANCH  18  19
ENDBRANCH   7  11
BRANCH   9  21
ATOM     21  C   UNL     1      -0.968  11.699  21.156  0.00  0.00    +0.000 A 
ATOM     22  C   UNL     1      -1.444  11.806  22.475  0.00  0.00    +0.000 A 
ATOM     23  C   UNL     1      -1.352  13.011  23.175  0.00  0.00    +0.000 A 
ATOM     24  C   UNL     1      -0.810  14.140  22.565  0.00  0.00    +0.000 A 
ATOM     25  C   UNL     1      -0.345  14.054  21.257  0.00  0.00    +0.000 A 
ATOM     26 BR   UNL     1       0.342  15.592  20.398  0.00  0.00    +0.000 Br
ATOM     27  C   UNL     1      -0.408  12.847  20.561  0.00  0.00    +0.000 A 
ENDBRANCH   9  21
BRANCH   1  28
ATOM     28  C   UNL     1       1.270   9.583  20.679  0.00  0.00    +0.000 C 
BRANCH  28  30
ATOM     29  C   UNL     1       1.664   7.103  20.656  0.00  0.00    +0.000 C 
ATOM     30  C   UNL     1       1.091   8.190  21.191  0.00  0.00    +0.000 C 
ENDBRANCH  28  30
ENDBRANCH   1  28
TORSDOF 5
ENDMDL
MODEL 8
REMARK VINA RESULT:      -6.3      3.800      7.150
REMARK  Name = 
REMARK  7 active torsions:
REMARK  status: ('A' for Active; 'I' for Inactive)
REMARK    1  A    between atoms: C_2  and  C_3
REMARK    2  A    between atoms: C_3  and  N_4
REMARK    3  A    between atoms: C_10  and  C_11
REMARK    4  A    between atoms: C_13  and  C_14
REMARK    5  A    between atoms: C_15  and  C_16
REMARK    6  A    between atoms: C_18  and  O_19
REMARK    7  A    between atoms: C_21  and  C_22
REMARK                            x       y       z     vdW  Elec       q    Type
REMARK                         _______ _______ _______ _____ _____    ______ ____
ROOT
ATOM      1  N   UNL     1       0.659   9.928  19.541  0.00  0.00    +0.000 N 
ATOM      2  C   UNL     1       1.079   9.050  20.542  0.00  0.00    +0.000 C 
ATOM      3  O   UNL     1       1.747   8.038  20.435  0.00  0.00    +0.000 OA
ATOM      4  C   UNL     1       0.511   9.592  21.717  0.00  0.00    +0.000 A 
ATOM      5  N   UNL     1       0.424   9.299  23.022  0.00  0.00    +0.000 N 
ATOM      6  N   UNL     1      -0.350  10.194  23.681  0.00  0.00    +0.000 NA
ATOM      7  C   UNL     1      -0.733  11.104  22.747  0.00  0.00    +0.000 A 
ATOM      8  C   UNL     1      -0.203  10.733  21.492  0.00  0.00    +0.000 A 
ATOM      9  C   UNL     1      -0.135  11.087  20.053  0.00  0.00    +0.000 C 
ATOM     10  H   UNL     1       0.831   8.523  23.532  0.00  0.00    +0.000 HD
ENDROOT
BRANCH   7  11
ATOM     11  C   UNL     1      -1.602  12.232  23.111  0.00  0.00    +0.000 A 
ATOM     12  C   UNL     1      -2.930  11.978  23.515  0.00  0.00    +0.000 A 
ATOM     13  C   UNL     1      -3.812  13.011  23.892  0.00  0.00    +0.000 A 
ATOM     14  C   UNL     1      -5.213  12.661  24.315  0.00  0.00    +0.000 C 
ATOM     15  C   UNL     1      -3.355  14.340  23.869  0.00  0.00    +0.000 A 
ATOM     16  C   UNL     1      -4.197  15.514  24.288  0.00  0.00    +0.000 C 
ATOM     17  C   UNL     1      -2.037  14.599  23.459  0.00  0.00    +0.000 A 
ATOM     18  C   UNL     1      -1.172  13.562  23.096  0.00  0.00    +0.000 A 
BRANCH  18  19
ATOM     19  O   UNL     1       0.116  13.880  22.755  0.00  0.00    +0.000 OA
ATOM     20  H   UNL     1       0.152  14.027  21.796  0.00  0.00    +0.000 HD
ENDBRANCH  18  19
ENDBRANCH   7  11
BRANCH   9  21
ATOM     21  C   UNL     1      -1.521  11.147  19.447  0.00  0.00    +0.000 A 
ATOM     22  C   UNL     1      -1.911  10.436  18.297  0.00  0.00    +0.000 A 
ATOM     23  C   UNL     1      -3.174  10.623  17.732  0.00  0.00    +0.000 A 
ATOM     24  C   UNL     1      -4.063  11.543  18.285  0.00  0.00    +0.000 A 
ATOM     25  C   UNL     1      -3.689  12.261  19.415  0.00  0.00    +0.000 A 
ATOM     26 BR   UNL     1      -4.864  13.552  20.142  0.00  0.00    +0.000 Br
ATOM     27  C   UNL     1      -2.440  12.061  20.001  0.00  0.00    +0.000 A 
ENDBRANCH   9  21
BRANCH   1  28
ATOM     28  C   UNL     1       0.904   9.693  18.137  0.00  0.00    +0.000 C 
BRANCH  28  30
ATOM     29  C   UNL     1       2.485  11.626  17.876  0.00  0.00    +0.000 C 
ATOM     30  C   UNL     1       2.191  10.328  17.719  0.00  0.00    +0.000 C 
ENDBRANCH  28  30
ENDBRANCH   1  28
TORSDOF 5
ENDMDL
MODEL 9
REMARK VINA RESULT:      -6.3      1.583      1.985
REMARK  Name = 
REMARK  7 active torsions:
REMARK  status: ('A' for Active; 'I' for Inactive)
REMARK    1  A    between atoms: C_2  and  C_3
REMARK    2  A    between atoms: C_3  and  N_4
REMARK    3  A    between atoms: C_10  and  C_11
REMARK    4  A    between atoms: C_13  and  C_14
REMARK    5  A    between atoms: C_15  and  C_16
REMARK    6  A    between atoms: C_18  and  O_19
REMARK    7  A    between atoms: C_21  and  C_22
REMARK                            x       y       z     vdW  Elec       q    Type
REMARK                         _______ _______ _______ _____ _____    ______ ____
ROOT
ATOM      1  N   UNL     1      -2.476  13.905  23.028  0.00  0.00    +0.000 N 
ATOM      2  C   UNL     1      -3.734  13.661  23.583  0.00  0.00    +0.000 C 
ATOM      3  O   UNL     1      -4.119  13.873  24.719  0.00  0.00    +0.000 OA
ATOM      4  C   UNL     1      -4.454  13.069  22.521  0.00  0.00    +0.000 A 
ATOM      5  N   UNL     1      -5.661  12.532  22.299  0.00  0.00    +0.000 N 
ATOM      6  N   UNL     1      -5.759  12.034  21.043  0.00  0.00    +0.000 NA
ATOM      7  C   UNL     1      -4.568  12.307  20.448  0.00  0.00    +0.000 A 
ATOM      8  C   UNL     1      -3.723  12.955  21.374  0.00  0.00    +0.000 A 
ATOM      9  C   UNL     1      -2.374  13.535  21.583  0.00  0.00    +0.000 C 
ATOM     10  H   UNL     1      -6.449  12.445  22.930  0.00  0.00    +0.000 HD
ENDROOT
BRANCH   7  11
ATOM     11  C   UNL     1      -4.313  11.897  19.059  0.00  0.00    +0.000 A 
ATOM     12  C   UNL     1      -3.124  11.201  18.752  0.00  0.00    +0.000 A 
ATOM     13  C   UNL     1      -2.824  10.766  17.445  0.00  0.00    +0.000 A 
ATOM     14  C   UNL     1      -1.537  10.026  17.198  0.00  0.00    +0.000 C 
ATOM     15  C   UNL     1      -3.739  11.029  16.412  0.00  0.00    +0.000 A 
ATOM     16  C   UNL     1      -3.538  10.576  14.991  0.00  0.00    +0.000 C 
ATOM     17  C   UNL     1      -4.919  11.729  16.710  0.00  0.00    +0.000 A 
ATOM     18  C   UNL     1      -5.206  12.147  18.014  0.00  0.00    +0.000 A 
BRANCH  18  19
ATOM     19  O   UNL     1      -6.399  12.780  18.245  0.00  0.00    +0.000 OA
ATOM     20  H   UNL     1      -6.950  12.202  18.799  0.00  0.00    +0.000 HD
ENDBRANCH  18  19
ENDBRANCH   7  11
BRANCH   9  21
ATOM     21  C   UNL     1      -1.298  12.500  21.330  0.00  0.00    +0.000 A 
ATOM     22  C   UNL     1      -1.076  11.376  22.145  0.00  0.00    +0.000 A 
ATOM     23  C   UNL     1       0.004  10.522  21.912  0.00  0.00    +0.000 A 
ATOM     24  C   UNL     1       0.901  10.788  20.879  0.00  0.00    +0.000 A 
ATOM     25  C   UNL     1       0.702  11.902  20.070  0.00  0.00    +0.000 A 
ATOM     26 BR   UNL     1       1.941  12.305  18.701  0.00  0.00    +0.000 Br
ATOM     27  C   UNL     1      -0.389  12.744  20.280  0.00  0.00    +0.000 A 
ENDBRANCH   9  21
BRANCH   1  28
ATOM     28  C   UNL     1      -1.359  14.397  23.802  0.00  0.00    +0.000 C 
BRANCH  28  30
ATOM     29  C   UNL     1      -1.814  16.692  24.712  0.00  0.00    +0.000 C 
ATOM     30  C   UNL     1      -1.314  15.890  23.762  0.00  0.00    +0.000 C 
ENDBRANCH  28  30
ENDBRANCH   1  28
TORSDOF 5
ENDMDL
