MODEL 1
REMARK VINA RESULT:      -6.7      0.000      0.000
REMARK  Name = 
REMARK  8 active torsions:
REMARK  status: ('A' for Active; 'I' for Inactive)
REMARK    1  A    between atoms: C_2  and  O_3
REMARK    2  A    between atoms: C_2  and  C_4
REMARK    3  A    between atoms: C_4  and  O_5
REMARK    4  A    between atoms: C_4  and  C_6
REMARK    5  A    between atoms: C_10  and  C_11
REMARK    6  A    between atoms: C_11  and  O_12
REMARK    7  A    between atoms: C_11  and  C_13
REMARK    8  A    between atoms: C_13  and  O_15
REMARK                            x       y       z     vdW  Elec       q    Type
REMARK                         _______ _______ _______ _____ _____    ______ ____
ROOT
ATOM      1  C   UNL     1       2.706   4.696  19.169  0.00  0.00    +0.000 A 
ATOM      2  C   UNL     1       2.385   3.861  18.091  0.00  0.00    +0.000 A 
ATOM      3  C   UNL     1       3.327   3.605  17.098  0.00  0.00    +0.000 A 
ATOM      4  C   UNL     1       4.597   4.182  17.171  0.00  0.00    +0.000 A 
ATOM      5  C   UNL     1       4.943   5.055  18.218  0.00  0.00    +0.000 A 
ATOM      6  C   UNL     1       3.981   5.287  19.216  0.00  0.00    +0.000 A 
ENDROOT
BRANCH   1   7
ATOM      7  C   UNL     1       1.755   4.872  20.331  0.00  0.00    +0.000 C 
BRANCH   7   9
ATOM      8  O   UNL     1       2.277   3.313  22.124  0.00  0.00    +0.000 OA
ATOM      9  C   UNL     1       1.557   3.597  21.170  0.00  0.00    +0.000 C 
BRANCH   9  10
ATOM     10  O   UNL     1       0.520   2.818  20.790  0.00  0.00    +0.000 OA
ATOM     11  H   UNL     1       0.521   2.595  19.838  0.00  0.00    +0.000 HD
ENDBRANCH   9  10
ENDBRANCH   7   9
BRANCH   7  12
ATOM     12  O   UNL     1       2.237   5.976  21.094  0.00  0.00    +0.000 OA
ATOM     13  H   UNL     1       3.054   5.663  21.526  0.00  0.00    +0.000 HD
ENDBRANCH   7  12
ENDBRANCH   1   7
BRANCH   5  14
ATOM     14  C   UNL     1       6.370   5.569  18.346  0.00  0.00    +0.000 C 
BRANCH  14  15
ATOM     15  O   UNL     1       6.988   5.098  19.567  0.00  0.00    +0.000 OA
ATOM     16  H   UNL     1       6.282   5.082  20.242  0.00  0.00    +0.000 HD
ENDBRANCH  14  15
BRANCH  14  17
ATOM     17  C   UNL     1       7.367   5.193  17.231  0.00  0.00    +0.000 C 
ATOM     18  O   UNL     1       7.541   5.762  16.166  0.00  0.00    +0.000 OA
BRANCH  17  19
ATOM     19  O   UNL     1       8.120   4.114  17.595  0.00  0.00    +0.000 OA
ATOM     20  H   UNL     1       7.541   3.315  17.576  0.00  0.00    +0.000 HD
ENDBRANCH  17  19
ENDBRANCH  14  17
ENDBRANCH   5  14
TORSDOF 8
ENDMDL
MODEL 2
REMARK VINA RESULT:      -6.7      1.348      1.690
REMARK  Name = 
REMARK  8 active torsions:
REMARK  status: ('A' for Active; 'I' for Inactive)
REMARK    1  A    between atoms: C_2  and  O_3
REMARK    2  A    between atoms: C_2  and  C_4
REMARK    3  A    between atoms: C_4  and  O_5
REMARK    4  A    between atoms: C_4  and  C_6
REMARK    5  A    between atoms: C_10  and  C_11
REMARK    6  A    between atoms: C_11  and  O_12
REMARK    7  A    between atoms: C_11  and  C_13
REMARK    8  A    between atoms: C_13  and  O_15
REMARK                            x       y       z     vdW  Elec       q    Type
REMARK                         _______ _______ _______ _____ _____    ______ ____
ROOT
ATOM      1  C   UNL     1       3.231   3.894  19.169  0.00  0.00    +0.000 A 
ATOM      2  C   UNL     1       2.372   4.745  18.463  0.00  0.00    +0.000 A 
ATOM      3  C   UNL     1       2.873   5.886  17.840  0.00  0.00    +0.000 A 
ATOM      4  C   UNL     1       4.234   6.188  17.919  0.00  0.00    +0.000 A 
ATOM      5  C   UNL     1       5.120   5.377  18.650  0.00  0.00    +0.000 A 
ATOM      6  C   UNL     1       4.595   4.224  19.258  0.00  0.00    +0.000 A 
ENDROOT
BRANCH   1   7
ATOM      7  C   UNL     1       2.741   2.578  19.728  0.00  0.00    +0.000 C 
BRANCH   7   9
ATOM      8  O   UNL     1       2.217   2.670  22.102  0.00  0.00    +0.000 OA
ATOM      9  C   UNL     1       1.809   2.729  20.945  0.00  0.00    +0.000 C 
BRANCH   9  10
ATOM     10  O   UNL     1       0.510   2.948  20.646  0.00  0.00    +0.000 OA
ATOM     11  H   UNL     1       0.372   3.634  19.962  0.00  0.00    +0.000 HD
ENDBRANCH   9  10
ENDBRANCH   7   9
BRANCH   7  12
ATOM     12  O   UNL     1       2.140   1.869  18.646  0.00  0.00    +0.000 OA
ATOM     13  H   UNL     1       1.243   2.243  18.551  0.00  0.00    +0.000 HD
ENDBRANCH   7  12
ENDBRANCH   1   7
BRANCH   5  14
ATOM     14  C   UNL     1       6.617   5.654  18.616  0.00  0.00    +0.000 C 
BRANCH  14  15
ATOM     15  O   UNL     1       7.270   5.142  19.802  0.00  0.00    +0.000 OA
ATOM     16  H   UNL     1       7.954   4.518  19.489  0.00  0.00    +0.000 HD
ENDBRANCH  14  15
BRANCH  14  17
ATOM     17  C   UNL     1       7.424   5.068  17.440  0.00  0.00    +0.000 C 
ATOM     18  O   UNL     1       7.414   5.433  16.276  0.00  0.00    +0.000 OA
BRANCH  17  19
ATOM     19  O   UNL     1       8.243   4.060  17.864  0.00  0.00    +0.000 OA
ATOM     20  H   UNL     1       8.693   4.359  18.690  0.00  0.00    +0.000 HD
ENDBRANCH  17  19
ENDBRANCH  14  17
ENDBRANCH   5  14
TORSDOF 8
ENDMDL
MODEL 3
REMARK VINA RESULT:      -6.7      1.986      2.666
REMARK  Name = 
REMARK  8 active torsions:
REMARK  status: ('A' for Active; 'I' for Inactive)
REMARK    1  A    between atoms: C_2  and  O_3
REMARK    2  A    between atoms: C_2  and  C_4
REMARK    3  A    between atoms: C_4  and  O_5
REMARK    4  A    between atoms: C_4  and  C_6
REMARK    5  A    between atoms: C_10  and  C_11
REMARK    6  A    between atoms: C_11  and  O_12
REMARK    7  A    between atoms: C_11  and  C_13
REMARK    8  A    between atoms: C_13  and  O_15
REMARK                            x       y       z     vdW  Elec       q    Type
REMARK                         _______ _______ _______ _____ _____    ______ ____
ROOT
ATOM      1  C   UNL     1       4.196   4.100  18.959  0.00  0.00    +0.000 A 
ATOM      2  C   UNL     1       3.257   5.100  18.675  0.00  0.00    +0.000 A 
ATOM      3  C   UNL     1       3.557   6.104  17.759  0.00  0.00    +0.000 A 
ATOM      4  C   UNL     1       4.798   6.121  17.119  0.00  0.00    +0.000 A 
ATOM      5  C   UNL     1       5.781   5.155  17.406  0.00  0.00    +0.000 A 
ATOM      6  C   UNL     1       5.449   4.144  18.323  0.00  0.00    +0.000 A 
ENDROOT
BRANCH   1   7
ATOM      7  C   UNL     1       3.842   2.922  19.837  0.00  0.00    +0.000 C 
BRANCH   7   9
ATOM      8  O   UNL     1       1.499   2.338  20.138  0.00  0.00    +0.000 OA
ATOM      9  C   UNL     1       2.515   2.240  19.455  0.00  0.00    +0.000 C 
BRANCH   9  10
ATOM     10  O   UNL     1       2.545   1.537  18.301  0.00  0.00    +0.000 OA
ATOM     11  H   UNL     1       3.417   1.543  17.857  0.00  0.00    +0.000 HD
ENDBRANCH   9  10
ENDBRANCH   7   9
BRANCH   7  12
ATOM     12  O   UNL     1       4.958   2.034  19.806  0.00  0.00    +0.000 OA
ATOM     13  H   UNL     1       4.634   1.189  20.171  0.00  0.00    +0.000 HD
ENDBRANCH   7  12
ENDBRANCH   1   7
BRANCH   5  14
ATOM     14  C   UNL     1       7.074   5.118  16.605  0.00  0.00    +0.000 C 
BRANCH  14  15
ATOM     15  O   UNL     1       8.016   4.179  17.176  0.00  0.00    +0.000 OA
ATOM     16  H   UNL     1       8.009   3.396  16.593  0.00  0.00    +0.000 HD
ENDBRANCH  14  15
BRANCH  14  17
ATOM     17  C   UNL     1       6.981   4.723  15.117  0.00  0.00    +0.000 C 
ATOM     18  O   UNL     1       6.231   3.905  14.609  0.00  0.00    +0.000 OA
BRANCH  17  19
ATOM     19  O   UNL     1       7.849   5.460  14.361  0.00  0.00    +0.000 OA
ATOM     20  H   UNL     1       7.745   6.408  14.613  0.00  0.00    +0.000 HD
ENDBRANCH  17  19
ENDBRANCH  14  17
ENDBRANCH   5  14
TORSDOF 8
ENDMDL
MODEL 4
REMARK VINA RESULT:      -6.6      2.172      5.224
REMARK  Name = 
REMARK  8 active torsions:
REMARK  status: ('A' for Active; 'I' for Inactive)
REMARK    1  A    between atoms: C_2  and  O_3
REMARK    2  A    between atoms: C_2  and  C_4
REMARK    3  A    between atoms: C_4  and  O_5
REMARK    4  A    between atoms: C_4  and  C_6
REMARK    5  A    between atoms: C_10  and  C_11
REMARK    6  A    between atoms: C_11  and  O_12
REMARK    7  A    between atoms: C_11  and  C_13
REMARK    8  A    between atoms: C_13  and  O_15
REMARK                            x       y       z     vdW  Elec       q    Type
REMARK                         _______ _______ _______ _____ _____    ______ ____
ROOT
ATOM      1  C   UNL     1       5.061   5.690  17.467  0.00  0.00    +0.000 A 
ATOM      2  C   UNL     1       4.117   6.720  17.564  0.00  0.00    +0.000 A 
ATOM      3  C   UNL     1       2.822   6.446  17.997  0.00  0.00    +0.000 A 
ATOM      4  C   UNL     1       2.458   5.141  18.334  0.00  0.00    +0.000 A 
ATOM      5  C   UNL     1       3.367   4.074  18.215  0.00  0.00    +0.000 A 
ATOM      6  C   UNL     1       4.672   4.378  17.790  0.00  0.00    +0.000 A 
ENDROOT
BRANCH   1   7
ATOM      7  C   UNL     1       6.507   5.984  17.141  0.00  0.00    +0.000 C 
BRANCH   7   9
ATOM      8  O   UNL     1       7.753   5.241  19.094  0.00  0.00    +0.000 OA
ATOM      9  C   UNL     1       7.508   5.093  17.899  0.00  0.00    +0.000 C 
BRANCH   9  10
ATOM     10  O   UNL     1       8.087   4.125  17.156  0.00  0.00    +0.000 OA
ATOM     11  H   UNL     1       8.950   4.382  16.774  0.00  0.00    +0.000 HD
ENDBRANCH   9  10
ENDBRANCH   7   9
BRANCH   7  12
ATOM     12  O   UNL     1       6.637   5.893  15.724  0.00  0.00    +0.000 OA
ATOM     13  H   UNL     1       7.488   5.443  15.564  0.00  0.00    +0.000 HD
ENDBRANCH   7  12
ENDBRANCH   1   7
BRANCH   5  14
ATOM     14  C   UNL     1       2.988   2.685  18.709  0.00  0.00    +0.000 C 
BRANCH  14  15
ATOM     15  O   UNL     1       2.415   1.890  17.644  0.00  0.00    +0.000 OA
ATOM     16  H   UNL     1       2.864   1.023  17.678  0.00  0.00    +0.000 HD
ENDBRANCH  14  15
BRANCH  14  17
ATOM     17  C   UNL     1       4.112   1.805  19.294  0.00  0.00    +0.000 C 
ATOM     18  O   UNL     1       4.754   1.998  20.313  0.00  0.00    +0.000 OA
BRANCH  17  19
ATOM     19  O   UNL     1       4.302   0.687  18.532  0.00  0.00    +0.000 OA
ATOM     20  H   UNL     1       4.369  -0.089  19.139  0.00  0.00    +0.000 HD
ENDBRANCH  17  19
ENDBRANCH  14  17
ENDBRANCH   5  14
TORSDOF 8
ENDMDL
MODEL 5
REMARK VINA RESULT:      -6.6      1.614      6.001
REMARK  Name = 
REMARK  8 active torsions:
REMARK  status: ('A' for Active; 'I' for Inactive)
REMARK    1  A    between atoms: C_2  and  O_3
REMARK    2  A    between atoms: C_2  and  C_4
REMARK    3  A    between atoms: C_4  and  O_5
REMARK    4  A    between atoms: C_4  and  C_6
REMARK    5  A    between atoms: C_10  and  C_11
REMARK    6  A    between atoms: C_11  and  O_12
REMARK    7  A    between atoms: C_11  and  C_13
REMARK    8  A    between atoms: C_13  and  O_15
REMARK                            x       y       z     vdW  Elec       q    Type
REMARK                         _______ _______ _______ _____ _____    ______ ____
ROOT
ATOM      1  C   UNL     1       4.638   4.706  16.612  0.00  0.00    +0.000 A 
ATOM      2  C   UNL     1       4.438   6.014  17.071  0.00  0.00    +0.000 A 
ATOM      3  C   UNL     1       3.380   6.301  17.930  0.00  0.00    +0.000 A 
ATOM      4  C   UNL     1       2.512   5.285  18.337  0.00  0.00    +0.000 A 
ATOM      5  C   UNL     1       2.660   3.967  17.868  0.00  0.00    +0.000 A 
ATOM      6  C   UNL     1       3.743   3.699  17.013  0.00  0.00    +0.000 A 
ENDROOT
BRANCH   1   7
ATOM      7  C   UNL     1       5.860   4.342  15.799  0.00  0.00    +0.000 C 
BRANCH   7   9
ATOM      8  O   UNL     1       7.778   4.460  17.290  0.00  0.00    +0.000 OA
ATOM      9  C   UNL     1       7.168   4.946  16.340  0.00  0.00    +0.000 C 
BRANCH   9  10
ATOM     10  O   UNL     1       7.607   6.042  15.684  0.00  0.00    +0.000 OA
ATOM     11  H   UNL     1       8.191   6.615  16.219  0.00  0.00    +0.000 HD
ENDBRANCH   9  10
ENDBRANCH   7   9
BRANCH   7  12
ATOM     12  O   UNL     1       5.890   2.919  15.715  0.00  0.00    +0.000 OA
ATOM     13  H   UNL     1       6.403   2.619  16.490  0.00  0.00    +0.000 HD
ENDBRANCH   7  12
ENDBRANCH   1   7
BRANCH   5  14
ATOM     14  C   UNL     1       1.783   2.854  18.423  0.00  0.00    +0.000 C 
BRANCH  14  15
ATOM     15  O   UNL     1       2.322   1.551  18.095  0.00  0.00    +0.000 OA
ATOM     16  H   UNL     1       2.504   1.109  18.947  0.00  0.00    +0.000 HD
ENDBRANCH  14  15
BRANCH  14  17
ATOM     17  C   UNL     1       1.562   2.813  19.949  0.00  0.00    +0.000 C 
ATOM     18  O   UNL     1       2.372   2.513  20.811  0.00  0.00    +0.000 OA
BRANCH  17  19
ATOM     19  O   UNL     1       0.297   3.217  20.270  0.00  0.00    +0.000 OA
ATOM     20  H   UNL     1      -0.063   3.729  19.507  0.00  0.00    +0.000 HD
ENDBRANCH  17  19
ENDBRANCH  14  17
ENDBRANCH   5  14
TORSDOF 8
ENDMDL
MODEL 6
REMARK VINA RESULT:      -6.6      2.458      5.844
REMARK  Name = 
REMARK  8 active torsions:
REMARK  status: ('A' for Active; 'I' for Inactive)
REMARK    1  A    between atoms: C_2  and  O_3
REMARK    2  A    between atoms: C_2  and  C_4
REMARK    3  A    between atoms: C_4  and  O_5
REMARK    4  A    between atoms: C_4  and  C_6
REMARK    5  A    between atoms: C_10  and  C_11
REMARK    6  A    between atoms: C_11  and  O_12
REMARK    7  A    between atoms: C_11  and  C_13
REMARK    8  A    between atoms: C_13  and  O_15
REMARK                            x       y       z     vdW  Elec       q    Type
REMARK                         _______ _______ _______ _____ _____    ______ ____
ROOT
ATOM      1  C   UNL     1       5.505   5.180  16.744  0.00  0.00    +0.000 A 
ATOM      2  C   UNL     1       4.801   6.386  16.858  0.00  0.00    +0.000 A 
ATOM      3  C   UNL     1       3.571   6.420  17.511  0.00  0.00    +0.000 A 
ATOM      4  C   UNL     1       3.033   5.251  18.053  0.00  0.00    +0.000 A 
ATOM      5  C   UNL     1       3.693   4.015  17.926  0.00  0.00    +0.000 A 
ATOM      6  C   UNL     1       4.939   4.008  17.276  0.00  0.00    +0.000 A 
ENDROOT
BRANCH   1   7
ATOM      7  C   UNL     1       6.903   5.144  16.171  0.00  0.00    +0.000 C 
BRANCH   7   9
ATOM      8  O   UNL     1       6.251   3.904  14.182  0.00  0.00    +0.000 OA
ATOM      9  C   UNL     1       6.951   4.786  14.674  0.00  0.00    +0.000 C 
BRANCH   9  10
ATOM     10  O   UNL     1       7.810   5.524  13.937  0.00  0.00    +0.000 OA
ATOM     11  H   UNL     1       7.370   6.124  13.302  0.00  0.00    +0.000 HD
ENDBRANCH   9  10
ENDBRANCH   7   9
BRANCH   7  12
ATOM     12  O   UNL     1       7.502   6.405  16.465  0.00  0.00    +0.000 OA
ATOM     13  H   UNL     1       8.448   6.306  16.245  0.00  0.00    +0.000 HD
ENDBRANCH   7  12
ENDBRANCH   1   7
BRANCH   5  14
ATOM     14  C   UNL     1       3.152   2.782  18.635  0.00  0.00    +0.000 C 
BRANCH  14  15
ATOM     15  O   UNL     1       2.418   1.933  17.720  0.00  0.00    +0.000 OA
ATOM     16  H   UNL     1       1.854   1.359  18.273  0.00  0.00    +0.000 HD
ENDBRANCH  14  15
BRANCH  14  17
ATOM     17  C   UNL     1       4.172   1.841  19.309  0.00  0.00    +0.000 C 
ATOM     18  O   UNL     1       4.769   2.020  20.358  0.00  0.00    +0.000 OA
BRANCH  17  19
ATOM     19  O   UNL     1       4.320   0.688  18.592  0.00  0.00    +0.000 OA
ATOM     20  H   UNL     1       4.545  -0.037  19.222  0.00  0.00    +0.000 HD
ENDBRANCH  17  19
ENDBRANCH  14  17
ENDBRANCH   5  14
TORSDOF 8
ENDMDL
MODEL 7
REMARK VINA RESULT:      -6.6      1.773      5.580
REMARK  Name = 
REMARK  8 active torsions:
REMARK  status: ('A' for Active; 'I' for Inactive)
REMARK    1  A    between atoms: C_2  and  O_3
REMARK    2  A    between atoms: C_2  and  C_4
REMARK    3  A    between atoms: C_4  and  O_5
REMARK    4  A    between atoms: C_4  and  C_6
REMARK    5  A    between atoms: C_10  and  C_11
REMARK    6  A    between atoms: C_11  and  O_12
REMARK    7  A    between atoms: C_11  and  C_13
REMARK    8  A    between atoms: C_13  and  O_15
REMARK                            x       y       z     vdW  Elec       q    Type
REMARK                         _______ _______ _______ _____ _____    ______ ____
ROOT
ATOM      1  C   UNL     1       5.064   5.639  17.314  0.00  0.00    +0.000 A 
ATOM      2  C   UNL     1       4.170   6.666  17.643  0.00  0.00    +0.000 A 
ATOM      3  C   UNL     1       2.847   6.370  17.961  0.00  0.00    +0.000 A 
ATOM      4  C   UNL     1       2.404   5.046  17.951  0.00  0.00    +0.000 A 
ATOM      5  C   UNL     1       3.262   3.991  17.591  0.00  0.00    +0.000 A 
ATOM      6  C   UNL     1       4.596   4.313  17.288  0.00  0.00    +0.000 A 
ENDROOT
BRANCH   1   7
ATOM      7  C   UNL     1       6.535   5.919  17.108  0.00  0.00    +0.000 C 
BRANCH   7   9
ATOM      8  O   UNL     1       7.566   5.107  19.157  0.00  0.00    +0.000 OA
ATOM      9  C   UNL     1       7.462   5.011  17.936  0.00  0.00    +0.000 C 
BRANCH   9  10
ATOM     10  O   UNL     1       8.142   4.086  17.223  0.00  0.00    +0.000 OA
ATOM     11  H   UNL     1       7.892   4.054  16.278  0.00  0.00    +0.000 HD
ENDBRANCH   9  10
ENDBRANCH   7   9
BRANCH   7  12
ATOM     12  O   UNL     1       6.777   5.838  15.705  0.00  0.00    +0.000 OA
ATOM     13  H   UNL     1       7.552   6.408  15.537  0.00  0.00    +0.000 HD
ENDBRANCH   7  12
ENDBRANCH   1   7
BRANCH   5  14
ATOM     14  C   UNL     1       2.795   2.547  17.712  0.00  0.00    +0.000 C 
BRANCH  14  15
ATOM     15  O   UNL     1       3.913   1.650  17.911  0.00  0.00    +0.000 OA
ATOM     16  H   UNL     1       3.937   1.451  18.867  0.00  0.00    +0.000 HD
ENDBRANCH  14  15
BRANCH  14  17
ATOM     17  C   UNL     1       1.813   2.208  18.853  0.00  0.00    +0.000 C 
ATOM     18  O   UNL     1       2.029   2.234  20.053  0.00  0.00    +0.000 OA
BRANCH  17  19
ATOM     19  O   UNL     1       0.578   1.898  18.357  0.00  0.00    +0.000 OA
ATOM     20  H   UNL     1       0.666   1.087  17.802  0.00  0.00    +0.000 HD
ENDBRANCH  17  19
ENDBRANCH  14  17
ENDBRANCH   5  14
TORSDOF 8
ENDMDL
MODEL 8
REMARK VINA RESULT:      -6.6      2.176      3.002
REMARK  Name = 
REMARK  8 active torsions:
REMARK  status: ('A' for Active; 'I' for Inactive)
REMARK    1  A    between atoms: C_2  and  O_3
REMARK    2  A    between atoms: C_2  and  C_4
REMARK    3  A    between atoms: C_4  and  O_5
REMARK    4  A    between atoms: C_4  and  C_6
REMARK    5  A    between atoms: C_10  and  C_11
REMARK    6  A    between atoms: C_11  and  O_12
REMARK    7  A    between atoms: C_11  and  C_13
REMARK    8  A    between atoms: C_13  and  O_15
REMARK                            x       y       z     vdW  Elec       q    Type
REMARK                         _______ _______ _______ _____ _____    ______ ____
ROOT
ATOM      1  C   UNL     1       3.493   4.246  17.506  0.00  0.00    +0.000 A 
ATOM      2  C   UNL     1       3.013   5.517  17.851  0.00  0.00    +0.000 A 
ATOM      3  C   UNL     1       3.824   6.638  17.695  0.00  0.00    +0.000 A 
ATOM      4  C   UNL     1       5.120   6.501  17.195  0.00  0.00    +0.000 A 
ATOM      5  C   UNL     1       5.649   5.238  16.872  0.00  0.00    +0.000 A 
ATOM      6  C   UNL     1       4.808   4.123  17.024  0.00  0.00    +0.000 A 
ENDROOT
BRANCH   1   7
ATOM      7  C   UNL     1       2.586   3.037  17.529  0.00  0.00    +0.000 C 
BRANCH   7   9
ATOM      8  O   UNL     1       2.441   2.164  19.795  0.00  0.00    +0.000 OA
ATOM      9  C   UNL     1       2.903   2.045  18.663  0.00  0.00    +0.000 C 
BRANCH   9  10
ATOM     10  O   UNL     1       3.715   1.022  18.318  0.00  0.00    +0.000 OA
ATOM     11  H   UNL     1       4.619   1.095  18.684  0.00  0.00    +0.000 HD
ENDBRANCH   9  10
ENDBRANCH   7   9
BRANCH   7  12
ATOM     12  O   UNL     1       1.247   3.526  17.570  0.00  0.00    +0.000 OA
ATOM     13  H   UNL     1       0.828   3.088  18.335  0.00  0.00    +0.000 HD
ENDBRANCH   7  12
ENDBRANCH   1   7
BRANCH   5  14
ATOM     14  C   UNL     1       7.015   5.126  16.209  0.00  0.00    +0.000 C 
BRANCH  14  15
ATOM     15  O   UNL     1       7.833   4.127  16.864  0.00  0.00    +0.000 OA
ATOM     16  H   UNL     1       8.760   4.415  16.747  0.00  0.00    +0.000 HD
ENDBRANCH  14  15
BRANCH  14  17
ATOM     17  C   UNL     1       7.054   4.747  14.715  0.00  0.00    +0.000 C 
ATOM     18  O   UNL     1       6.430   3.860  14.155  0.00  0.00    +0.000 OA
BRANCH  17  19
ATOM     19  O   UNL     1       7.879   5.585  14.020  0.00  0.00    +0.000 OA
ATOM     20  H   UNL     1       8.194   5.108  13.216  0.00  0.00    +0.000 HD
ENDBRANCH  17  19
ENDBRANCH  14  17
ENDBRANCH   5  14
TORSDOF 8
ENDMDL
MODEL 9
REMARK VINA RESULT:      -6.6      2.128      6.045
REMARK  Name = 
REMARK  8 active torsions:
REMARK  status: ('A' for Active; 'I' for Inactive)
REMARK    1  A    between atoms: C_2  and  O_3
REMARK    2  A    between atoms: C_2  and  C_4
REMARK    3  A    between atoms: C_4  and  O_5
REMARK    4  A    between atoms: C_4  and  C_6
REMARK    5  A    between atoms: C_10  and  C_11
REMARK    6  A    between atoms: C_11  and  O_12
REMARK    7  A    between atoms: C_11  and  C_13
REMARK    8  A    between atoms: C_13  and  O_15
REMARK                            x       y       z     vdW  Elec       q    Type
REMARK                         _______ _______ _______ _____ _____    ______ ____
ROOT
ATOM      1  C   UNL     1       5.414   4.971  16.662  0.00  0.00    +0.000 A 
ATOM      2  C   UNL     1       5.385   6.367  16.771  0.00  0.00    +0.000 A 
ATOM      3  C   UNL     1       4.299   7.001  17.370  0.00  0.00    +0.000 A 
ATOM      4  C   UNL     1       3.233   6.247  17.864  0.00  0.00    +0.000 A 
ATOM      5  C   UNL     1       3.210   4.846  17.740  0.00  0.00    +0.000 A 
ATOM      6  C   UNL     1       4.322   4.228  17.145  0.00  0.00    +0.000 A 
ENDROOT
BRANCH   1   7
ATOM      7  C   UNL     1       6.642   4.254  16.149  0.00  0.00    +0.000 C 
BRANCH   7   9
ATOM      8  O   UNL     1       7.609   5.398  14.233  0.00  0.00    +0.000 OA
ATOM      9  C   UNL     1       6.911   4.478  14.650  0.00  0.00    +0.000 C 
BRANCH   9  10
ATOM     10  O   UNL     1       6.335   3.576  13.825  0.00  0.00    +0.000 OA
ATOM     11  H   UNL     1       5.366   3.680  13.741  0.00  0.00    +0.000 HD
ENDBRANCH   9  10
ENDBRANCH   7   9
BRANCH   7  12
ATOM     12  O   UNL     1       7.730   4.654  16.980  0.00  0.00    +0.000 OA
ATOM     13  H   UNL     1       8.275   3.854  17.106  0.00  0.00    +0.000 HD
ENDBRANCH   7  12
ENDBRANCH   1   7
BRANCH   5  14
ATOM     14  C   UNL     1       2.101   4.036  18.398  0.00  0.00    +0.000 C 
BRANCH  14  15
ATOM     15  O   UNL     1       1.037   3.748  17.460  0.00  0.00    +0.000 OA
ATOM     16  H   UNL     1       0.214   4.076  17.872  0.00  0.00    +0.000 HD
ENDBRANCH  14  15
BRANCH  14  17
ATOM     17  C   UNL     1       2.477   2.666  18.997  0.00  0.00    +0.000 C 
ATOM     18  O   UNL     1       3.113   2.448  20.016  0.00  0.00    +0.000 OA
BRANCH  17  19
ATOM     19  O   UNL     1       1.957   1.648  18.250  0.00  0.00    +0.000 OA
ATOM     20  H   UNL     1       2.690   1.248  17.724  0.00  0.00    +0.000 HD
ENDBRANCH  17  19
ENDBRANCH  14  17
ENDBRANCH   5  14
TORSDOF 8
ENDMDL
