MODEL 1
REMARK VINA RESULT:      -6.7      0.000      0.000
REMARK  Name = 
REMARK  7 active torsions:
REMARK  status: ('A' for Active; 'I' for Inactive)
REMARK    1  A    between atoms: C_1  and  C_2
REMARK    2  A    between atoms: C_2  and  C_4
REMARK    3  A    between atoms: C_10  and  O_12
REMARK    4  A    between atoms: O_12  and  C_13
REMARK    5  A    between atoms: C_13  and  C_14
REMARK    6  A    between atoms: C_13  and  C_15
REMARK    7  A    between atoms: C_13  and  C_16
REMARK                            x       y       z     vdW  Elec       q    Type
REMARK                         _______ _______ _______ _____ _____    ______ ____
ROOT
ATOM      1  C   UNL     1       6.930   4.781  17.532  0.00  0.00    +0.000 C 
ATOM      2  C   UNL     1       7.330   5.336  16.154  0.00  0.00    +0.000 C 
ATOM      3  C   UNL     1       6.771   4.500  15.008  0.00  0.00    +0.000 C 
ATOM      4  C   UNL     1       5.266   4.297  15.159  0.00  0.00    +0.000 C 
ATOM      5  C   UNL     1       4.906   3.753  16.541  0.00  0.00    +0.000 C 
ATOM      6  N   UNL     1       5.467   4.599  17.593  0.00  0.00    +0.000 N 
ATOM      7  C   UNL     1       4.827   4.751  18.815  0.00  0.00    +0.000 C 
ATOM      8  O   UNL     1       5.232   5.535  19.666  0.00  0.00    +0.000 OA
ENDROOT
BRANCH   1  10
ATOM      9  C   UNL     1       7.907   7.096  18.329  0.00  0.00    +0.000 C 
ATOM     10  C   UNL     1       7.660   5.632  18.596  0.00  0.00    +0.000 C 
ATOM     11  O   UNL     1       8.171   5.086  19.581  0.00  0.00    +0.000 OA
ENDBRANCH   1  10
BRANCH   7  12
ATOM     12  O   UNL     1       3.716   3.982  18.972  0.00  0.00    +0.000 OA
BRANCH  12  13
ATOM     13  C   UNL     1       2.415   4.636  19.044  0.00  0.00    +0.000 C 
ATOM     14  C   UNL     1       2.447   5.938  18.232  0.00  0.00    +0.000 C 
ATOM     15  C   UNL     1       1.416   3.671  18.384  0.00  0.00    +0.000 C 
ATOM     16  C   UNL     1       1.930   4.870  20.486  0.00  0.00    +0.000 C 
ENDBRANCH  12  13
ENDBRANCH   7  12
TORSDOF 3
ENDMDL
MODEL 2
REMARK VINA RESULT:      -6.7      0.088      1.061
REMARK  Name = 
REMARK  7 active torsions:
REMARK  status: ('A' for Active; 'I' for Inactive)
REMARK    1  A    between atoms: C_1  and  C_2
REMARK    2  A    between atoms: C_2  and  C_4
REMARK    3  A    between atoms: C_10  and  O_12
REMARK    4  A    between atoms: O_12  and  C_13
REMARK    5  A    between atoms: C_13  and  C_14
REMARK    6  A    between atoms: C_13  and  C_15
REMARK    7  A    between atoms: C_13  and  C_16
REMARK                            x       y       z     vdW  Elec       q    Type
REMARK                         _______ _______ _______ _____ _____    ______ ____
ROOT
ATOM      1  C   UNL     1       6.927   4.779  17.532  0.00  0.00    +0.000 C 
ATOM      2  C   UNL     1       7.327   5.319  16.148  0.00  0.00    +0.000 C 
ATOM      3  C   UNL     1       6.752   4.482  15.011  0.00  0.00    +0.000 C 
ATOM      4  C   UNL     1       5.245   4.299  15.171  0.00  0.00    +0.000 C 
ATOM      5  C   UNL     1       4.886   3.769  16.558  0.00  0.00    +0.000 C 
ATOM      6  N   UNL     1       5.462   4.616  17.601  0.00  0.00    +0.000 N 
ATOM      7  C   UNL     1       4.830   4.784  18.826  0.00  0.00    +0.000 C 
ATOM      8  O   UNL     1       5.249   5.569  19.669  0.00  0.00    +0.000 OA
ENDROOT
BRANCH   1  10
ATOM      9  C   UNL     1       7.913   7.093  18.320  0.00  0.00    +0.000 C 
ATOM     10  C   UNL     1       7.673   5.628  18.587  0.00  0.00    +0.000 C 
ATOM     11  O   UNL     1       8.201   5.079  19.561  0.00  0.00    +0.000 OA
ENDBRANCH   1  10
BRANCH   7  12
ATOM     12  O   UNL     1       3.711   4.030  18.993  0.00  0.00    +0.000 OA
BRANCH  12  13
ATOM     13  C   UNL     1       2.408   4.680  18.907  0.00  0.00    +0.000 C 
ATOM     14  C   UNL     1       1.423   3.761  18.171  0.00  0.00    +0.000 C 
ATOM     15  C   UNL     1       1.924   4.858  20.355  0.00  0.00    +0.000 C 
ATOM     16  C   UNL     1       2.467   6.082  18.275  0.00  0.00    +0.000 C 
ENDBRANCH  12  13
ENDBRANCH   7  12
TORSDOF 3
ENDMDL
MODEL 3
REMARK VINA RESULT:      -6.5      0.105      1.117
REMARK  Name = 
REMARK  7 active torsions:
REMARK  status: ('A' for Active; 'I' for Inactive)
REMARK    1  A    between atoms: C_1  and  C_2
REMARK    2  A    between atoms: C_2  and  C_4
REMARK    3  A    between atoms: C_10  and  O_12
REMARK    4  A    between atoms: O_12  and  C_13
REMARK    5  A    between atoms: C_13  and  C_14
REMARK    6  A    between atoms: C_13  and  C_15
REMARK    7  A    between atoms: C_13  and  C_16
REMARK                            x       y       z     vdW  Elec       q    Type
REMARK                         _______ _______ _______ _____ _____    ______ ____
ROOT
ATOM      1  C   UNL     1       6.938   4.795  17.524  0.00  0.00    +0.000 C 
ATOM      2  C   UNL     1       7.331   5.342  16.140  0.00  0.00    +0.000 C 
ATOM      3  C   UNL     1       6.770   4.498  15.002  0.00  0.00    +0.000 C 
ATOM      4  C   UNL     1       5.266   4.292  15.160  0.00  0.00    +0.000 C 
ATOM      5  C   UNL     1       4.913   3.755  16.546  0.00  0.00    +0.000 C 
ATOM      6  N   UNL     1       5.476   4.609  17.591  0.00  0.00    +0.000 N 
ATOM      7  C   UNL     1       4.840   4.766  18.815  0.00  0.00    +0.000 C 
ATOM      8  O   UNL     1       5.246   5.557  19.659  0.00  0.00    +0.000 OA
ENDROOT
BRANCH   1  10
ATOM      9  C   UNL     1       7.903   7.119  18.307  0.00  0.00    +0.000 C 
ATOM     10  C   UNL     1       7.670   5.654  18.580  0.00  0.00    +0.000 C 
ATOM     11  O   UNL     1       8.193   5.114  19.562  0.00  0.00    +0.000 OA
ENDBRANCH   1  10
BRANCH   7  12
ATOM     12  O   UNL     1       3.732   3.996  18.980  0.00  0.00    +0.000 OA
BRANCH  12  13
ATOM     13  C   UNL     1       2.422   4.636  18.959  0.00  0.00    +0.000 C 
ATOM     14  C   UNL     1       1.936   4.859  20.398  0.00  0.00    +0.000 C 
ATOM     15  C   UNL     1       2.628   6.006  18.293  0.00  0.00    +0.000 C 
ATOM     16  C   UNL     1       1.385   3.874  18.115  0.00  0.00    +0.000 C 
ENDBRANCH  12  13
ENDBRANCH   7  12
TORSDOF 3
ENDMDL
MODEL 4
REMARK VINA RESULT:      -6.5      1.036      1.429
REMARK  Name = 
REMARK  7 active torsions:
REMARK  status: ('A' for Active; 'I' for Inactive)
REMARK    1  A    between atoms: C_1  and  C_2
REMARK    2  A    between atoms: C_2  and  C_4
REMARK    3  A    between atoms: C_10  and  O_12
REMARK    4  A    between atoms: O_12  and  C_13
REMARK    5  A    between atoms: C_13  and  C_14
REMARK    6  A    between atoms: C_13  and  C_15
REMARK    7  A    between atoms: C_13  and  C_16
REMARK                            x       y       z     vdW  Elec       q    Type
REMARK                         _______ _______ _______ _____ _____    ______ ____
ROOT
ATOM      1  C   UNL     1       6.625   4.754  17.719  0.00  0.00    +0.000 C 
ATOM      2  C   UNL     1       7.254   5.217  16.393  0.00  0.00    +0.000 C 
ATOM      3  C   UNL     1       6.797   4.373  15.208  0.00  0.00    +0.000 C 
ATOM      4  C   UNL     1       5.274   4.286  15.151  0.00  0.00    +0.000 C 
ATOM      5  C   UNL     1       4.685   3.831  16.485  0.00  0.00    +0.000 C 
ATOM      6  N   UNL     1       5.158   4.681  17.577  0.00  0.00    +0.000 N 
ATOM      7  C   UNL     1       4.367   4.932  18.690  0.00  0.00    +0.000 C 
ATOM      8  O   UNL     1       4.710   5.722  19.563  0.00  0.00    +0.000 OA
ENDROOT
BRANCH   1  10
ATOM      9  C   UNL     1       7.873   6.935  18.513  0.00  0.00    +0.000 C 
ATOM     10  C   UNL     1       7.263   5.597  18.846  0.00  0.00    +0.000 C 
ATOM     11  O   UNL     1       7.411   5.111  19.974  0.00  0.00    +0.000 OA
ENDBRANCH   1  10
BRANCH   7  12
ATOM     12  O   UNL     1       3.190   4.253  18.713  0.00  0.00    +0.000 OA
BRANCH  12  13
ATOM     13  C   UNL     1       3.018   3.178  19.682  0.00  0.00    +0.000 C 
ATOM     14  C   UNL     1       2.366   3.732  20.956  0.00  0.00    +0.000 C 
ATOM     15  C   UNL     1       2.053   2.171  19.035  0.00  0.00    +0.000 C 
ATOM     16  C   UNL     1       4.322   2.420  19.988  0.00  0.00    +0.000 C 
ENDBRANCH  12  13
ENDBRANCH   7  12
TORSDOF 3
ENDMDL
MODEL 5
REMARK VINA RESULT:      -6.2      1.009      1.574
REMARK  Name = 
REMARK  7 active torsions:
REMARK  status: ('A' for Active; 'I' for Inactive)
REMARK    1  A    between atoms: C_1  and  C_2
REMARK    2  A    between atoms: C_2  and  C_4
REMARK    3  A    between atoms: C_10  and  O_12
REMARK    4  A    between atoms: O_12  and  C_13
REMARK    5  A    between atoms: C_13  and  C_14
REMARK    6  A    between atoms: C_13  and  C_15
REMARK    7  A    between atoms: C_13  and  C_16
REMARK                            x       y       z     vdW  Elec       q    Type
REMARK                         _______ _______ _______ _____ _____    ______ ____
ROOT
ATOM      1  C   UNL     1       6.604   4.759  17.704  0.00  0.00    +0.000 C 
ATOM      2  C   UNL     1       7.257   5.221  16.389  0.00  0.00    +0.000 C 
ATOM      3  C   UNL     1       6.807   4.387  15.194  0.00  0.00    +0.000 C 
ATOM      4  C   UNL     1       5.285   4.318  15.115  0.00  0.00    +0.000 C 
ATOM      5  C   UNL     1       4.671   3.864  16.439  0.00  0.00    +0.000 C 
ATOM      6  N   UNL     1       5.139   4.703  17.541  0.00  0.00    +0.000 N 
ATOM      7  C   UNL     1       4.336   4.959  18.645  0.00  0.00    +0.000 C 
ATOM      8  O   UNL     1       4.675   5.741  19.526  0.00  0.00    +0.000 OA
ENDROOT
BRANCH   1  10
ATOM      9  C   UNL     1       7.868   6.921  18.525  0.00  0.00    +0.000 C 
ATOM     10  C   UNL     1       7.236   5.589  18.844  0.00  0.00    +0.000 C 
ATOM     11  O   UNL     1       7.361   5.097  19.972  0.00  0.00    +0.000 OA
ENDBRANCH   1  10
BRANCH   7  12
ATOM     12  O   UNL     1       3.150   4.293  18.648  0.00  0.00    +0.000 OA
BRANCH  12  13
ATOM     13  C   UNL     1       2.964   3.197  19.591  0.00  0.00    +0.000 C 
ATOM     14  C   UNL     1       4.325   2.578  19.937  0.00  0.00    +0.000 C 
ATOM     15  C   UNL     1       2.374   3.825  20.864  0.00  0.00    +0.000 C 
ATOM     16  C   UNL     1       1.959   2.138  19.103  0.00  0.00    +0.000 C 
ENDBRANCH  12  13
ENDBRANCH   7  12
TORSDOF 3
ENDMDL
MODEL 6
REMARK VINA RESULT:      -6.2      0.968      1.406
REMARK  Name = 
REMARK  7 active torsions:
REMARK  status: ('A' for Active; 'I' for Inactive)
REMARK    1  A    between atoms: C_1  and  C_2
REMARK    2  A    between atoms: C_2  and  C_4
REMARK    3  A    between atoms: C_10  and  O_12
REMARK    4  A    between atoms: O_12  and  C_13
REMARK    5  A    between atoms: C_13  and  C_14
REMARK    6  A    between atoms: C_13  and  C_15
REMARK    7  A    between atoms: C_13  and  C_16
REMARK                            x       y       z     vdW  Elec       q    Type
REMARK                         _______ _______ _______ _____ _____    ______ ____
ROOT
ATOM      1  C   UNL     1       6.589   4.760  17.688  0.00  0.00    +0.000 C 
ATOM      2  C   UNL     1       7.266   5.205  16.379  0.00  0.00    +0.000 C 
ATOM      3  C   UNL     1       6.822   4.369  15.183  0.00  0.00    +0.000 C 
ATOM      4  C   UNL     1       5.300   4.318  15.083  0.00  0.00    +0.000 C 
ATOM      5  C   UNL     1       4.663   3.881  16.401  0.00  0.00    +0.000 C 
ATOM      6  N   UNL     1       5.125   4.722  17.504  0.00  0.00    +0.000 N 
ATOM      7  C   UNL     1       4.310   4.995  18.594  0.00  0.00    +0.000 C 
ATOM      8  O   UNL     1       4.646   5.778  19.475  0.00  0.00    +0.000 OA
ENDROOT
BRANCH   1  10
ATOM      9  C   UNL     1       7.855   6.918  18.514  0.00  0.00    +0.000 C 
ATOM     10  C   UNL     1       7.215   5.590  18.831  0.00  0.00    +0.000 C 
ATOM     11  O   UNL     1       7.328   5.100  19.961  0.00  0.00    +0.000 OA
ENDBRANCH   1  10
BRANCH   7  12
ATOM     12  O   UNL     1       3.116   4.344  18.585  0.00  0.00    +0.000 OA
BRANCH  12  13
ATOM     13  C   UNL     1       2.843   3.364  19.629  0.00  0.00    +0.000 C 
ATOM     14  C   UNL     1       1.832   2.331  19.113  0.00  0.00    +0.000 C 
ATOM     15  C   UNL     1       4.176   2.650  19.904  0.00  0.00    +0.000 C 
ATOM     16  C   UNL     1       2.389   3.998  20.956  0.00  0.00    +0.000 C 
ENDBRANCH  12  13
ENDBRANCH   7  12
TORSDOF 3
ENDMDL
MODEL 7
REMARK VINA RESULT:      -6.2      1.663      3.190
REMARK  Name = 
REMARK  7 active torsions:
REMARK  status: ('A' for Active; 'I' for Inactive)
REMARK    1  A    between atoms: C_1  and  C_2
REMARK    2  A    between atoms: C_2  and  C_4
REMARK    3  A    between atoms: C_10  and  O_12
REMARK    4  A    between atoms: O_12  and  C_13
REMARK    5  A    between atoms: C_13  and  C_14
REMARK    6  A    between atoms: C_13  and  C_15
REMARK    7  A    between atoms: C_13  and  C_16
REMARK                            x       y       z     vdW  Elec       q    Type
REMARK                         _______ _______ _______ _____ _____    ______ ____
ROOT
ATOM      1  C   UNL     1       6.025   6.109  17.024  0.00  0.00    +0.000 C 
ATOM      2  C   UNL     1       7.541   6.325  17.175  0.00  0.00    +0.000 C 
ATOM      3  C   UNL     1       7.944   6.619  18.616  0.00  0.00    +0.000 C 
ATOM      4  C   UNL     1       7.391   5.562  19.568  0.00  0.00    +0.000 C 
ATOM      5  C   UNL     1       5.886   5.370  19.384  0.00  0.00    +0.000 C 
ATOM      6  N   UNL     1       5.567   5.087  17.985  0.00  0.00    +0.000 N 
ATOM      7  C   UNL     1       4.492   4.281  17.639  0.00  0.00    +0.000 C 
ATOM      8  O   UNL     1       4.274   3.954  16.478  0.00  0.00    +0.000 OA
ENDROOT
BRANCH   1  10
ATOM      9  C   UNL     1       6.537   4.963  14.707  0.00  0.00    +0.000 C 
ATOM     10  C   UNL     1       5.734   5.952  15.514  0.00  0.00    +0.000 C 
ATOM     11  O   UNL     1       4.963   6.736  14.948  0.00  0.00    +0.000 OA
ENDBRANCH   1  10
BRANCH   7  12
ATOM     12  O   UNL     1       3.729   3.873  18.688  0.00  0.00    +0.000 OA
BRANCH  12  13
ATOM     13  C   UNL     1       2.413   4.472  18.874  0.00  0.00    +0.000 C 
ATOM     14  C   UNL     1       1.336   3.526  18.324  0.00  0.00    +0.000 C 
ATOM     15  C   UNL     1       2.217   4.609  20.392  0.00  0.00    +0.000 C 
ATOM     16  C   UNL     1       2.297   5.885  18.275  0.00  0.00    +0.000 C 
ENDBRANCH  12  13
ENDBRANCH   7  12
TORSDOF 3
ENDMDL
MODEL 8
REMARK VINA RESULT:      -6.1      1.621      4.855
REMARK  Name = 
REMARK  7 active torsions:
REMARK  status: ('A' for Active; 'I' for Inactive)
REMARK    1  A    between atoms: C_1  and  C_2
REMARK    2  A    between atoms: C_2  and  C_4
REMARK    3  A    between atoms: C_10  and  O_12
REMARK    4  A    between atoms: O_12  and  C_13
REMARK    5  A    between atoms: C_13  and  C_14
REMARK    6  A    between atoms: C_13  and  C_15
REMARK    7  A    between atoms: C_13  and  C_16
REMARK                            x       y       z     vdW  Elec       q    Type
REMARK                         _______ _______ _______ _____ _____    ______ ____
ROOT
ATOM      1  C   UNL     1       2.466   4.684  18.620  0.00  0.00    +0.000 C 
ATOM      2  C   UNL     1       1.510   3.601  19.150  0.00  0.00    +0.000 C 
ATOM      3  C   UNL     1       1.534   2.338  18.295  0.00  0.00    +0.000 C 
ATOM      4  C   UNL     1       2.961   1.834  18.099  0.00  0.00    +0.000 C 
ATOM      5  C   UNL     1       3.882   2.937  17.580  0.00  0.00    +0.000 C 
ATOM      6  N   UNL     1       3.816   4.116  18.444  0.00  0.00    +0.000 N 
ATOM      7  C   UNL     1       4.916   4.944  18.618  0.00  0.00    +0.000 C 
ATOM      8  O   UNL     1       4.906   5.875  19.416  0.00  0.00    +0.000 OA
ENDROOT
BRANCH   1  10
ATOM      9  C   UNL     1       1.815   5.790  20.922  0.00  0.00    +0.000 C 
ATOM     10  C   UNL     1       2.253   5.945  19.487  0.00  0.00    +0.000 C 
ATOM     11  O   UNL     1       2.290   7.067  18.967  0.00  0.00    +0.000 OA
ENDBRANCH   1  10
BRANCH   7  12
ATOM     12  O   UNL     1       5.995   4.622  17.855  0.00  0.00    +0.000 OA
BRANCH  12  13
ATOM     13  C   UNL     1       6.375   5.512  16.765  0.00  0.00    +0.000 C 
ATOM     14  C   UNL     1       7.377   6.555  17.278  0.00  0.00    +0.000 C 
ATOM     15  C   UNL     1       7.077   4.630  15.720  0.00  0.00    +0.000 C 
ATOM     16  C   UNL     1       5.171   6.167  16.066  0.00  0.00    +0.000 C 
ENDBRANCH  12  13
ENDBRANCH   7  12
TORSDOF 3
ENDMDL
MODEL 9
REMARK VINA RESULT:      -6.1      1.659      3.005
REMARK  Name = 
REMARK  7 active torsions:
REMARK  status: ('A' for Active; 'I' for Inactive)
REMARK    1  A    between atoms: C_1  and  C_2
REMARK    2  A    between atoms: C_2  and  C_4
REMARK    3  A    between atoms: C_10  and  O_12
REMARK    4  A    between atoms: O_12  and  C_13
REMARK    5  A    between atoms: C_13  and  C_14
REMARK    6  A    between atoms: C_13  and  C_15
REMARK    7  A    between atoms: C_13  and  C_16
REMARK                            x       y       z     vdW  Elec       q    Type
REMARK                         _______ _______ _______ _____ _____    ______ ____
ROOT
ATOM      1  C   UNL     1       5.980   6.131  17.057  0.00  0.00    +0.000 C 
ATOM      2  C   UNL     1       7.498   6.343  17.186  0.00  0.00    +0.000 C 
ATOM      3  C   UNL     1       7.927   6.608  18.625  0.00  0.00    +0.000 C 
ATOM      4  C   UNL     1       7.390   5.532  19.565  0.00  0.00    +0.000 C 
ATOM      5  C   UNL     1       5.882   5.344  19.404  0.00  0.00    +0.000 C 
ATOM      6  N   UNL     1       5.538   5.091  18.006  0.00  0.00    +0.000 N 
ATOM      7  C   UNL     1       4.456   4.292  17.662  0.00  0.00    +0.000 C 
ATOM      8  O   UNL     1       4.218   3.989  16.498  0.00  0.00    +0.000 OA
ENDROOT
BRANCH   1  10
ATOM      9  C   UNL     1       6.418   4.999  14.718  0.00  0.00    +0.000 C 
ATOM     10  C   UNL     1       5.662   6.005  15.550  0.00  0.00    +0.000 C 
ATOM     11  O   UNL     1       4.912   6.823  15.005  0.00  0.00    +0.000 OA
ENDBRANCH   1  10
BRANCH   7  12
ATOM     12  O   UNL     1       3.712   3.864  18.716  0.00  0.00    +0.000 OA
BRANCH  12  13
ATOM     13  C   UNL     1       2.409   4.475  18.950  0.00  0.00    +0.000 C 
ATOM     14  C   UNL     1       2.338   5.827  18.226  0.00  0.00    +0.000 C 
ATOM     15  C   UNL     1       1.374   3.528  18.322  0.00  0.00    +0.000 C 
ATOM     16  C   UNL     1       2.055   4.604  20.442  0.00  0.00    +0.000 C 
ENDBRANCH  12  13
ENDBRANCH   7  12
TORSDOF 3
ENDMDL
