MODEL 1
REMARK VINA RESULT:      -5.9      0.000      0.000
REMARK  Name = 
REMARK  4 active torsions:
REMARK  status: ('A' for Active; 'I' for Inactive)
REMARK    1  A    between atoms: C_1  and  N_2
REMARK    2  A    between atoms: C_3  and  S_4
REMARK    3  A    between atoms: C_3  and  C_5
REMARK    4  A    between atoms: C_5  and  C_6
REMARK                            x       y       z     vdW  Elec       q    Type
REMARK                         _______ _______ _______ _____ _____    ______ ____
ROOT
ATOM      1  C   UNL     1       3.148   4.671  18.443  0.00  0.00    +0.000 C 
ATOM      2  C   UNL     1       2.144   3.912  17.538  0.00  0.00    +0.000 C 
ATOM      3  C   UNL     1       2.423   2.420  17.691  0.00  0.00    +0.000 C 
ATOM      4  C   UNL     1       2.479   2.115  19.175  0.00  0.00    +0.000 C 
ATOM      5  S   UNL     1       2.926   3.660  20.001  0.00  0.00    +0.000 S 
ENDROOT
BRANCH   1   6
ATOM      6  C   UNL     1       4.585   4.592  17.905  0.00  0.00    +0.000 A 
ATOM      7  C   UNL     1       4.869   4.493  16.536  0.00  0.00    +0.000 A 
ATOM      8  C   UNL     1       6.183   4.469  16.075  0.00  0.00    +0.000 A 
ATOM      9  C   UNL     1       7.199   4.524  17.003  0.00  0.00    +0.000 A 
ATOM     10  N   UNL     1       6.987   4.579  18.335  0.00  0.00    +0.000 NA
ATOM     11  C   UNL     1       5.700   4.601  18.751  0.00  0.00    +0.000 A 
ENDBRANCH   1   6
BRANCH   1  14
ATOM     12  C   UNL     1       2.387   8.417  18.049  0.00  0.00    +0.000 C 
ATOM     13  N   UNL     1       2.861   7.056  17.857  0.00  0.00    +0.000 NA
ATOM     14  C   UNL     1       2.696   6.135  18.745  0.00  0.00    +0.000 C 
BRANCH  14  15
ATOM     15  S   UNL     1       1.958   6.420  20.333  0.00  0.00    +0.000 S 
ATOM     16  H   UNL     1       2.707   5.573  21.044  0.00  0.00    +0.000 HD
ENDBRANCH  14  15
ENDBRANCH   1  14
TORSDOF 3
ENDMDL
MODEL 2
REMARK VINA RESULT:      -5.9      0.964      1.000
REMARK  Name = 
REMARK  4 active torsions:
REMARK  status: ('A' for Active; 'I' for Inactive)
REMARK    1  A    between atoms: C_1  and  N_2
REMARK    2  A    between atoms: C_3  and  S_4
REMARK    3  A    between atoms: C_3  and  C_5
REMARK    4  A    between atoms: C_5  and  C_6
REMARK                            x       y       z     vdW  Elec       q    Type
REMARK                         _______ _______ _______ _____ _____    ______ ____
ROOT
ATOM      1  C   UNL     1       3.728   4.372  18.081  0.00  0.00    +0.000 C 
ATOM      2  C   UNL     1       2.630   3.430  17.524  0.00  0.00    +0.000 C 
ATOM      3  C   UNL     1       3.152   2.000  17.629  0.00  0.00    +0.000 C 
ATOM      4  C   UNL     1       3.668   1.804  19.041  0.00  0.00    +0.000 C 
ATOM      5  S   UNL     1       4.102   3.445  19.663  0.00  0.00    +0.000 S 
ENDROOT
BRANCH   1   6
ATOM      6  C   UNL     1       4.951   4.445  17.155  0.00  0.00    +0.000 A 
ATOM      7  C   UNL     1       4.840   4.370  15.759  0.00  0.00    +0.000 A 
ATOM      8  C   UNL     1       5.963   4.486  14.942  0.00  0.00    +0.000 A 
ATOM      9  C   UNL     1       7.191   4.655  15.544  0.00  0.00    +0.000 A 
ATOM     10  N   UNL     1       7.364   4.694  16.882  0.00  0.00    +0.000 NA
ATOM     11  C   UNL     1       6.254   4.578  17.648  0.00  0.00    +0.000 A 
ENDBRANCH   1   6
BRANCH   1  14
ATOM     12  C   UNL     1       2.804   8.098  17.936  0.00  0.00    +0.000 C 
ATOM     13  N   UNL     1       3.365   6.783  17.674  0.00  0.00    +0.000 NA
ATOM     14  C   UNL     1       3.174   5.780  18.463  0.00  0.00    +0.000 C 
BRANCH  14  15
ATOM     15  S   UNL     1       2.288   5.890  19.996  0.00  0.00    +0.000 S 
ATOM     16  H   UNL     1       2.773   4.787  20.574  0.00  0.00    +0.000 HD
ENDBRANCH  14  15
ENDBRANCH   1  14
TORSDOF 3
ENDMDL
MODEL 3
REMARK VINA RESULT:      -5.9      1.285      1.290
REMARK  Name = 
REMARK  4 active torsions:
REMARK  status: ('A' for Active; 'I' for Inactive)
REMARK    1  A    between atoms: C_1  and  N_2
REMARK    2  A    between atoms: C_3  and  S_4
REMARK    3  A    between atoms: C_3  and  C_5
REMARK    4  A    between atoms: C_5  and  C_6
REMARK                            x       y       z     vdW  Elec       q    Type
REMARK                         _______ _______ _______ _____ _____    ______ ____
ROOT
ATOM      1  C   UNL     1       2.913   4.783  18.766  0.00  0.00    +0.000 C 
ATOM      2  C   UNL     1       1.891   4.112  17.812  0.00  0.00    +0.000 C 
ATOM      3  C   UNL     1       2.119   2.605  17.880  0.00  0.00    +0.000 C 
ATOM      4  C   UNL     1       2.153   2.213  19.344  0.00  0.00    +0.000 C 
ATOM      5  S   UNL     1       2.644   3.692  20.262  0.00  0.00    +0.000 S 
ENDROOT
BRANCH   1   6
ATOM      6  C   UNL     1       4.350   4.687  18.234  0.00  0.00    +0.000 A 
ATOM      7  C   UNL     1       4.636   4.538  16.870  0.00  0.00    +0.000 A 
ATOM      8  C   UNL     1       5.951   4.500  16.412  0.00  0.00    +0.000 A 
ATOM      9  C   UNL     1       6.966   4.590  17.340  0.00  0.00    +0.000 A 
ATOM     10  N   UNL     1       6.752   4.694  18.668  0.00  0.00    +0.000 NA
ATOM     11  C   UNL     1       5.463   4.728  19.081  0.00  0.00    +0.000 A 
ENDBRANCH   1   6
BRANCH   1  14
ATOM     12  C   UNL     1       1.632   7.822  20.739  0.00  0.00    +0.000 C 
ATOM     13  N   UNL     1       1.957   6.476  20.293  0.00  0.00    +0.000 NA
ATOM     14  C   UNL     1       2.507   6.241  19.150  0.00  0.00    +0.000 C 
BRANCH  14  15
ATOM     15  S   UNL     1       2.856   7.499  17.948  0.00  0.00    +0.000 S 
ATOM     16  H   UNL     1       2.465   6.832  16.859  0.00  0.00    +0.000 HD
ENDBRANCH  14  15
ENDBRANCH   1  14
TORSDOF 3
ENDMDL
MODEL 4
REMARK VINA RESULT:      -5.7      2.230      3.702
REMARK  Name = 
REMARK  4 active torsions:
REMARK  status: ('A' for Active; 'I' for Inactive)
REMARK    1  A    between atoms: C_1  and  N_2
REMARK    2  A    between atoms: C_3  and  S_4
REMARK    3  A    between atoms: C_3  and  C_5
REMARK    4  A    between atoms: C_5  and  C_6
REMARK                            x       y       z     vdW  Elec       q    Type
REMARK                         _______ _______ _______ _____ _____    ______ ____
ROOT
ATOM      1  C   UNL     1       4.201   4.239  18.368  0.00  0.00    +0.000 C 
ATOM      2  C   UNL     1       4.307   5.406  19.384  0.00  0.00    +0.000 C 
ATOM      3  C   UNL     1       3.774   6.661  18.701  0.00  0.00    +0.000 C 
ATOM      4  C   UNL     1       2.431   6.315  18.089  0.00  0.00    +0.000 C 
ATOM      5  S   UNL     1       2.439   4.529  17.807  0.00  0.00    +0.000 S 
ENDROOT
BRANCH   1   6
ATOM      6  C   UNL     1       5.204   4.384  17.214  0.00  0.00    +0.000 A 
ATOM      7  C   UNL     1       4.816   4.309  15.869  0.00  0.00    +0.000 A 
ATOM      8  C   UNL     1       5.741   4.490  14.844  0.00  0.00    +0.000 A 
ATOM      9  C   UNL     1       7.055   4.723  15.187  0.00  0.00    +0.000 A 
ATOM     10  N   UNL     1       7.494   4.765  16.462  0.00  0.00    +0.000 NA
ATOM     11  C   UNL     1       6.571   4.586  17.435  0.00  0.00    +0.000 A 
ENDBRANCH   1   6
BRANCH   1  14
ATOM     12  C   UNL     1       5.012   1.419  20.848  0.00  0.00    +0.000 C 
ATOM     13  N   UNL     1       4.976   2.677  20.120  0.00  0.00    +0.000 NA
ATOM     14  C   UNL     1       4.268   2.838  19.054  0.00  0.00    +0.000 C 
BRANCH  14  15
ATOM     15  S   UNL     1       3.324   1.542  18.294  0.00  0.00    +0.000 S 
ATOM     16  H   UNL     1       4.201   0.548  18.462  0.00  0.00    +0.000 HD
ENDBRANCH  14  15
ENDBRANCH   1  14
TORSDOF 3
ENDMDL
MODEL 5
REMARK VINA RESULT:      -5.7      1.506      1.540
REMARK  Name = 
REMARK  4 active torsions:
REMARK  status: ('A' for Active; 'I' for Inactive)
REMARK    1  A    between atoms: C_1  and  N_2
REMARK    2  A    between atoms: C_3  and  S_4
REMARK    3  A    between atoms: C_3  and  C_5
REMARK    4  A    between atoms: C_5  and  C_6
REMARK                            x       y       z     vdW  Elec       q    Type
REMARK                         _______ _______ _______ _____ _____    ______ ____
ROOT
ATOM      1  C   UNL     1       3.747   4.433  18.044  0.00  0.00    +0.000 C 
ATOM      2  C   UNL     1       2.595   3.572  17.466  0.00  0.00    +0.000 C 
ATOM      3  C   UNL     1       3.038   2.114  17.520  0.00  0.00    +0.000 C 
ATOM      4  C   UNL     1       3.552   1.842  18.920  0.00  0.00    +0.000 C 
ATOM      5  S   UNL     1       4.081   3.436  19.592  0.00  0.00    +0.000 S 
ENDROOT
BRANCH   1   6
ATOM      6  C   UNL     1       4.966   4.471  17.109  0.00  0.00    +0.000 A 
ATOM      7  C   UNL     1       4.844   4.396  15.715  0.00  0.00    +0.000 A 
ATOM      8  C   UNL     1       5.963   4.479  14.891  0.00  0.00    +0.000 A 
ATOM      9  C   UNL     1       7.200   4.613  15.484  0.00  0.00    +0.000 A 
ATOM     10  N   UNL     1       7.383   4.648  16.821  0.00  0.00    +0.000 NA
ATOM     11  C   UNL     1       6.275   4.566  17.594  0.00  0.00    +0.000 A 
ENDBRANCH   1   6
BRANCH   1  14
ATOM     12  C   UNL     1       2.121   7.303  20.015  0.00  0.00    +0.000 C 
ATOM     13  N   UNL     1       2.525   5.998  19.517  0.00  0.00    +0.000 NA
ATOM     14  C   UNL     1       3.274   5.857  18.477  0.00  0.00    +0.000 C 
BRANCH  14  15
ATOM     15  S   UNL     1       3.833   7.211  17.475  0.00  0.00    +0.000 S 
ATOM     16  H   UNL     1       3.201   6.883  16.345  0.00  0.00    +0.000 HD
ENDBRANCH  14  15
ENDBRANCH   1  14
TORSDOF 3
ENDMDL
MODEL 6
REMARK VINA RESULT:      -5.6      0.858      1.292
REMARK  Name = 
REMARK  4 active torsions:
REMARK  status: ('A' for Active; 'I' for Inactive)
REMARK    1  A    between atoms: C_1  and  N_2
REMARK    2  A    between atoms: C_3  and  S_4
REMARK    3  A    between atoms: C_3  and  C_5
REMARK    4  A    between atoms: C_5  and  C_6
REMARK                            x       y       z     vdW  Elec       q    Type
REMARK                         _______ _______ _______ _____ _____    ______ ____
ROOT
ATOM      1  C   UNL     1       3.311   4.446  18.371  0.00  0.00    +0.000 C 
ATOM      2  C   UNL     1       2.294   3.644  17.519  0.00  0.00    +0.000 C 
ATOM      3  C   UNL     1       2.708   2.177  17.567  0.00  0.00    +0.000 C 
ATOM      4  C   UNL     1       2.928   1.810  19.021  0.00  0.00    +0.000 C 
ATOM      5  S   UNL     1       3.320   3.349  19.886  0.00  0.00    +0.000 S 
ENDROOT
BRANCH   1   6
ATOM      6  C   UNL     1       4.694   4.518  17.704  0.00  0.00    +0.000 A 
ATOM      7  C   UNL     1       5.876   4.665  18.443  0.00  0.00    +0.000 A 
ATOM      8  C   UNL     1       7.118   4.681  17.813  0.00  0.00    +0.000 A 
ATOM      9  C   UNL     1       7.154   4.571  16.440  0.00  0.00    +0.000 A 
ATOM     10  N   UNL     1       6.048   4.469  15.674  0.00  0.00    +0.000 NA
ATOM     11  C   UNL     1       4.856   4.456  16.315  0.00  0.00    +0.000 A 
ENDBRANCH   1   6
BRANCH   1  14
ATOM     12  C   UNL     1       2.344   8.164  18.291  0.00  0.00    +0.000 C 
ATOM     13  N   UNL     1       2.899   6.854  17.991  0.00  0.00    +0.000 NA
ATOM     14  C   UNL     1       2.770   5.849  18.790  0.00  0.00    +0.000 C 
BRANCH  14  15
ATOM     15  S   UNL     1       1.984   5.949  20.378  0.00  0.00    +0.000 S 
ATOM     16  H   UNL     1       2.841   6.792  20.959  0.00  0.00    +0.000 HD
ENDBRANCH  14  15
ENDBRANCH   1  14
TORSDOF 3
ENDMDL
MODEL 7
REMARK VINA RESULT:      -5.6      2.881      4.447
REMARK  Name = 
REMARK  4 active torsions:
REMARK  status: ('A' for Active; 'I' for Inactive)
REMARK    1  A    between atoms: C_1  and  N_2
REMARK    2  A    between atoms: C_3  and  S_4
REMARK    3  A    between atoms: C_3  and  C_5
REMARK    4  A    between atoms: C_5  and  C_6
REMARK                            x       y       z     vdW  Elec       q    Type
REMARK                         _______ _______ _______ _____ _____    ______ ____
ROOT
ATOM      1  C   UNL     1       6.089   5.486  17.024  0.00  0.00    +0.000 C 
ATOM      2  C   UNL     1       6.841   4.253  16.460  0.00  0.00    +0.000 C 
ATOM      3  C   UNL     1       5.926   3.581  15.441  0.00  0.00    +0.000 C 
ATOM      4  C   UNL     1       5.427   4.656  14.496  0.00  0.00    +0.000 C 
ATOM      5  S   UNL     1       5.516   6.219  15.400  0.00  0.00    +0.000 S 
ENDROOT
BRANCH   1   6
ATOM      6  C   UNL     1       4.909   5.082  17.921  0.00  0.00    +0.000 A 
ATOM      7  C   UNL     1       3.689   5.772  17.911  0.00  0.00    +0.000 A 
ATOM      8  C   UNL     1       2.621   5.355  18.702  0.00  0.00    +0.000 A 
ATOM      9  C   UNL     1       2.804   4.257  19.515  0.00  0.00    +0.000 A 
ATOM     10  N   UNL     1       3.967   3.579  19.597  0.00  0.00    +0.000 NA
ATOM     11  C   UNL     1       4.985   4.009  18.816  0.00  0.00    +0.000 A 
ENDBRANCH   1   6
BRANCH   1  14
ATOM     12  C   UNL     1       8.003   8.714  17.847  0.00  0.00    +0.000 C 
ATOM     13  N   UNL     1       7.190   7.691  17.209  0.00  0.00    +0.000 NA
ATOM     14  C   UNL     1       7.046   6.511  17.709  0.00  0.00    +0.000 C 
BRANCH  14  15
ATOM     15  S   UNL     1       7.877   5.955  19.175  0.00  0.00    +0.000 S 
ATOM     16  H   UNL     1       6.880   5.234  19.695  0.00  0.00    +0.000 HD
ENDBRANCH  14  15
ENDBRANCH   1  14
TORSDOF 3
ENDMDL
MODEL 8
REMARK VINA RESULT:      -5.5      2.025      4.230
REMARK  Name = 
REMARK  4 active torsions:
REMARK  status: ('A' for Active; 'I' for Inactive)
REMARK    1  A    between atoms: C_1  and  N_2
REMARK    2  A    between atoms: C_3  and  S_4
REMARK    3  A    between atoms: C_3  and  C_5
REMARK    4  A    between atoms: C_5  and  C_6
REMARK                            x       y       z     vdW  Elec       q    Type
REMARK                         _______ _______ _______ _____ _____    ______ ____
ROOT
ATOM      1  C   UNL     1       4.423   4.698  18.517  0.00  0.00    +0.000 C 
ATOM      2  C   UNL     1       4.012   3.610  19.543  0.00  0.00    +0.000 C 
ATOM      3  C   UNL     1       2.631   3.101  19.145  0.00  0.00    +0.000 C 
ATOM      4  C   UNL     1       2.675   2.764  17.667  0.00  0.00    +0.000 C 
ATOM      5  S   UNL     1       3.998   3.768  16.951  0.00  0.00    +0.000 S 
ENDROOT
BRANCH   1   6
ATOM      6  C   UNL     1       3.591   5.980  18.669  0.00  0.00    +0.000 A 
ATOM      7  C   UNL     1       3.566   6.979  17.686  0.00  0.00    +0.000 A 
ATOM      8  C   UNL     1       2.766   8.110  17.831  0.00  0.00    +0.000 A 
ATOM      9  C   UNL     1       2.014   8.232  18.980  0.00  0.00    +0.000 A 
ATOM     10  N   UNL     1       2.029   7.324  19.978  0.00  0.00    +0.000 NA
ATOM     11  C   UNL     1       2.817   6.236  19.807  0.00  0.00    +0.000 A 
ENDBRANCH   1   6
BRANCH   1  14
ATOM     12  C   UNL     1       7.978   5.582  19.676  0.00  0.00    +0.000 C 
ATOM     13  N   UNL     1       6.540   5.388  19.593  0.00  0.00    +0.000 NA
ATOM     14  C   UNL     1       5.960   4.972  18.517  0.00  0.00    +0.000 C 
BRANCH  14  15
ATOM     15  S   UNL     1       6.815   4.671  16.992  0.00  0.00    +0.000 S 
ATOM     16  H   UNL     1       7.587   5.761  16.990  0.00  0.00    +0.000 HD
ENDBRANCH  14  15
ENDBRANCH   1  14
TORSDOF 3
ENDMDL
MODEL 9
REMARK VINA RESULT:      -5.5      1.388      1.508
REMARK  Name = 
REMARK  4 active torsions:
REMARK  status: ('A' for Active; 'I' for Inactive)
REMARK    1  A    between atoms: C_1  and  N_2
REMARK    2  A    between atoms: C_3  and  S_4
REMARK    3  A    between atoms: C_3  and  C_5
REMARK    4  A    between atoms: C_5  and  C_6
REMARK                            x       y       z     vdW  Elec       q    Type
REMARK                         _______ _______ _______ _____ _____    ______ ____
ROOT
ATOM      1  C   UNL     1       3.702   5.379  18.513  0.00  0.00    +0.000 C 
ATOM      2  C   UNL     1       3.290   4.582  17.249  0.00  0.00    +0.000 C 
ATOM      3  C   UNL     1       3.840   3.167  17.397  0.00  0.00    +0.000 C 
ATOM      4  C   UNL     1       3.440   2.662  18.770  0.00  0.00    +0.000 C 
ATOM      5  S   UNL     1       3.190   4.125  19.803  0.00  0.00    +0.000 S 
ENDROOT
BRANCH   1   6
ATOM      6  C   UNL     1       5.212   5.661  18.552  0.00  0.00    +0.000 A 
ATOM      7  C   UNL     1       5.866   6.380  17.542  0.00  0.00    +0.000 A 
ATOM      8  C   UNL     1       7.228   6.660  17.628  0.00  0.00    +0.000 A 
ATOM      9  C   UNL     1       7.922   6.191  18.722  0.00  0.00    +0.000 A 
ATOM     10  N   UNL     1       7.354   5.459  19.703  0.00  0.00    +0.000 NA
ATOM     11  C   UNL     1       6.029   5.204  19.592  0.00  0.00    +0.000 A 
ENDBRANCH   1   6
BRANCH   1  14
ATOM     12  C   UNL     1       1.927   8.728  17.882  0.00  0.00    +0.000 C 
ATOM     13  N   UNL     1       2.775   7.551  17.781  0.00  0.00    +0.000 NA
ATOM     14  C   UNL     1       2.842   6.666  18.718  0.00  0.00    +0.000 C 
BRANCH  14  15
ATOM     15  S   UNL     1       1.990   6.807  20.268  0.00  0.00    +0.000 S 
ATOM     16  H   UNL     1       3.006   7.276  20.998  0.00  0.00    +0.000 HD
ENDBRANCH  14  15
ENDBRANCH   1  14
TORSDOF 3
ENDMDL
