MODEL 1
REMARK VINA RESULT:      -7.9      0.000      0.000
REMARK  Name = 
REMARK  10 active torsions:
REMARK  status: ('A' for Active; 'I' for Inactive)
REMARK    1  A    between atoms: C_2  and  C_3
REMARK    2  A    between atoms: C_2  and  C_19
REMARK    3  A    between atoms: C_3  and  C_4
REMARK    4  A    between atoms: C_4  and  C_5
REMARK    5  A    between atoms: C_4  and  C_12
REMARK    6  A    between atoms: C_12  and  C_13
REMARK    7  A    between atoms: C_12  and  C_16
REMARK    8  A    between atoms: C_13  and  O_15
REMARK    9  A    between atoms: C_16  and  O_18
REMARK   10  A    between atoms: C_22  and  O_23
REMARK                            x       y       z     vdW  Elec       q    Type
REMARK                         _______ _______ _______ _____ _____    ______ ____
ROOT
ATOM      1  C   UNL     1       3.584   4.698  18.673  0.00  0.00    +0.000 C 
ENDROOT
BRANCH   1   2
ATOM      2  C   UNL     1       2.876   6.050  18.836  0.00  0.00    +0.000 A 
ATOM      3  C   UNL     1       2.886   7.036  17.834  0.00  0.00    +0.000 A 
ATOM      4  C   UNL     1       2.306   8.290  18.052  0.00  0.00    +0.000 A 
ATOM      5  C   UNL     1       1.729   8.584  19.284  0.00  0.00    +0.000 A 
ATOM      6 CL   UNL     1       1.053  10.141  19.560  0.00  0.00    +0.000 Cl
ATOM      7  C   UNL     1       1.716   7.629  20.294  0.00  0.00    +0.000 A 
ATOM      8  C   UNL     1       2.281   6.369  20.069  0.00  0.00    +0.000 A 
ENDBRANCH   1   2
BRANCH   1   9
ATOM      9  C   UNL     1       3.800   4.371  17.178  0.00  0.00    +0.000 C 
BRANCH   9  11
ATOM     10  O   UNL     1       5.685   3.503  15.948  0.00  0.00    +0.000 OA
ATOM     11  C   UNL     1       5.271   4.308  16.778  0.00  0.00    +0.000 C 
BRANCH  11  12
ATOM     12  C   UNL     1       6.221   5.300  17.377  0.00  0.00    +0.000 A 
ATOM     13  C   UNL     1       6.282   6.587  16.821  0.00  0.00    +0.000 A 
ATOM     14  C   UNL     1       7.146   7.551  17.349  0.00  0.00    +0.000 A 
ATOM     15  C   UNL     1       7.955   7.224  18.429  0.00  0.00    +0.000 A 
ATOM     16  C   UNL     1       7.912   5.955  18.991  0.00  0.00    +0.000 A 
ATOM     17  C   UNL     1       7.042   4.994  18.471  0.00  0.00    +0.000 A 
BRANCH  15  18
ATOM     18  O   UNL     1       8.813   8.124  18.980  0.00  0.00    +0.000 OA
ATOM     19  H   UNL     1       8.381   8.543  19.744  0.00  0.00    +0.000 HD
ENDBRANCH  15  18
ENDBRANCH  11  12
ENDBRANCH   9  11
ENDBRANCH   1   9
BRANCH   1  20
ATOM     20  C   UNL     1       2.893   3.539  19.456  0.00  0.00    +0.000 C 
BRANCH  20  21
ATOM     21  C   UNL     1       2.027   2.679  18.571  0.00  0.00    +0.000 C 
ATOM     22  O   UNL     1       1.038   3.080  17.980  0.00  0.00    +0.000 OA
BRANCH  21  23
ATOM     23  O   UNL     1       2.468   1.409  18.429  0.00  0.00    +0.000 OA
ATOM     24  H   UNL     1       2.733   1.143  17.525  0.00  0.00    +0.000 HD
ENDBRANCH  21  23
ENDBRANCH  20  21
BRANCH  20  25
ATOM     25  C   UNL     1       3.911   2.692  20.205  0.00  0.00    +0.000 C 
ATOM     26  O   UNL     1       3.728   2.234  21.324  0.00  0.00    +0.000 OA
BRANCH  25  27
ATOM     27  O   UNL     1       5.024   2.368  19.506  0.00  0.00    +0.000 OA
ATOM     28  H   UNL     1       5.511   3.086  19.057  0.00  0.00    +0.000 HD
ENDBRANCH  25  27
ENDBRANCH  20  25
ENDBRANCH   1  20
TORSDOF 10
ENDMDL
MODEL 2
REMARK VINA RESULT:      -7.9      0.145      1.371
REMARK  Name = 
REMARK  10 active torsions:
REMARK  status: ('A' for Active; 'I' for Inactive)
REMARK    1  A    between atoms: C_2  and  C_3
REMARK    2  A    between atoms: C_2  and  C_19
REMARK    3  A    between atoms: C_3  and  C_4
REMARK    4  A    between atoms: C_4  and  C_5
REMARK    5  A    between atoms: C_4  and  C_12
REMARK    6  A    between atoms: C_12  and  C_13
REMARK    7  A    between atoms: C_12  and  C_16
REMARK    8  A    between atoms: C_13  and  O_15
REMARK    9  A    between atoms: C_16  and  O_18
REMARK   10  A    between atoms: C_22  and  O_23
REMARK                            x       y       z     vdW  Elec       q    Type
REMARK                         _______ _______ _______ _____ _____    ______ ____
ROOT
ATOM      1  C   UNL     1       3.652   4.724  18.679  0.00  0.00    +0.000 C 
ENDROOT
BRANCH   1   2
ATOM      2  C   UNL     1       3.035   6.117  18.872  0.00  0.00    +0.000 A 
ATOM      3  C   UNL     1       2.388   6.499  20.060  0.00  0.00    +0.000 A 
ATOM      4  C   UNL     1       1.759   7.744  20.168  0.00  0.00    +0.000 A 
ATOM      5  C   UNL     1       1.748   8.614  19.082  0.00  0.00    +0.000 A 
ATOM      6 CL   UNL     1       0.939  10.126  19.207  0.00  0.00    +0.000 Cl
ATOM      7  C   UNL     1       2.372   8.253  17.893  0.00  0.00    +0.000 A 
ATOM      8  C   UNL     1       3.015   7.015  17.791  0.00  0.00    +0.000 A 
ENDBRANCH   1   2
BRANCH   1   9
ATOM      9  C   UNL     1       3.853   4.419  17.177  0.00  0.00    +0.000 C 
BRANCH   9  11
ATOM     10  O   UNL     1       5.739   3.598  15.917  0.00  0.00    +0.000 OA
ATOM     11  C   UNL     1       5.318   4.392  16.755  0.00  0.00    +0.000 C 
BRANCH  11  12
ATOM     12  C   UNL     1       6.253   5.406  17.340  0.00  0.00    +0.000 A 
ATOM     13  C   UNL     1       7.033   5.036  18.446  0.00  0.00    +0.000 A 
ATOM     14  C   UNL     1       7.927   5.943  19.024  0.00  0.00    +0.000 A 
ATOM     15  C   UNL     1       8.033   7.224  18.498  0.00  0.00    +0.000 A 
ATOM     16  C   UNL     1       7.267   7.610  17.408  0.00  0.00    +0.000 A 
ATOM     17  C   UNL     1       6.382   6.702  16.823  0.00  0.00    +0.000 A 
BRANCH  15  18
ATOM     18  O   UNL     1       8.887   8.145  19.023  0.00  0.00    +0.000 OA
ATOM     19  H   UNL     1       8.643   8.305  19.951  0.00  0.00    +0.000 HD
ENDBRANCH  15  18
ENDBRANCH  11  12
ENDBRANCH   9  11
ENDBRANCH   1   9
BRANCH   1  20
ATOM     20  C   UNL     1       2.882   3.596  19.432  0.00  0.00    +0.000 C 
BRANCH  20  21
ATOM     21  C   UNL     1       2.030   2.761  18.509  0.00  0.00    +0.000 C 
ATOM     22  O   UNL     1       1.041   3.175  17.927  0.00  0.00    +0.000 OA
BRANCH  21  23
ATOM     23  O   UNL     1       2.486   1.503  18.322  0.00  0.00    +0.000 OA
ATOM     24  H   UNL     1       1.804   0.810  18.205  0.00  0.00    +0.000 HD
ENDBRANCH  21  23
ENDBRANCH  20  21
BRANCH  20  25
ATOM     25  C   UNL     1       3.830   2.718  20.236  0.00  0.00    +0.000 C 
ATOM     26  O   UNL     1       3.562   2.248  21.332  0.00  0.00    +0.000 OA
BRANCH  25  27
ATOM     27  O   UNL     1       4.980   2.381  19.608  0.00  0.00    +0.000 OA
ATOM     28  H   UNL     1       5.405   3.048  19.035  0.00  0.00    +0.000 HD
ENDBRANCH  25  27
ENDBRANCH  20  25
ENDBRANCH   1  20
TORSDOF 10
ENDMDL
MODEL 3
REMARK VINA RESULT:      -7.7      0.586      1.353
REMARK  Name = 
REMARK  10 active torsions:
REMARK  status: ('A' for Active; 'I' for Inactive)
REMARK    1  A    between atoms: C_2  and  C_3
REMARK    2  A    between atoms: C_2  and  C_19
REMARK    3  A    between atoms: C_3  and  C_4
REMARK    4  A    between atoms: C_4  and  C_5
REMARK    5  A    between atoms: C_4  and  C_12
REMARK    6  A    between atoms: C_12  and  C_13
REMARK    7  A    between atoms: C_12  and  C_16
REMARK    8  A    between atoms: C_13  and  O_15
REMARK    9  A    between atoms: C_16  and  O_18
REMARK   10  A    between atoms: C_22  and  O_23
REMARK                            x       y       z     vdW  Elec       q    Type
REMARK                         _______ _______ _______ _____ _____    ______ ____
ROOT
ATOM      1  C   UNL     1       3.551   4.838  18.783  0.00  0.00    +0.000 C 
ENDROOT
BRANCH   1   2
ATOM      2  C   UNL     1       2.901   6.209  19.016  0.00  0.00    +0.000 A 
ATOM      3  C   UNL     1       2.307   6.566  20.239  0.00  0.00    +0.000 A 
ATOM      4  C   UNL     1       1.645   7.790  20.387  0.00  0.00    +0.000 A 
ATOM      5  C   UNL     1       1.549   8.663  19.307  0.00  0.00    +0.000 A 
ATOM      6 CL   UNL     1       0.700  10.148  19.483  0.00  0.00    +0.000 Cl
ATOM      7  C   UNL     1       2.119   8.326  18.085  0.00  0.00    +0.000 A 
ATOM      8  C   UNL     1       2.795   7.110  17.943  0.00  0.00    +0.000 A 
ENDBRANCH   1   2
BRANCH   1   9
ATOM      9  C   UNL     1       3.727   4.566  17.271  0.00  0.00    +0.000 C 
BRANCH   9  11
ATOM     10  O   UNL     1       5.556   3.651  15.992  0.00  0.00    +0.000 OA
ATOM     11  C   UNL     1       5.187   4.459  16.841  0.00  0.00    +0.000 C 
BRANCH  11  12
ATOM     12  C   UNL     1       6.181   5.411  17.432  0.00  0.00    +0.000 A 
ATOM     13  C   UNL     1       6.266   6.706  16.898  0.00  0.00    +0.000 A 
ATOM     14  C   UNL     1       7.172   7.635  17.419  0.00  0.00    +0.000 A 
ATOM     15  C   UNL     1       7.998   7.263  18.472  0.00  0.00    +0.000 A 
ATOM     16  C   UNL     1       7.932   5.986  19.011  0.00  0.00    +0.000 A 
ATOM     17  C   UNL     1       7.020   5.061  18.498  0.00  0.00    +0.000 A 
BRANCH  15  18
ATOM     18  O   UNL     1       8.897   8.128  19.016  0.00  0.00    +0.000 OA
ATOM     19  H   UNL     1       8.418   8.898  19.368  0.00  0.00    +0.000 HD
ENDBRANCH  15  18
ENDBRANCH  11  12
ENDBRANCH   9  11
ENDBRANCH   1   9
BRANCH   1  20
ATOM     20  C   UNL     1       2.828   3.675  19.531  0.00  0.00    +0.000 C 
BRANCH  20  21
ATOM     21  C   UNL     1       1.397   3.504  19.088  0.00  0.00    +0.000 C 
ATOM     22  O   UNL     1       1.051   3.343  17.930  0.00  0.00    +0.000 OA
BRANCH  21  23
ATOM     23  O   UNL     1       0.503   3.485  20.102  0.00  0.00    +0.000 OA
ATOM     24  H   UNL     1      -0.441   3.512  19.845  0.00  0.00    +0.000 HD
ENDBRANCH  21  23
ENDBRANCH  20  21
BRANCH  20  25
ATOM     25  C   UNL     1       3.596   2.368  19.398  0.00  0.00    +0.000 C 
ATOM     26  O   UNL     1       4.668   2.148  19.941  0.00  0.00    +0.000 OA
BRANCH  25  27
ATOM     27  O   UNL     1       2.959   1.389  18.714  0.00  0.00    +0.000 OA
ATOM     28  H   UNL     1       3.045   0.470  19.037  0.00  0.00    +0.000 HD
ENDBRANCH  25  27
ENDBRANCH  20  25
ENDBRANCH   1  20
TORSDOF 10
ENDMDL
MODEL 4
REMARK VINA RESULT:      -7.7      1.868      2.593
REMARK  Name = 
REMARK  10 active torsions:
REMARK  status: ('A' for Active; 'I' for Inactive)
REMARK    1  A    between atoms: C_2  and  C_3
REMARK    2  A    between atoms: C_2  and  C_19
REMARK    3  A    between atoms: C_3  and  C_4
REMARK    4  A    between atoms: C_4  and  C_5
REMARK    5  A    between atoms: C_4  and  C_12
REMARK    6  A    between atoms: C_12  and  C_13
REMARK    7  A    between atoms: C_12  and  C_16
REMARK    8  A    between atoms: C_13  and  O_15
REMARK    9  A    between atoms: C_16  and  O_18
REMARK   10  A    between atoms: C_22  and  O_23
REMARK                            x       y       z     vdW  Elec       q    Type
REMARK                         _______ _______ _______ _____ _____    ______ ____
ROOT
ATOM      1  C   UNL     1       2.898   4.487  19.680  0.00  0.00    +0.000 C 
ENDROOT
BRANCH   1   2
ATOM      2  C   UNL     1       2.543   5.970  19.507  0.00  0.00    +0.000 A 
ATOM      3  C   UNL     1       1.970   6.736  20.537  0.00  0.00    +0.000 A 
ATOM      4  C   UNL     1       1.576   8.060  20.316  0.00  0.00    +0.000 A 
ATOM      5  C   UNL     1       1.729   8.629  19.055  0.00  0.00    +0.000 A 
ATOM      6 CL   UNL     1       1.207  10.243  18.778  0.00  0.00    +0.000 Cl
ATOM      7  C   UNL     1       2.283   7.887  18.017  0.00  0.00    +0.000 A 
ATOM      8  C   UNL     1       2.692   6.569  18.244  0.00  0.00    +0.000 A 
ENDBRANCH   1   2
BRANCH   1   9
ATOM      9  C   UNL     1       3.537   3.923  18.390  0.00  0.00    +0.000 C 
BRANCH   9  11
ATOM     10  O   UNL     1       5.741   3.825  19.367  0.00  0.00    +0.000 OA
ATOM     11  C   UNL     1       5.058   4.038  18.368  0.00  0.00    +0.000 C 
BRANCH  11  12
ATOM     12  C   UNL     1       5.735   4.362  17.071  0.00  0.00    +0.000 A 
ATOM     13  C   UNL     1       4.980   4.298  15.890  0.00  0.00    +0.000 A 
ATOM     14  C   UNL     1       5.563   4.600  14.654  0.00  0.00    +0.000 A 
ATOM     15  C   UNL     1       6.904   4.958  14.603  0.00  0.00    +0.000 A 
ATOM     16  C   UNL     1       7.667   5.023  15.760  0.00  0.00    +0.000 A 
ATOM     17  C   UNL     1       7.084   4.733  16.995  0.00  0.00    +0.000 A 
BRANCH  15  18
ATOM     18  O   UNL     1       7.519   5.261  13.428  0.00  0.00    +0.000 OA
ATOM     19  H   UNL     1       6.987   5.925  12.957  0.00  0.00    +0.000 HD
ENDBRANCH  15  18
ENDBRANCH  11  12
ENDBRANCH   9  11
ENDBRANCH   1   9
BRANCH   1  20
ATOM     20  C   UNL     1       1.708   3.621  20.199  0.00  0.00    +0.000 C 
BRANCH  20  21
ATOM     21  C   UNL     1       1.150   2.709  19.136  0.00  0.00    +0.000 C 
ATOM     22  O   UNL     1       0.441   3.080  18.215  0.00  0.00    +0.000 OA
BRANCH  21  23
ATOM     23  O   UNL     1       1.550   1.422  19.245  0.00  0.00    +0.000 OA
ATOM     24  H   UNL     1       0.983   0.839  19.788  0.00  0.00    +0.000 HD
ENDBRANCH  21  23
ENDBRANCH  20  21
BRANCH  20  25
ATOM     25  C   UNL     1       2.095   2.833  21.441  0.00  0.00    +0.000 C 
ATOM     26  O   UNL     1       1.298   2.467  22.293  0.00  0.00    +0.000 OA
BRANCH  25  27
ATOM     27  O   UNL     1       3.391   2.449  21.504  0.00  0.00    +0.000 OA
ATOM     28  H   UNL     1       3.711   2.039  22.332  0.00  0.00    +0.000 HD
ENDBRANCH  25  27
ENDBRANCH  20  25
ENDBRANCH   1  20
TORSDOF 10
ENDMDL
MODEL 5
REMARK VINA RESULT:      -7.7      0.530      1.268
REMARK  Name = 
REMARK  10 active torsions:
REMARK  status: ('A' for Active; 'I' for Inactive)
REMARK    1  A    between atoms: C_2  and  C_3
REMARK    2  A    between atoms: C_2  and  C_19
REMARK    3  A    between atoms: C_3  and  C_4
REMARK    4  A    between atoms: C_4  and  C_5
REMARK    5  A    between atoms: C_4  and  C_12
REMARK    6  A    between atoms: C_12  and  C_13
REMARK    7  A    between atoms: C_12  and  C_16
REMARK    8  A    between atoms: C_13  and  O_15
REMARK    9  A    between atoms: C_16  and  O_18
REMARK   10  A    between atoms: C_22  and  O_23
REMARK                            x       y       z     vdW  Elec       q    Type
REMARK                         _______ _______ _______ _____ _____    ______ ____
ROOT
ATOM      1  C   UNL     1       3.148   4.780  18.973  0.00  0.00    +0.000 C 
ENDROOT
BRANCH   1   2
ATOM      2  C   UNL     1       2.501   6.154  19.190  0.00  0.00    +0.000 A 
ATOM      3  C   UNL     1       2.529   7.167  18.215  0.00  0.00    +0.000 A 
ATOM      4  C   UNL     1       2.008   8.437  18.482  0.00  0.00    +0.000 A 
ATOM      5  C   UNL     1       1.472   8.720  19.735  0.00  0.00    +0.000 A 
ATOM      6 CL   UNL     1       0.869  10.294  20.071  0.00  0.00    +0.000 Cl
ATOM      7  C   UNL     1       1.444   7.737  20.719  0.00  0.00    +0.000 A 
ATOM      8  C   UNL     1       1.950   6.462  20.446  0.00  0.00    +0.000 A 
ENDBRANCH   1   2
BRANCH   1   9
ATOM      9  C   UNL     1       3.372   4.513  17.467  0.00  0.00    +0.000 C 
BRANCH   9  11
ATOM     10  O   UNL     1       5.183   3.306  16.425  0.00  0.00    +0.000 OA
ATOM     11  C   UNL     1       4.834   4.267  17.106  0.00  0.00    +0.000 C 
BRANCH  11  12
ATOM     12  C   UNL     1       5.861   5.263  17.551  0.00  0.00    +0.000 A 
ATOM     13  C   UNL     1       6.728   4.908  18.595  0.00  0.00    +0.000 A 
ATOM     14  C   UNL     1       7.709   5.799  19.042  0.00  0.00    +0.000 A 
ATOM     15  C   UNL     1       7.817   7.049  18.445  0.00  0.00    +0.000 A 
ATOM     16  C   UNL     1       6.966   7.420  17.414  0.00  0.00    +0.000 A 
ATOM     17  C   UNL     1       5.992   6.527  16.960  0.00  0.00    +0.000 A 
BRANCH  15  18
ATOM     18  O   UNL     1       8.753   7.953  18.842  0.00  0.00    +0.000 OA
ATOM     19  H   UNL     1       9.599   7.491  18.971  0.00  0.00    +0.000 HD
ENDBRANCH  15  18
ENDBRANCH  11  12
ENDBRANCH   9  11
ENDBRANCH   1   9
BRANCH   1  20
ATOM     20  C   UNL     1       2.392   3.618  19.690  0.00  0.00    +0.000 C 
BRANCH  20  21
ATOM     21  C   UNL     1       1.624   2.747  18.729  0.00  0.00    +0.000 C 
ATOM     22  O   UNL     1       0.638   3.111  18.110  0.00  0.00    +0.000 OA
BRANCH  21  23
ATOM     23  O   UNL     1       2.154   1.516  18.553  0.00  0.00    +0.000 OA
ATOM     24  H   UNL     1       1.690   0.779  18.999  0.00  0.00    +0.000 HD
ENDBRANCH  21  23
ENDBRANCH  20  21
BRANCH  20  25
ATOM     25  C   UNL     1       3.337   2.784  20.542  0.00  0.00    +0.000 C 
ATOM     26  O   UNL     1       4.435   2.398  20.166  0.00  0.00    +0.000 OA
BRANCH  25  27
ATOM     27  O   UNL     1       2.936   2.574  21.817  0.00  0.00    +0.000 OA
ATOM     28  H   UNL     1       2.462   1.744  22.021  0.00  0.00    +0.000 HD
ENDBRANCH  25  27
ENDBRANCH  20  25
ENDBRANCH   1  20
TORSDOF 10
ENDMDL
MODEL 6
REMARK VINA RESULT:      -7.6      2.847      5.419
REMARK  Name = 
REMARK  10 active torsions:
REMARK  status: ('A' for Active; 'I' for Inactive)
REMARK    1  A    between atoms: C_2  and  C_3
REMARK    2  A    between atoms: C_2  and  C_19
REMARK    3  A    between atoms: C_3  and  C_4
REMARK    4  A    between atoms: C_4  and  C_5
REMARK    5  A    between atoms: C_4  and  C_12
REMARK    6  A    between atoms: C_12  and  C_13
REMARK    7  A    between atoms: C_12  and  C_16
REMARK    8  A    between atoms: C_13  and  O_15
REMARK    9  A    between atoms: C_16  and  O_18
REMARK   10  A    between atoms: C_22  and  O_23
REMARK                            x       y       z     vdW  Elec       q    Type
REMARK                         _______ _______ _______ _____ _____    ______ ____
ROOT
ATOM      1  C   UNL     1       3.630   4.466  18.140  0.00  0.00    +0.000 C 
ENDROOT
BRANCH   1   2
ATOM      2  C   UNL     1       4.750   4.655  17.107  0.00  0.00    +0.000 A 
ATOM      3  C   UNL     1       5.673   5.713  17.177  0.00  0.00    +0.000 A 
ATOM      4  C   UNL     1       6.624   5.907  16.169  0.00  0.00    +0.000 A 
ATOM      5  C   UNL     1       6.650   5.058  15.067  0.00  0.00    +0.000 A 
ATOM      6 CL   UNL     1       7.796   5.324  13.812  0.00  0.00    +0.000 Cl
ATOM      7  C   UNL     1       5.741   4.010  14.970  0.00  0.00    +0.000 A 
ATOM      8  C   UNL     1       4.801   3.808  15.986  0.00  0.00    +0.000 A 
ENDBRANCH   1   2
BRANCH   1   9
ATOM      9  C   UNL     1       3.876   5.352  19.382  0.00  0.00    +0.000 C 
BRANCH   9  11
ATOM     10  O   UNL     1       1.944   5.422  20.825  0.00  0.00    +0.000 OA
ATOM     11  C   UNL     1       2.601   5.973  19.944  0.00  0.00    +0.000 C 
BRANCH  11  12
ATOM     12  C   UNL     1       2.177   7.320  19.445  0.00  0.00    +0.000 A 
ATOM     13  C   UNL     1       1.464   8.160  20.314  0.00  0.00    +0.000 A 
ATOM     14  C   UNL     1       1.052   9.431  19.900  0.00  0.00    +0.000 A 
ATOM     15  C   UNL     1       1.350   9.857  18.611  0.00  0.00    +0.000 A 
ATOM     16  C   UNL     1       2.052   9.039  17.736  0.00  0.00    +0.000 A 
ATOM     17  C   UNL     1       2.472   7.774  18.153  0.00  0.00    +0.000 A 
BRANCH  15  18
ATOM     18  O   UNL     1       0.973  11.083  18.158  0.00  0.00    +0.000 OA
ATOM     19  H   UNL     1       0.115  11.001  17.709  0.00  0.00    +0.000 HD
ENDBRANCH  15  18
ENDBRANCH  11  12
ENDBRANCH   9  11
ENDBRANCH   1   9
BRANCH   1  20
ATOM     20  C   UNL     1       3.368   2.970  18.502  0.00  0.00    +0.000 C 
BRANCH  20  21
ATOM     21  C   UNL     1       3.942   2.591  19.843  0.00  0.00    +0.000 C 
ATOM     22  O   UNL     1       3.288   2.497  20.869  0.00  0.00    +0.000 OA
BRANCH  21  23
ATOM     23  O   UNL     1       5.261   2.297  19.818  0.00  0.00    +0.000 OA
ATOM     24  H   UNL     1       5.622   1.862  20.617  0.00  0.00    +0.000 HD
ENDBRANCH  21  23
ENDBRANCH  20  21
BRANCH  20  25
ATOM     25  C   UNL     1       1.886   2.635  18.432  0.00  0.00    +0.000 C 
ATOM     26  O   UNL     1       1.040   3.375  17.952  0.00  0.00    +0.000 OA
BRANCH  25  27
ATOM     27  O   UNL     1       1.554   1.388  18.841  0.00  0.00    +0.000 OA
ATOM     28  H   UNL     1       0.645   1.237  19.167  0.00  0.00    +0.000 HD
ENDBRANCH  25  27
ENDBRANCH  20  25
ENDBRANCH   1  20
TORSDOF 10
ENDMDL
MODEL 7
REMARK VINA RESULT:      -7.6      1.834      2.385
REMARK  Name = 
REMARK  10 active torsions:
REMARK  status: ('A' for Active; 'I' for Inactive)
REMARK    1  A    between atoms: C_2  and  C_3
REMARK    2  A    between atoms: C_2  and  C_19
REMARK    3  A    between atoms: C_3  and  C_4
REMARK    4  A    between atoms: C_4  and  C_5
REMARK    5  A    between atoms: C_4  and  C_12
REMARK    6  A    between atoms: C_12  and  C_13
REMARK    7  A    between atoms: C_12  and  C_16
REMARK    8  A    between atoms: C_13  and  O_15
REMARK    9  A    between atoms: C_16  and  O_18
REMARK   10  A    between atoms: C_22  and  O_23
REMARK                            x       y       z     vdW  Elec       q    Type
REMARK                         _______ _______ _______ _____ _____    ______ ____
ROOT
ATOM      1  C   UNL     1       2.778   4.653  19.535  0.00  0.00    +0.000 C 
ENDROOT
BRANCH   1   2
ATOM      2  C   UNL     1       2.293   6.107  19.445  0.00  0.00    +0.000 A 
ATOM      3  C   UNL     1       2.472   6.893  18.293  0.00  0.00    +0.000 A 
ATOM      4  C   UNL     1       2.098   8.242  18.278  0.00  0.00    +0.000 A 
ATOM      5  C   UNL     1       1.563   8.828  19.421  0.00  0.00    +0.000 A 
ATOM      6 CL   UNL     1       1.143  10.495  19.409  0.00  0.00    +0.000 Cl
ATOM      7  C   UNL     1       1.388   8.072  20.575  0.00  0.00    +0.000 A 
ATOM      8  C   UNL     1       1.746   6.720  20.584  0.00  0.00    +0.000 A 
ENDBRANCH   1   2
BRANCH   1   9
ATOM      9  C   UNL     1       3.357   4.184  18.180  0.00  0.00    +0.000 C 
BRANCH   9  11
ATOM     10  O   UNL     1       5.488   3.633  19.167  0.00  0.00    +0.000 OA
ATOM     11  C   UNL     1       4.876   4.049  18.186  0.00  0.00    +0.000 C 
BRANCH  11  12
ATOM     12  C   UNL     1       5.631   4.379  16.935  0.00  0.00    +0.000 A 
ATOM     13  C   UNL     1       5.020   4.124  15.698  0.00  0.00    +0.000 A 
ATOM     14  C   UNL     1       5.679   4.421  14.502  0.00  0.00    +0.000 A 
ATOM     15  C   UNL     1       6.955   4.969  14.544  0.00  0.00    +0.000 A 
ATOM     16  C   UNL     1       7.578   5.226  15.758  0.00  0.00    +0.000 A 
ATOM     17  C   UNL     1       6.916   4.938  16.954  0.00  0.00    +0.000 A 
BRANCH  15  18
ATOM     18  O   UNL     1       7.641   5.277  13.410  0.00  0.00    +0.000 OA
ATOM     19  H   UNL     1       8.406   5.829  13.647  0.00  0.00    +0.000 HD
ENDBRANCH  15  18
ENDBRANCH  11  12
ENDBRANCH   9  11
ENDBRANCH   1   9
BRANCH   1  20
ATOM     20  C   UNL     1       1.703   3.677  20.108  0.00  0.00    +0.000 C 
BRANCH  20  21
ATOM     21  C   UNL     1       1.115   2.778  19.049  0.00  0.00    +0.000 C 
ATOM     22  O   UNL     1       0.394   3.164  18.144  0.00  0.00    +0.000 OA
BRANCH  21  23
ATOM     23  O   UNL     1       1.501   1.486  19.144  0.00  0.00    +0.000 OA
ATOM     24  H   UNL     1       0.799   0.841  19.363  0.00  0.00    +0.000 HD
ENDBRANCH  21  23
ENDBRANCH  20  21
BRANCH  20  25
ATOM     25  C   UNL     1       2.257   2.860  21.266  0.00  0.00    +0.000 C 
ATOM     26  O   UNL     1       1.591   2.494  22.223  0.00  0.00    +0.000 OA
BRANCH  25  27
ATOM     27  O   UNL     1       3.540   2.452  21.127  0.00  0.00    +0.000 OA
ATOM     28  H   UNL     1       3.861   1.735  21.708  0.00  0.00    +0.000 HD
ENDBRANCH  25  27
ENDBRANCH  20  25
ENDBRANCH   1  20
TORSDOF 10
ENDMDL
MODEL 8
REMARK VINA RESULT:      -7.5      2.853      5.371
REMARK  Name = 
REMARK  10 active torsions:
REMARK  status: ('A' for Active; 'I' for Inactive)
REMARK    1  A    between atoms: C_2  and  C_3
REMARK    2  A    between atoms: C_2  and  C_19
REMARK    3  A    between atoms: C_3  and  C_4
REMARK    4  A    between atoms: C_4  and  C_5
REMARK    5  A    between atoms: C_4  and  C_12
REMARK    6  A    between atoms: C_12  and  C_13
REMARK    7  A    between atoms: C_12  and  C_16
REMARK    8  A    between atoms: C_13  and  O_15
REMARK    9  A    between atoms: C_16  and  O_18
REMARK   10  A    between atoms: C_22  and  O_23
REMARK                            x       y       z     vdW  Elec       q    Type
REMARK                         _______ _______ _______ _____ _____    ______ ____
ROOT
ATOM      1  C   UNL     1       3.488   4.523  18.101  0.00  0.00    +0.000 C 
ENDROOT
BRANCH   1   2
ATOM      2  C   UNL     1       4.525   4.753  16.992  0.00  0.00    +0.000 A 
ATOM      3  C   UNL     1       4.630   3.914  15.869  0.00  0.00    +0.000 A 
ATOM      4  C   UNL     1       5.645   4.101  14.924  0.00  0.00    +0.000 A 
ATOM      5  C   UNL     1       6.581   5.115  15.101  0.00  0.00    +0.000 A 
ATOM      6 CL   UNL     1       7.850   5.316  13.958  0.00  0.00    +0.000 Cl
ATOM      7  C   UNL     1       6.504   5.951  16.210  0.00  0.00    +0.000 A 
ATOM      8  C   UNL     1       5.479   5.774  17.145  0.00  0.00    +0.000 A 
ENDBRANCH   1   2
BRANCH   1   9
ATOM      9  C   UNL     1       3.795   5.410  19.329  0.00  0.00    +0.000 C 
BRANCH   9  11
ATOM     10  O   UNL     1       1.925   5.445  20.853  0.00  0.00    +0.000 OA
ATOM     11  C   UNL     1       2.548   6.019  19.963  0.00  0.00    +0.000 C 
BRANCH  11  12
ATOM     12  C   UNL     1       2.111   7.382  19.522  0.00  0.00    +0.000 A 
ATOM     13  C   UNL     1       2.396   7.783  18.207  0.00  0.00    +0.000 A 
ATOM     14  C   UNL     1       2.002   9.042  17.744  0.00  0.00    +0.000 A 
ATOM     15  C   UNL     1       1.329   9.904  18.601  0.00  0.00    +0.000 A 
ATOM     16  C   UNL     1       1.042   9.527  19.906  0.00  0.00    +0.000 A 
ATOM     17  C   UNL     1       1.425   8.265  20.366  0.00  0.00    +0.000 A 
BRANCH  15  18
ATOM     18  O   UNL     1       0.924  11.140  18.202  0.00  0.00    +0.000 OA
ATOM     19  H   UNL     1       1.565  11.798  18.521  0.00  0.00    +0.000 HD
ENDBRANCH  15  18
ENDBRANCH  11  12
ENDBRANCH   9  11
ENDBRANCH   1   9
BRANCH   1  20
ATOM     20  C   UNL     1       3.299   3.019  18.468  0.00  0.00    +0.000 C 
BRANCH  20  21
ATOM     21  C   UNL     1       3.939   2.660  19.786  0.00  0.00    +0.000 C 
ATOM     22  O   UNL     1       3.326   2.521  20.832  0.00  0.00    +0.000 OA
BRANCH  21  23
ATOM     23  O   UNL     1       5.271   2.441  19.713  0.00  0.00    +0.000 OA
ATOM     24  H   UNL     1       5.844   3.153  20.063  0.00  0.00    +0.000 HD
ENDBRANCH  21  23
ENDBRANCH  20  21
BRANCH  20  25
ATOM     25  C   UNL     1       1.829   2.625  18.455  0.00  0.00    +0.000 C 
ATOM     26  O   UNL     1       0.933   3.344  18.036  0.00  0.00    +0.000 OA
BRANCH  25  27
ATOM     27  O   UNL     1       1.565   1.355  18.840  0.00  0.00    +0.000 OA
ATOM     28  H   UNL     1       0.633   1.062  18.856  0.00  0.00    +0.000 HD
ENDBRANCH  25  27
ENDBRANCH  20  25
ENDBRANCH   1  20
TORSDOF 10
ENDMDL
MODEL 9
REMARK VINA RESULT:      -7.5      0.640      1.233
REMARK  Name = 
REMARK  10 active torsions:
REMARK  status: ('A' for Active; 'I' for Inactive)
REMARK    1  A    between atoms: C_2  and  C_3
REMARK    2  A    between atoms: C_2  and  C_19
REMARK    3  A    between atoms: C_3  and  C_4
REMARK    4  A    between atoms: C_4  and  C_5
REMARK    5  A    between atoms: C_4  and  C_12
REMARK    6  A    between atoms: C_12  and  C_13
REMARK    7  A    between atoms: C_12  and  C_16
REMARK    8  A    between atoms: C_13  and  O_15
REMARK    9  A    between atoms: C_16  and  O_18
REMARK   10  A    between atoms: C_22  and  O_23
REMARK                            x       y       z     vdW  Elec       q    Type
REMARK                         _______ _______ _______ _____ _____    ______ ____
ROOT
ATOM      1  C   UNL     1       3.696   4.518  18.557  0.00  0.00    +0.000 C 
ENDROOT
BRANCH   1   2
ATOM      2  C   UNL     1       2.941   5.830  18.813  0.00  0.00    +0.000 A 
ATOM      3  C   UNL     1       2.861   6.856  17.856  0.00  0.00    +0.000 A 
ATOM      4  C   UNL     1       2.242   8.074  18.157  0.00  0.00    +0.000 A 
ATOM      5  C   UNL     1       1.715   8.291  19.427  0.00  0.00    +0.000 A 
ATOM      6 CL   UNL     1       0.991   9.804  19.804  0.00  0.00    +0.000 Cl
ATOM      7  C   UNL     1       1.793   7.294  20.394  0.00  0.00    +0.000 A 
ATOM      8  C   UNL     1       2.397   6.071  20.087  0.00  0.00    +0.000 A 
ENDBRANCH   1   2
BRANCH   1   9
ATOM      9  C   UNL     1       3.914   4.300  17.042  0.00  0.00    +0.000 C 
BRANCH   9  11
ATOM     10  O   UNL     1       5.832   3.567  15.775  0.00  0.00    +0.000 OA
ATOM     11  C   UNL     1       5.384   4.324  16.633  0.00  0.00    +0.000 C 
BRANCH  11  12
ATOM     12  C   UNL     1       6.287   5.343  17.258  0.00  0.00    +0.000 A 
ATOM     13  C   UNL     1       7.090   4.950  18.339  0.00  0.00    +0.000 A 
ATOM     14  C   UNL     1       7.957   5.862  18.952  0.00  0.00    +0.000 A 
ATOM     15  C   UNL     1       8.012   7.169  18.485  0.00  0.00    +0.000 A 
ATOM     16  C   UNL     1       7.222   7.577  17.419  0.00  0.00    +0.000 A 
ATOM     17  C   UNL     1       6.365   6.665  16.800  0.00  0.00    +0.000 A 
BRANCH  15  18
ATOM     18  O   UNL     1       8.837   8.095  19.046  0.00  0.00    +0.000 OA
ATOM     19  H   UNL     1       9.758   7.807  18.926  0.00  0.00    +0.000 HD
ENDBRANCH  15  18
ENDBRANCH  11  12
ENDBRANCH   9  11
ENDBRANCH   1   9
BRANCH   1  20
ATOM     20  C   UNL     1       3.050   3.284  19.262  0.00  0.00    +0.000 C 
BRANCH  20  21
ATOM     21  C   UNL     1       1.724   2.900  18.656  0.00  0.00    +0.000 C 
ATOM     22  O   UNL     1       0.643   3.100  19.186  0.00  0.00    +0.000 OA
BRANCH  21  23
ATOM     23  O   UNL     1       1.816   2.355  17.422  0.00  0.00    +0.000 OA
ATOM     24  H   UNL     1       2.075   1.412  17.386  0.00  0.00    +0.000 HD
ENDBRANCH  21  23
ENDBRANCH  20  21
BRANCH  20  25
ATOM     25  C   UNL     1       4.001   2.097  19.282  0.00  0.00    +0.000 C 
ATOM     26  O   UNL     1       3.775   1.031  18.725  0.00  0.00    +0.000 OA
BRANCH  25  27
ATOM     27  O   UNL     1       5.197   2.321  19.873  0.00  0.00    +0.000 OA
ATOM     28  H   UNL     1       5.859   2.851  19.388  0.00  0.00    +0.000 HD
ENDBRANCH  25  27
ENDBRANCH  20  25
ENDBRANCH   1  20
TORSDOF 10
ENDMDL
