MODEL 1
REMARK VINA RESULT:      -6.7      0.000      0.000
REMARK  Name = 
REMARK  3 active torsions:
REMARK  status: ('A' for Active; 'I' for Inactive)
REMARK    1  A    between atoms: C_1  and  C_2
REMARK    2  A    between atoms: C_2  and  N_3
REMARK    3  A    between atoms: C_4  and  C_5
REMARK                            x       y       z     vdW  Elec       q    Type
REMARK                         _______ _______ _______ _____ _____    ______ ____
ROOT
ATOM      1  N   UNL     1      -2.958  12.581  19.658  0.00  0.00    +0.000 N 
ATOM      2  C   UNL     1      -3.526  11.720  18.707  0.00  0.00    +0.000 A 
ATOM      3  C   UNL     1      -2.490  10.927  18.225  0.00  0.00    +0.000 A 
ATOM      4 CL   UNL     1      -2.612   9.659  17.086  0.00  0.00    +0.000 Cl
ATOM      5  C   UNL     1      -1.310  11.266  18.927  0.00  0.00    +0.000 A 
ATOM      6  C   UNL     1      -1.588  12.381  19.719  0.00  0.00    +0.000 A 
ATOM      7  C   UNL     1      -0.501  13.005  20.508  0.00  0.00    +0.000 A 
ATOM      8  C   UNL     1      -0.622  13.965  21.511  0.00  0.00    +0.000 A 
ATOM      9  C   UNL     1       0.527  14.443  22.133  0.00  0.00    +0.000 A 
ATOM     10  N   UNL     1       1.783  14.093  21.796  0.00  0.00    +0.000 NA
ATOM     11  C   UNL     1       1.891  13.159  20.830  0.00  0.00    +0.000 A 
ATOM     12  C   UNL     1       0.801  12.556  20.218  0.00  0.00    +0.000 A 
ATOM     13  O   UNL     1       1.086  11.524  19.365  0.00  0.00    +0.000 OA
ATOM     14  C   UNL     1       0.019  10.562  19.136  0.00  0.00    +0.000 C 
ATOM     15  C   UNL     1      -0.187   9.657  20.387  0.00  0.00    +0.000 C 
ATOM     16  C   UNL     1       1.028   8.864  20.829  0.00  0.00    +0.000 C 
ATOM     17  C   UNL     1       1.782   8.181  19.698  0.00  0.00    +0.000 C 
ATOM     18  C   UNL     1       1.873   8.979  18.398  0.00  0.00    +0.000 C 
ATOM     19  C   UNL     1       0.560   9.674  18.001  0.00  0.00    +0.000 C 
ENDROOT
BRANCH   2  20
ATOM     20  C   UNL     1      -4.945  11.687  18.393  0.00  0.00    +0.000 C 
ATOM     21  N   UNL     1      -5.384  12.467  17.358  0.00  0.00    +0.000 N 
ATOM     22  O   UNL     1      -5.788  10.992  18.950  0.00  0.00    +0.000 OA
ATOM     23  H   UNL     1      -4.774  13.079  16.837  0.00  0.00    +0.000 HD
ATOM     24  H   UNL     1      -6.364  12.419  17.111  0.00  0.00    +0.000 HD
ENDBRANCH   2  20
BRANCH   1  26
ATOM     25  C   UNL     1      -4.112  12.756  21.850  0.00  0.00    +0.000 C 
ATOM     26  C   UNL     1      -3.749  13.435  20.537  0.00  0.00    +0.000 C 
ENDBRANCH   1  26
TORSDOF 2
ENDMDL
MODEL 2
REMARK VINA RESULT:      -6.1      3.009      4.969
REMARK  Name = 
REMARK  3 active torsions:
REMARK  status: ('A' for Active; 'I' for Inactive)
REMARK    1  A    between atoms: C_1  and  C_2
REMARK    2  A    between atoms: C_2  and  N_3
REMARK    3  A    between atoms: C_4  and  C_5
REMARK                            x       y       z     vdW  Elec       q    Type
REMARK                         _______ _______ _______ _____ _____    ______ ____
ROOT
ATOM      1  N   UNL     1      -4.626  12.621  21.127  0.00  0.00    +0.000 N 
ATOM      2  C   UNL     1      -4.050  12.826  22.390  0.00  0.00    +0.000 A 
ATOM      3  C   UNL     1      -2.681  12.638  22.234  0.00  0.00    +0.000 A 
ATOM      4 CL   UNL     1      -1.477  12.819  23.433  0.00  0.00    +0.000 Cl
ATOM      5  C   UNL     1      -2.422  12.379  20.868  0.00  0.00    +0.000 A 
ATOM      6  C   UNL     1      -3.650  12.243  20.219  0.00  0.00    +0.000 A 
ATOM      7  C   UNL     1      -3.679  11.887  18.781  0.00  0.00    +0.000 A 
ATOM      8  C   UNL     1      -4.772  11.923  17.919  0.00  0.00    +0.000 A 
ATOM      9  C   UNL     1      -4.603  11.534  16.593  0.00  0.00    +0.000 A 
ATOM     10  N   UNL     1      -3.456  11.053  16.077  0.00  0.00    +0.000 NA
ATOM     11  C   UNL     1      -2.402  11.026  16.916  0.00  0.00    +0.000 A 
ATOM     12  C   UNL     1      -2.450  11.481  18.226  0.00  0.00    +0.000 A 
ATOM     13  O   UNL     1      -1.255  11.521  18.894  0.00  0.00    +0.000 OA
ATOM     14  C   UNL     1      -1.170  12.447  20.012  0.00  0.00    +0.000 C 
ATOM     15  C   UNL     1      -1.097  13.919  19.506  0.00  0.00    +0.000 C 
ATOM     16  C   UNL     1       0.065  14.238  18.587  0.00  0.00    +0.000 C 
ATOM     17  C   UNL     1       1.405  13.681  19.045  0.00  0.00    +0.000 C 
ATOM     18  C   UNL     1       1.352  12.297  19.688  0.00  0.00    +0.000 C 
ATOM     19  C   UNL     1       0.181  12.111  20.668  0.00  0.00    +0.000 C 
ENDROOT
BRANCH   2  20
ATOM     20  C   UNL     1      -4.806  13.221  23.568  0.00  0.00    +0.000 C 
ATOM     21  N   UNL     1      -5.218  12.231  24.418  0.00  0.00    +0.000 N 
ATOM     22  O   UNL     1      -5.081  14.371  23.893  0.00  0.00    +0.000 OA
ATOM     23  H   UNL     1      -5.048  11.252  24.240  0.00  0.00    +0.000 HD
ATOM     24  H   UNL     1      -5.711  12.503  25.258  0.00  0.00    +0.000 HD
ENDBRANCH   2  20
BRANCH   1  26
ATOM     25  C   UNL     1      -6.922  11.697  20.927  0.00  0.00    +0.000 C 
ATOM     26  C   UNL     1      -6.021  12.920  20.826  0.00  0.00    +0.000 C 
ENDBRANCH   1  26
TORSDOF 2
ENDMDL
MODEL 3
REMARK VINA RESULT:      -6.0      2.929      4.769
REMARK  Name = 
REMARK  3 active torsions:
REMARK  status: ('A' for Active; 'I' for Inactive)
REMARK    1  A    between atoms: C_1  and  C_2
REMARK    2  A    between atoms: C_2  and  N_3
REMARK    3  A    between atoms: C_4  and  C_5
REMARK                            x       y       z     vdW  Elec       q    Type
REMARK                         _______ _______ _______ _____ _____    ______ ____
ROOT
ATOM      1  N   UNL     1      -4.984  12.857  19.787  0.00  0.00    +0.000 N 
ATOM      2  C   UNL     1      -4.779  13.269  21.113  0.00  0.00    +0.000 A 
ATOM      3  C   UNL     1      -3.493  12.866  21.457  0.00  0.00    +0.000 A 
ATOM      4 CL   UNL     1      -2.689  13.154  22.936  0.00  0.00    +0.000 Cl
ATOM      5  C   UNL     1      -2.900  12.265  20.322  0.00  0.00    +0.000 A 
ATOM      6  C   UNL     1      -3.880  12.151  19.336  0.00  0.00    +0.000 A 
ATOM      7  C   UNL     1      -3.553  11.479  18.057  0.00  0.00    +0.000 A 
ATOM      8  C   UNL     1      -4.311  11.463  16.888  0.00  0.00    +0.000 A 
ATOM      9  C   UNL     1      -3.839  10.758  15.785  0.00  0.00    +0.000 A 
ATOM     10  N   UNL     1      -2.713  10.019  15.772  0.00  0.00    +0.000 NA
ATOM     11  C   UNL     1      -1.983  10.044  16.905  0.00  0.00    +0.000 A 
ATOM     12  C   UNL     1      -2.324  10.793  18.022  0.00  0.00    +0.000 A 
ATOM     13  O   UNL     1      -1.399  10.823  19.032  0.00  0.00    +0.000 OA
ATOM     14  C   UNL     1      -1.463  11.963  19.933  0.00  0.00    +0.000 C 
ATOM     15  C   UNL     1      -0.947  13.253  19.230  0.00  0.00    +0.000 C 
ATOM     16  C   UNL     1       0.475  13.190  18.709  0.00  0.00    +0.000 C 
ATOM     17  C   UNL     1       1.477  12.579  19.676  0.00  0.00    +0.000 C 
ATOM     18  C   UNL     1       0.956  11.401  20.499  0.00  0.00    +0.000 C 
ATOM     19  C   UNL     1      -0.465  11.607  21.050  0.00  0.00    +0.000 C 
ENDROOT
BRANCH   2  20
ATOM     20  C   UNL     1      -5.755  14.024  21.883  0.00  0.00    +0.000 C 
ATOM     21  N   UNL     1      -6.653  13.318  22.634  0.00  0.00    +0.000 N 
ATOM     22  O   UNL     1      -5.825  15.246  21.951  0.00  0.00    +0.000 OA
ATOM     23  H   UNL     1      -6.684  12.309  22.645  0.00  0.00    +0.000 HD
ATOM     24  H   UNL     1      -7.309  13.839  23.202  0.00  0.00    +0.000 HD
ENDBRANCH   2  20
BRANCH   1  26
ATOM     25  C   UNL     1      -7.265  12.244  19.021  0.00  0.00    +0.000 C 
ATOM     26  C   UNL     1      -6.136  13.265  18.992  0.00  0.00    +0.000 C 
ENDBRANCH   1  26
TORSDOF 2
ENDMDL
MODEL 4
REMARK VINA RESULT:      -6.0      3.546      5.570
REMARK  Name = 
REMARK  3 active torsions:
REMARK  status: ('A' for Active; 'I' for Inactive)
REMARK    1  A    between atoms: C_1  and  C_2
REMARK    2  A    between atoms: C_2  and  N_3
REMARK    3  A    between atoms: C_4  and  C_5
REMARK                            x       y       z     vdW  Elec       q    Type
REMARK                         _______ _______ _______ _____ _____    ______ ____
ROOT
ATOM      1  N   UNL     1      -5.852  12.637  21.514  0.00  0.00    +0.000 N 
ATOM      2  C   UNL     1      -5.706  12.965  22.870  0.00  0.00    +0.000 A 
ATOM      3  C   UNL     1      -4.341  13.113  23.095  0.00  0.00    +0.000 A 
ATOM      4 CL   UNL     1      -3.586  13.568  24.559  0.00  0.00    +0.000 Cl
ATOM      5  C   UNL     1      -3.668  12.934  21.865  0.00  0.00    +0.000 A 
ATOM      6  C   UNL     1      -4.605  12.512  20.921  0.00  0.00    +0.000 A 
ATOM      7  C   UNL     1      -4.158  12.170  19.551  0.00  0.00    +0.000 A 
ATOM      8  C   UNL     1      -4.953  11.949  18.429  0.00  0.00    +0.000 A 
ATOM      9  C   UNL     1      -4.344  11.622  17.221  0.00  0.00    +0.000 A 
ATOM     10  N   UNL     1      -3.021  11.435  17.057  0.00  0.00    +0.000 NA
ATOM     11  C   UNL     1      -2.258  11.656  18.146  0.00  0.00    +0.000 A 
ATOM     12  C   UNL     1      -2.766  12.076  19.367  0.00  0.00    +0.000 A 
ATOM     13  O   UNL     1      -1.841  12.397  20.325  0.00  0.00    +0.000 OA
ATOM     14  C   UNL     1      -2.282  13.308  21.369  0.00  0.00    +0.000 C 
ATOM     15  C   UNL     1      -2.420  14.757  20.817  0.00  0.00    +0.000 C 
ATOM     16  C   UNL     1      -1.159  15.354  20.222  0.00  0.00    +0.000 C 
ATOM     17  C   UNL     1       0.097  15.132  21.051  0.00  0.00    +0.000 C 
ATOM     18  C   UNL     1       0.195  13.771  21.737  0.00  0.00    +0.000 C 
ATOM     19  C   UNL     1      -1.120  13.301  22.380  0.00  0.00    +0.000 C 
ENDROOT
BRANCH   2  20
ATOM     20  C   UNL     1      -6.824  13.157  23.780  0.00  0.00    +0.000 C 
ATOM     21  N   UNL     1      -7.018  14.410  24.291  0.00  0.00    +0.000 N 
ATOM     22  O   UNL     1      -7.639  12.301  24.107  0.00  0.00    +0.000 OA
ATOM     23  H   UNL     1      -6.401  15.185  24.090  0.00  0.00    +0.000 HD
ATOM     24  H   UNL     1      -7.816  14.559  24.894  0.00  0.00    +0.000 HD
ENDBRANCH   2  20
BRANCH   1  26
ATOM     25  C   UNL     1      -7.702  11.183  20.720  0.00  0.00    +0.000 C 
ATOM     26  C   UNL     1      -7.142  12.594  20.836  0.00  0.00    +0.000 C 
ENDBRANCH   1  26
TORSDOF 2
ENDMDL
MODEL 5
REMARK VINA RESULT:      -5.8      5.991      9.454
REMARK  Name = 
REMARK  3 active torsions:
REMARK  status: ('A' for Active; 'I' for Inactive)
REMARK    1  A    between atoms: C_1  and  C_2
REMARK    2  A    between atoms: C_2  and  N_3
REMARK    3  A    between atoms: C_4  and  C_5
REMARK                            x       y       z     vdW  Elec       q    Type
REMARK                         _______ _______ _______ _____ _____    ______ ____
ROOT
ATOM      1  N   UNL     1       5.372   6.114  17.730  0.00  0.00    +0.000 N 
ATOM      2  C   UNL     1       6.080   4.943  18.038  0.00  0.00    +0.000 A 
ATOM      3  C   UNL     1       5.320   4.260  18.981  0.00  0.00    +0.000 A 
ATOM      4 CL   UNL     1       5.671   2.737  19.674  0.00  0.00    +0.000 Cl
ATOM      5  C   UNL     1       4.126   4.986  19.198  0.00  0.00    +0.000 A 
ATOM      6  C   UNL     1       4.232   6.197  18.513  0.00  0.00    +0.000 A 
ATOM      7  C   UNL     1       3.147   7.198  18.630  0.00  0.00    +0.000 A 
ATOM      8  C   UNL     1       2.965   8.348  17.865  0.00  0.00    +0.000 A 
ATOM      9  C   UNL     1       1.882   9.179  18.137  0.00  0.00    +0.000 A 
ATOM     10  N   UNL     1       1.009   8.994  19.146  0.00  0.00    +0.000 NA
ATOM     11  C   UNL     1       1.189   7.877  19.878  0.00  0.00    +0.000 A 
ATOM     12  C   UNL     1       2.181   6.941  19.622  0.00  0.00    +0.000 A 
ATOM     13  O   UNL     1       2.131   5.793  20.367  0.00  0.00    +0.000 OA
ATOM     14  C   UNL     1       2.777   4.623  19.793  0.00  0.00    +0.000 C 
ATOM     15  C   UNL     1       1.943   4.057  18.606  0.00  0.00    +0.000 C 
ATOM     16  C   UNL     1       0.521   3.649  18.942  0.00  0.00    +0.000 C 
ATOM     17  C   UNL     1       0.380   2.847  20.226  0.00  0.00    +0.000 C 
ATOM     18  C   UNL     1       1.297   3.277  21.370  0.00  0.00    +0.000 C 
ATOM     19  C   UNL     1       2.737   3.585  20.930  0.00  0.00    +0.000 C 
ENDROOT
BRANCH   2  20
ATOM     20  C   UNL     1       7.331   4.563  17.399  0.00  0.00    +0.000 C 
ATOM     21  N   UNL     1       8.428   4.404  18.199  0.00  0.00    +0.000 N 
ATOM     22  O   UNL     1       7.486   4.336  16.204  0.00  0.00    +0.000 OA
ATOM     23  H   UNL     1       8.409   4.571  19.194  0.00  0.00    +0.000 HD
ATOM     24  H   UNL     1       9.291   4.103  17.765  0.00  0.00    +0.000 HD
ENDBRANCH   2  20
BRANCH   1  26
ATOM     25  C   UNL     1       5.071   6.627  15.319  0.00  0.00    +0.000 C 
ATOM     26  C   UNL     1       5.738   7.005  16.634  0.00  0.00    +0.000 C 
ENDBRANCH   1  26
TORSDOF 2
ENDMDL
MODEL 6
REMARK VINA RESULT:      -5.8      2.760      3.723
REMARK  Name = 
REMARK  3 active torsions:
REMARK  status: ('A' for Active; 'I' for Inactive)
REMARK    1  A    between atoms: C_1  and  C_2
REMARK    2  A    between atoms: C_2  and  N_3
REMARK    3  A    between atoms: C_4  and  C_5
REMARK                            x       y       z     vdW  Elec       q    Type
REMARK                         _______ _______ _______ _____ _____    ______ ____
ROOT
ATOM      1  N   UNL     1      -4.355  12.533  21.143  0.00  0.00    +0.000 N 
ATOM      2  C   UNL     1      -5.662  12.383  20.655  0.00  0.00    +0.000 A 
ATOM      3  C   UNL     1      -5.548  12.157  19.287  0.00  0.00    +0.000 A 
ATOM      4 CL   UNL     1      -6.819  11.846  18.188  0.00  0.00    +0.000 Cl
ATOM      5  C   UNL     1      -4.173  12.109  18.960  0.00  0.00    +0.000 A 
ATOM      6  C   UNL     1      -3.450  12.473  20.096  0.00  0.00    +0.000 A 
ATOM      7  C   UNL     1      -1.975  12.587  20.017  0.00  0.00    +0.000 A 
ATOM      8  C   UNL     1      -1.075  12.716  21.073  0.00  0.00    +0.000 A 
ATOM      9  C   UNL     1       0.285  12.824  20.795  0.00  0.00    +0.000 A 
ATOM     10  N   UNL     1       0.811  12.878  19.557  0.00  0.00    +0.000 NA
ATOM     11  C   UNL     1      -0.065  12.746  18.541  0.00  0.00    +0.000 A 
ATOM     12  C   UNL     1      -1.425  12.540  18.722  0.00  0.00    +0.000 A 
ATOM     13  O   UNL     1      -2.150  12.279  17.589  0.00  0.00    +0.000 OA
ATOM     14  C   UNL     1      -3.400  11.559  17.774  0.00  0.00    +0.000 C 
ATOM     15  C   UNL     1      -3.131  10.064  18.116  0.00  0.00    +0.000 C 
ATOM     16  C   UNL     1      -2.331   9.291  17.086  0.00  0.00    +0.000 C 
ATOM     17  C   UNL     1      -2.764   9.520  15.647  0.00  0.00    +0.000 C 
ATOM     18  C   UNL     1      -3.184  10.950  15.310  0.00  0.00    +0.000 C 
ATOM     19  C   UNL     1      -4.063  11.609  16.385  0.00  0.00    +0.000 C 
ENDROOT
BRANCH   2  20
ATOM     20  C   UNL     1      -6.848  12.410  21.497  0.00  0.00    +0.000 C 
ATOM     21  N   UNL     1      -7.441  11.214  21.794  0.00  0.00    +0.000 N 
ATOM     22  O   UNL     1      -7.349  13.410  21.999  0.00  0.00    +0.000 OA
ATOM     23  H   UNL     1      -7.111  10.333  21.427  0.00  0.00    +0.000 HD
ATOM     24  H   UNL     1      -8.243  11.223  22.410  0.00  0.00    +0.000 HD
ENDBRANCH   2  20
BRANCH   1  26
ATOM     25  C   UNL     1      -3.917  14.013  23.089  0.00  0.00    +0.000 C 
ATOM     26  C   UNL     1      -4.035  12.588  22.565  0.00  0.00    +0.000 C 
ENDBRANCH   1  26
TORSDOF 2
ENDMDL
MODEL 7
REMARK VINA RESULT:      -5.8      2.483      6.463
REMARK  Name = 
REMARK  3 active torsions:
REMARK  status: ('A' for Active; 'I' for Inactive)
REMARK    1  A    between atoms: C_1  and  C_2
REMARK    2  A    between atoms: C_2  and  N_3
REMARK    3  A    between atoms: C_4  and  C_5
REMARK                            x       y       z     vdW  Elec       q    Type
REMARK                         _______ _______ _______ _____ _____    ______ ____
ROOT
ATOM      1  N   UNL     1      -2.152  11.264  18.844  0.00  0.00    +0.000 N 
ATOM      2  C   UNL     1      -0.933  11.730  19.358  0.00  0.00    +0.000 A 
ATOM      3  C   UNL     1      -1.240  12.806  20.185  0.00  0.00    +0.000 A 
ATOM      4 CL   UNL     1      -0.146  13.724  21.123  0.00  0.00    +0.000 Cl
ATOM      5  C   UNL     1      -2.646  12.952  20.218  0.00  0.00    +0.000 A 
ATOM      6  C   UNL     1      -3.189  12.072  19.280  0.00  0.00    +0.000 A 
ATOM      7  C   UNL     1      -4.652  12.070  19.044  0.00  0.00    +0.000 A 
ATOM      8  C   UNL     1      -5.395  11.133  18.330  0.00  0.00    +0.000 A 
ATOM      9  C   UNL     1      -6.770  11.312  18.205  0.00  0.00    +0.000 A 
ATOM     10  N   UNL     1      -7.450  12.374  18.677  0.00  0.00    +0.000 NA
ATOM     11  C   UNL     1      -6.724  13.273  19.372  0.00  0.00    +0.000 A 
ATOM     12  C   UNL     1      -5.368  13.132  19.628  0.00  0.00    +0.000 A 
ATOM     13  O   UNL     1      -4.816  14.058  20.473  0.00  0.00    +0.000 OA
ATOM     14  C   UNL     1      -3.601  13.658  21.165  0.00  0.00    +0.000 C 
ATOM     15  C   UNL     1      -3.916  12.618  22.281  0.00  0.00    +0.000 C 
ATOM     16  C   UNL     1      -4.892  13.078  23.346  0.00  0.00    +0.000 C 
ATOM     17  C   UNL     1      -4.638  14.482  23.872  0.00  0.00    +0.000 C 
ATOM     18  C   UNL     1      -4.176  15.498  22.828  0.00  0.00    +0.000 C 
ATOM     19  C   UNL     1      -3.124  14.950  21.851  0.00  0.00    +0.000 C 
ENDROOT
BRANCH   2  20
ATOM     20  C   UNL     1       0.352  11.108  19.080  0.00  0.00    +0.000 C 
ATOM     21  N   UNL     1       1.134  11.675  18.112  0.00  0.00    +0.000 N 
ATOM     22  O   UNL     1       0.821  10.136  19.662  0.00  0.00    +0.000 OA
ATOM     23  H   UNL     1       0.840  12.475  17.569  0.00  0.00    +0.000 HD
ATOM     24  H   UNL     1       2.045  11.270  17.940  0.00  0.00    +0.000 HD
ENDBRANCH   2  20
BRANCH   1  26
ATOM     25  C   UNL     1      -2.257  10.239  16.584  0.00  0.00    +0.000 C 
ATOM     26  C   UNL     1      -2.279  10.021  18.090  0.00  0.00    +0.000 C 
ENDBRANCH   1  26
TORSDOF 2
ENDMDL
MODEL 8
REMARK VINA RESULT:      -5.8      2.265      4.438
REMARK  Name = 
REMARK  3 active torsions:
REMARK  status: ('A' for Active; 'I' for Inactive)
REMARK    1  A    between atoms: C_1  and  C_2
REMARK    2  A    between atoms: C_2  and  N_3
REMARK    3  A    between atoms: C_4  and  C_5
REMARK                            x       y       z     vdW  Elec       q    Type
REMARK                         _______ _______ _______ _____ _____    ______ ____
ROOT
ATOM      1  N   UNL     1      -3.553  11.493  17.901  0.00  0.00    +0.000 N 
ATOM      2  C   UNL     1      -4.695  12.137  18.402  0.00  0.00    +0.000 A 
ATOM      3  C   UNL     1      -4.399  12.503  19.710  0.00  0.00    +0.000 A 
ATOM      4 CL   UNL     1      -5.403  13.371  20.786  0.00  0.00    +0.000 Cl
ATOM      5  C   UNL     1      -3.060  12.136  19.980  0.00  0.00    +0.000 A 
ATOM      6  C   UNL     1      -2.592  11.396  18.894  0.00  0.00    +0.000 A 
ATOM      7  C   UNL     1      -1.232  10.811  18.941  0.00  0.00    +0.000 A 
ATOM      8  C   UNL     1      -0.515  10.242  17.891  0.00  0.00    +0.000 A 
ATOM      9  C   UNL     1       0.755   9.728  18.137  0.00  0.00    +0.000 A 
ATOM     10  N   UNL     1       1.338   9.678  19.350  0.00  0.00    +0.000 NA
ATOM     11  C   UNL     1       0.641  10.235  20.360  0.00  0.00    +0.000 A 
ATOM     12  C   UNL     1      -0.590  10.854  20.193  0.00  0.00    +0.000 A 
ATOM     13  O   UNL     1      -1.093  11.498  21.292  0.00  0.00    +0.000 OA
ATOM     14  C   UNL     1      -2.053  12.560  21.035  0.00  0.00    +0.000 C 
ATOM     15  C   UNL     1      -1.345  13.816  20.448  0.00  0.00    +0.000 C 
ATOM     16  C   UNL     1      -0.254  14.416  21.312  0.00  0.00    +0.000 C 
ATOM     17  C   UNL     1      -0.615  14.550  22.784  0.00  0.00    +0.000 C 
ATOM     18  C   UNL     1      -1.444  13.404  23.360  0.00  0.00    +0.000 C 
ATOM     19  C   UNL     1      -2.577  12.930  22.435  0.00  0.00    +0.000 C 
ENDROOT
BRANCH   2  20
ATOM     20  C   UNL     1      -5.892  12.387  17.615  0.00  0.00    +0.000 C 
ATOM     21  N   UNL     1      -6.895  11.460  17.674  0.00  0.00    +0.000 N 
ATOM     22  O   UNL     1      -6.103  13.379  16.925  0.00  0.00    +0.000 OA
ATOM     23  H   UNL     1      -6.821  10.606  18.208  0.00  0.00    +0.000 HD
ATOM     24  H   UNL     1      -7.746  11.648  17.159  0.00  0.00    +0.000 HD
ENDBRANCH   2  20
BRANCH   1  26
ATOM     25  C   UNL     1      -3.564   9.643  16.244  0.00  0.00    +0.000 C 
ATOM     26  C   UNL     1      -3.390  11.135  16.496  0.00  0.00    +0.000 C 
ENDBRANCH   1  26
TORSDOF 2
ENDMDL
MODEL 9
REMARK VINA RESULT:      -5.7      2.536      5.659
REMARK  Name = 
REMARK  3 active torsions:
REMARK  status: ('A' for Active; 'I' for Inactive)
REMARK    1  A    between atoms: C_1  and  C_2
REMARK    2  A    between atoms: C_2  and  N_3
REMARK    3  A    between atoms: C_4  and  C_5
REMARK                            x       y       z     vdW  Elec       q    Type
REMARK                         _______ _______ _______ _____ _____    ______ ____
ROOT
ATOM      1  N   UNL     1      -2.562  11.879  18.880  0.00  0.00    +0.000 N 
ATOM      2  C   UNL     1      -3.511  11.363  17.985  0.00  0.00    +0.000 A 
ATOM      3  C   UNL     1      -4.755  11.549  18.579  0.00  0.00    +0.000 A 
ATOM      4 CL   UNL     1      -6.279  11.161  17.912  0.00  0.00    +0.000 Cl
ATOM      5  C   UNL     1      -4.563  12.231  19.803  0.00  0.00    +0.000 A 
ATOM      6  C   UNL     1      -3.190  12.313  20.036  0.00  0.00    +0.000 A 
ATOM      7  C   UNL     1      -2.699  12.914  21.298  0.00  0.00    +0.000 A 
ATOM      8  C   UNL     1      -1.392  13.283  21.611  0.00  0.00    +0.000 A 
ATOM      9  C   UNL     1      -1.123  13.824  22.865  0.00  0.00    +0.000 A 
ATOM     10  N   UNL     1      -2.032  13.967  23.848  0.00  0.00    +0.000 NA
ATOM     11  C   UNL     1      -3.295  13.613  23.535  0.00  0.00    +0.000 A 
ATOM     12  C   UNL     1      -3.675  13.154  22.283  0.00  0.00    +0.000 A 
ATOM     13  O   UNL     1      -5.020  12.980  22.089  0.00  0.00    +0.000 OA
ATOM     14  C   UNL     1      -5.485  13.024  20.712  0.00  0.00    +0.000 C 
ATOM     15  C   UNL     1      -5.450  14.481  20.162  0.00  0.00    +0.000 C 
ATOM     16  C   UNL     1      -6.277  15.491  20.933  0.00  0.00    +0.000 C 
ATOM     17  C   UNL     1      -7.671  15.012  21.308  0.00  0.00    +0.000 C 
ATOM     18  C   UNL     1      -7.772  13.541  21.708  0.00  0.00    +0.000 C 
ATOM     19  C   UNL     1      -6.961  12.596  20.806  0.00  0.00    +0.000 C 
ENDROOT
BRANCH   2  20
ATOM     20  C   UNL     1      -3.177  10.814  16.680  0.00  0.00    +0.000 C 
ATOM     21  N   UNL     1      -3.391  11.606  15.586  0.00  0.00    +0.000 N 
ATOM     22  O   UNL     1      -2.682   9.712  16.469  0.00  0.00    +0.000 OA
ATOM     23  H   UNL     1      -3.799  12.528  15.649  0.00  0.00    +0.000 HD
ATOM     24  H   UNL     1      -3.125  11.245  14.679  0.00  0.00    +0.000 HD
ENDBRANCH   2  20
BRANCH   1  26
ATOM     25  C   UNL     1      -0.293  10.873  18.964  0.00  0.00    +0.000 C 
ATOM     26  C   UNL     1      -1.154  12.054  18.539  0.00  0.00    +0.000 C 
ENDBRANCH   1  26
TORSDOF 2
ENDMDL
