MODEL 1
REMARK VINA RESULT:      -6.9      0.000      0.000
REMARK  Name = 
REMARK  13 active torsions:
REMARK  status: ('A' for Active; 'I' for Inactive)
REMARK    1  A    between atoms: C_1  and  C_2
REMARK    2  A    between atoms: C_2  and  C_3
REMARK    3  A    between atoms: C_3  and  C_4
REMARK    4  A    between atoms: C_3  and  C_30
REMARK    5  A    between atoms: C_11  and  O_12
REMARK    6  A    between atoms: O_12  and  C_13
REMARK    7  A    between atoms: C_14  and  O_15
REMARK    8  A    between atoms: O_15  and  C_16
REMARK    9  A    between atoms: C_19  and  C_20
REMARK   10  A    between atoms: C_23  and  O_24
REMARK   11  A    between atoms: O_24  and  C_25
REMARK   12  A    between atoms: C_26  and  O_27
REMARK   13  A    between atoms: O_27  and  C_28
REMARK                            x       y       z     vdW  Elec       q    Type
REMARK                         _______ _______ _______ _____ _____    ______ ____
ROOT
ATOM      1  C   UNL     1      -1.073  12.195  22.419  0.00  0.00    +0.000 C 
ATOM      2  O   UNL     1      -0.460  11.573  23.292  0.00  0.00    +0.000 OA
ATOM      3  N   UNL     1      -1.114  11.724  21.097  0.00  0.00    +0.000 N 
ATOM      4  C   UNL     1      -0.524  10.399  20.804  0.00  0.00    +0.000 C 
ATOM      5  C   UNL     1      -0.363  10.027  19.312  0.00  0.00    +0.000 C 
ATOM      6  C   UNL     1      -1.519  10.516  18.484  0.00  0.00    +0.000 A 
ATOM      7  C   UNL     1      -2.011   9.817  17.376  0.00  0.00    +0.000 A 
ATOM      8  C   UNL     1      -3.130  10.278  16.657  0.00  0.00    +0.000 A 
ATOM      9  C   UNL     1      -3.773  11.460  17.061  0.00  0.00    +0.000 A 
ATOM     10  C   UNL     1      -3.227  12.188  18.129  0.00  0.00    +0.000 A 
ATOM     11  C   UNL     1      -2.093  11.738  18.827  0.00  0.00    +0.000 A 
ATOM     12  C   UNL     1      -1.497  12.564  19.953  0.00  0.00    +0.000 C 
ENDROOT
BRANCH  12  13
ATOM     13  C   UNL     1      -0.353  13.489  19.518  0.00  0.00    +0.000 A 
ATOM     14  C   UNL     1       0.958  13.026  19.326  0.00  0.00    +0.000 A 
ATOM     15  C   UNL     1       2.002  13.904  19.034  0.00  0.00    +0.000 A 
ATOM     16  C   UNL     1       1.781  15.279  18.933  0.00  0.00    +0.000 A 
ATOM     17  C   UNL     1       0.468  15.761  19.053  0.00  0.00    +0.000 A 
ATOM     18  C   UNL     1      -0.577  14.865  19.351  0.00  0.00    +0.000 A 
BRANCH  16  19
ATOM     19  O   UNL     1       2.810  16.155  18.710  0.00  0.00    +0.000 OA
ATOM     20  C   UNL     1       3.797  15.728  17.772  0.00  0.00    +0.000 C 
ENDBRANCH  16  19
BRANCH  17  21
ATOM     21  O   UNL     1       0.040  17.063  18.990  0.00  0.00    +0.000 OA
ATOM     22  C   UNL     1      -0.555  17.503  17.776  0.00  0.00    +0.000 C 
ENDBRANCH  17  21
ENDBRANCH  12  13
BRANCH   8  23
ATOM     23  O   UNL     1      -3.451   9.446  15.612  0.00  0.00    +0.000 OA
ATOM     24  C   UNL     1      -3.195   9.880  14.284  0.00  0.00    +0.000 C 
ENDBRANCH   8  23
BRANCH   9  25
ATOM     25  O   UNL     1      -4.900  11.865  16.397  0.00  0.00    +0.000 OA
ATOM     26  C   UNL     1      -5.933  12.501  17.140  0.00  0.00    +0.000 C 
ENDBRANCH   9  25
BRANCH   1  27
ATOM     27  C   UNL     1      -1.892  13.462  22.790  0.00  0.00    +0.000 C 
BRANCH  27  28
ATOM     28  C   UNL     1      -3.338  13.063  23.116  0.00  0.00    +0.000 A 
ATOM     29  C   UNL     1      -4.349  13.211  22.154  0.00  0.00    +0.000 A 
ATOM     30  C   UNL     1      -5.676  12.910  22.473  0.00  0.00    +0.000 A 
ATOM     31  C   UNL     1      -6.008  12.462  23.751  0.00  0.00    +0.000 A 
ATOM     32  C   UNL     1      -5.012  12.292  24.708  0.00  0.00    +0.000 A 
ATOM     33  C   UNL     1      -3.685  12.578  24.388  0.00  0.00    +0.000 A 
ENDBRANCH  27  28
BRANCH  27  35
ATOM     34  C   UNL     1      -1.715  15.770  23.928  0.00  0.00    +0.000 C 
ATOM     35  C   UNL     1      -1.337  14.298  23.965  0.00  0.00    +0.000 C 
ENDBRANCH  27  35
ENDBRANCH   1  27
TORSDOF 8
ENDMDL
MODEL 2
REMARK VINA RESULT:      -6.5      0.768      1.819
REMARK  Name = 
REMARK  13 active torsions:
REMARK  status: ('A' for Active; 'I' for Inactive)
REMARK    1  A    between atoms: C_1  and  C_2
REMARK    2  A    between atoms: C_2  and  C_3
REMARK    3  A    between atoms: C_3  and  C_4
REMARK    4  A    between atoms: C_3  and  C_30
REMARK    5  A    between atoms: C_11  and  O_12
REMARK    6  A    between atoms: O_12  and  C_13
REMARK    7  A    between atoms: C_14  and  O_15
REMARK    8  A    between atoms: O_15  and  C_16
REMARK    9  A    between atoms: C_19  and  C_20
REMARK   10  A    between atoms: C_23  and  O_24
REMARK   11  A    between atoms: O_24  and  C_25
REMARK   12  A    between atoms: C_26  and  O_27
REMARK   13  A    between atoms: O_27  and  C_28
REMARK                            x       y       z     vdW  Elec       q    Type
REMARK                         _______ _______ _______ _____ _____    ______ ____
ROOT
ATOM      1  C   UNL     1      -1.251  12.389  22.595  0.00  0.00    +0.000 C 
ATOM      2  O   UNL     1      -0.654  11.795  23.498  0.00  0.00    +0.000 OA
ATOM      3  N   UNL     1      -1.242  11.894  21.281  0.00  0.00    +0.000 N 
ATOM      4  C   UNL     1      -0.617  10.577  21.031  0.00  0.00    +0.000 C 
ATOM      5  C   UNL     1      -0.403  10.181  19.551  0.00  0.00    +0.000 C 
ATOM      6  C   UNL     1      -1.541  10.632  18.680  0.00  0.00    +0.000 A 
ATOM      7  C   UNL     1      -1.985   9.903  17.570  0.00  0.00    +0.000 A 
ATOM      8  C   UNL     1      -3.090  10.329  16.808  0.00  0.00    +0.000 A 
ATOM      9  C   UNL     1      -3.768  11.505  17.171  0.00  0.00    +0.000 A 
ATOM     10  C   UNL     1      -3.270  12.262  18.241  0.00  0.00    +0.000 A 
ATOM     11  C   UNL     1      -2.150  11.848  18.982  0.00  0.00    +0.000 A 
ATOM     12  C   UNL     1      -1.605  12.706  20.110  0.00  0.00    +0.000 C 
ENDROOT
BRANCH  12  13
ATOM     13  C   UNL     1      -0.467  13.646  19.695  0.00  0.00    +0.000 A 
ATOM     14  C   UNL     1      -0.558  15.041  19.823  0.00  0.00    +0.000 A 
ATOM     15  C   UNL     1       0.446  15.881  19.342  0.00  0.00    +0.000 A 
ATOM     16  C   UNL     1       1.575  15.362  18.703  0.00  0.00    +0.000 A 
ATOM     17  C   UNL     1       1.724  13.969  18.623  0.00  0.00    +0.000 A 
ATOM     18  C   UNL     1       0.701  13.132  19.110  0.00  0.00    +0.000 A 
BRANCH  16  19
ATOM     19  O   UNL     1       2.536  16.181  18.171  0.00  0.00    +0.000 OA
ATOM     20  C   UNL     1       3.605  16.537  19.047  0.00  0.00    +0.000 C 
ENDBRANCH  16  19
BRANCH  17  21
ATOM     21  O   UNL     1       2.746  13.264  18.042  0.00  0.00    +0.000 OA
ATOM     22  C   UNL     1       2.590  11.856  17.920  0.00  0.00    +0.000 C 
ENDBRANCH  17  21
ENDBRANCH  12  13
BRANCH   8  23
ATOM     23  O   UNL     1      -3.362   9.473  15.770  0.00  0.00    +0.000 OA
ATOM     24  C   UNL     1      -3.146   9.917  14.438  0.00  0.00    +0.000 C 
ENDBRANCH   8  23
BRANCH   9  25
ATOM     25  O   UNL     1      -4.882  11.875  16.465  0.00  0.00    +0.000 OA
ATOM     26  C   UNL     1      -5.952  12.498  17.165  0.00  0.00    +0.000 C 
ENDBRANCH   9  25
BRANCH   1  27
ATOM     27  C   UNL     1      -2.106  13.646  22.917  0.00  0.00    +0.000 C 
BRANCH  27  28
ATOM     28  C   UNL     1      -3.551  13.223  23.215  0.00  0.00    +0.000 A 
ATOM     29  C   UNL     1      -3.899  12.723  24.479  0.00  0.00    +0.000 A 
ATOM     30  C   UNL     1      -5.200  12.276  24.728  0.00  0.00    +0.000 A 
ATOM     31  C   UNL     1      -6.163  12.321  23.722  0.00  0.00    +0.000 A 
ATOM     32  C   UNL     1      -5.838  12.834  22.469  0.00  0.00    +0.000 A 
ATOM     33  C   UNL     1      -4.544  13.293  22.222  0.00  0.00    +0.000 A 
ENDBRANCH  27  28
BRANCH  27  35
ATOM     34  C   UNL     1      -0.690  15.664  23.676  0.00  0.00    +0.000 C 
ATOM     35  C   UNL     1      -1.599  14.518  24.087  0.00  0.00    +0.000 C 
ENDBRANCH  27  35
ENDBRANCH   1  27
TORSDOF 8
ENDMDL
MODEL 3
REMARK VINA RESULT:      -6.3      0.976      2.759
REMARK  Name = 
REMARK  13 active torsions:
REMARK  status: ('A' for Active; 'I' for Inactive)
REMARK    1  A    between atoms: C_1  and  C_2
REMARK    2  A    between atoms: C_2  and  C_3
REMARK    3  A    between atoms: C_3  and  C_4
REMARK    4  A    between atoms: C_3  and  C_30
REMARK    5  A    between atoms: C_11  and  O_12
REMARK    6  A    between atoms: O_12  and  C_13
REMARK    7  A    between atoms: C_14  and  O_15
REMARK    8  A    between atoms: O_15  and  C_16
REMARK    9  A    between atoms: C_19  and  C_20
REMARK   10  A    between atoms: C_23  and  O_24
REMARK   11  A    between atoms: O_24  and  C_25
REMARK   12  A    between atoms: C_26  and  O_27
REMARK   13  A    between atoms: O_27  and  C_28
REMARK                            x       y       z     vdW  Elec       q    Type
REMARK                         _______ _______ _______ _____ _____    ______ ____
ROOT
ATOM      1  C   UNL     1      -1.279  11.870  22.618  0.00  0.00    +0.000 C 
ATOM      2  O   UNL     1      -0.523  11.292  23.404  0.00  0.00    +0.000 OA
ATOM      3  N   UNL     1      -1.259  11.565  21.248  0.00  0.00    +0.000 N 
ATOM      4  C   UNL     1      -0.411  10.443  20.789  0.00  0.00    +0.000 C 
ATOM      5  C   UNL     1      -0.221  10.298  19.261  0.00  0.00    +0.000 C 
ATOM      6  C   UNL     1      -1.478  10.626  18.505  0.00  0.00    +0.000 A 
ATOM      7  C   UNL     1      -1.845   9.978  17.320  0.00  0.00    +0.000 A 
ATOM      8  C   UNL     1      -3.058  10.273  16.668  0.00  0.00    +0.000 A 
ATOM      9  C   UNL     1      -3.923  11.233  17.220  0.00  0.00    +0.000 A 
ATOM     10  C   UNL     1      -3.511  11.925  18.369  0.00  0.00    +0.000 A 
ATOM     11  C   UNL     1      -2.288  11.647  19.001  0.00  0.00    +0.000 A 
ATOM     12  C   UNL     1      -1.846  12.437  20.219  0.00  0.00    +0.000 C 
ENDROOT
BRANCH  12  13
ATOM     13  C   UNL     1      -0.938  13.631  19.900  0.00  0.00    +0.000 A 
ATOM     14  C   UNL     1      -1.444  14.917  19.653  0.00  0.00    +0.000 A 
ATOM     15  C   UNL     1      -0.607  15.963  19.262  0.00  0.00    +0.000 A 
ATOM     16  C   UNL     1       0.765  15.764  19.091  0.00  0.00    +0.000 A 
ATOM     17  C   UNL     1       1.307  14.506  19.398  0.00  0.00    +0.000 A 
ATOM     18  C   UNL     1       0.451  13.458  19.789  0.00  0.00    +0.000 A 
BRANCH  16  19
ATOM     19  O   UNL     1       1.584  16.768  18.646  0.00  0.00    +0.000 OA
ATOM     20  C   UNL     1       0.987  17.708  17.754  0.00  0.00    +0.000 C 
ENDBRANCH  16  19
BRANCH  17  21
ATOM     21  O   UNL     1       2.614  14.106  19.298  0.00  0.00    +0.000 OA
ATOM     22  C   UNL     1       2.961  13.249  18.218  0.00  0.00    +0.000 C 
ENDBRANCH  17  21
ENDBRANCH  12  13
BRANCH   8  23
ATOM     23  O   UNL     1      -3.227   9.526  15.529  0.00  0.00    +0.000 OA
ATOM     24  C   UNL     1      -3.023  10.142  14.266  0.00  0.00    +0.000 C 
ENDBRANCH   8  23
BRANCH   9  25
ATOM     25  O   UNL     1      -5.130  11.465  16.616  0.00  0.00    +0.000 OA
ATOM     26  C   UNL     1      -6.006  12.425  17.196  0.00  0.00    +0.000 C 
ENDBRANCH   9  25
BRANCH   1  27
ATOM     27  C   UNL     1      -2.336  12.878  23.148  0.00  0.00    +0.000 C 
BRANCH  27  28
ATOM     28  C   UNL     1      -1.757  14.300  23.107  0.00  0.00    +0.000 A 
ATOM     29  C   UNL     1      -2.608  15.410  23.009  0.00  0.00    +0.000 A 
ATOM     30  C   UNL     1      -2.077  16.699  22.905  0.00  0.00    +0.000 A 
ATOM     31  C   UNL     1      -0.697  16.892  22.896  0.00  0.00    +0.000 A 
ATOM     32  C   UNL     1       0.159  15.801  23.013  0.00  0.00    +0.000 A 
ATOM     33  C   UNL     1      -0.369  14.515  23.130  0.00  0.00    +0.000 A 
ENDBRANCH  27  28
BRANCH  27  35
ATOM     34  C   UNL     1      -4.909  12.803  23.311  0.00  0.00    +0.000 C 
ATOM     35  C   UNL     1      -3.691  12.879  22.405  0.00  0.00    +0.000 C 
ENDBRANCH  27  35
ENDBRANCH   1  27
TORSDOF 8
ENDMDL
MODEL 4
REMARK VINA RESULT:      -6.2      1.130      2.625
REMARK  Name = 
REMARK  13 active torsions:
REMARK  status: ('A' for Active; 'I' for Inactive)
REMARK    1  A    between atoms: C_1  and  C_2
REMARK    2  A    between atoms: C_2  and  C_3
REMARK    3  A    between atoms: C_3  and  C_4
REMARK    4  A    between atoms: C_3  and  C_30
REMARK    5  A    between atoms: C_11  and  O_12
REMARK    6  A    between atoms: O_12  and  C_13
REMARK    7  A    between atoms: C_14  and  O_15
REMARK    8  A    between atoms: O_15  and  C_16
REMARK    9  A    between atoms: C_19  and  C_20
REMARK   10  A    between atoms: C_23  and  O_24
REMARK   11  A    between atoms: O_24  and  C_25
REMARK   12  A    between atoms: C_26  and  O_27
REMARK   13  A    between atoms: O_27  and  C_28
REMARK                            x       y       z     vdW  Elec       q    Type
REMARK                         _______ _______ _______ _____ _____    ______ ____
ROOT
ATOM      1  C   UNL     1      -0.509  11.671  22.010  0.00  0.00    +0.000 C 
ATOM      2  O   UNL     1       0.286  11.027  22.700  0.00  0.00    +0.000 OA
ATOM      3  N   UNL     1      -0.691  11.367  20.651  0.00  0.00    +0.000 N 
ATOM      4  C   UNL     1      -0.011  10.174  20.101  0.00  0.00    +0.000 C 
ATOM      5  C   UNL     1      -0.030  10.014  18.562  0.00  0.00    +0.000 C 
ATOM      6  C   UNL     1      -1.338  10.454  17.969  0.00  0.00    +0.000 A 
ATOM      7  C   UNL     1      -1.909   9.842  16.846  0.00  0.00    +0.000 A 
ATOM      8  C   UNL     1      -3.163  10.245  16.350  0.00  0.00    +0.000 A 
ATOM      9  C   UNL     1      -3.863  11.278  16.996  0.00  0.00    +0.000 A 
ATOM     10  C   UNL     1      -3.249  11.929  18.076  0.00  0.00    +0.000 A 
ATOM     11  C   UNL     1      -1.984  11.542  18.551  0.00  0.00    +0.000 A 
ATOM     12  C   UNL     1      -1.323  12.289  19.695  0.00  0.00    +0.000 C 
ENDROOT
BRANCH  12  13
ATOM     13  C   UNL     1      -0.360  13.397  19.252  0.00  0.00    +0.000 A 
ATOM     14  C   UNL     1       1.007  13.164  19.036  0.00  0.00    +0.000 A 
ATOM     15  C   UNL     1       1.882  14.208  18.735  0.00  0.00    +0.000 A 
ATOM     16  C   UNL     1       1.430  15.527  18.649  0.00  0.00    +0.000 A 
ATOM     17  C   UNL     1       0.056  15.778  18.793  0.00  0.00    +0.000 A 
ATOM     18  C   UNL     1      -0.816  14.716  19.099  0.00  0.00    +0.000 A 
BRANCH  16  19
ATOM     19  O   UNL     1       2.292  16.565  18.417  0.00  0.00    +0.000 OA
ATOM     20  C   UNL     1       3.259  16.354  17.390  0.00  0.00    +0.000 C 
ENDBRANCH  16  19
BRANCH  17  21
ATOM     21  O   UNL     1      -0.587  16.988  18.746  0.00  0.00    +0.000 OA
ATOM     22  C   UNL     1      -0.633  17.662  17.495  0.00  0.00    +0.000 C 
ENDBRANCH  17  21
ENDBRANCH  12  13
BRANCH   8  23
ATOM     23  O   UNL     1      -3.541   9.517  15.249  0.00  0.00    +0.000 OA
ATOM     24  C   UNL     1      -3.395  10.094  13.959  0.00  0.00    +0.000 C 
ENDBRANCH   8  23
BRANCH   9  25
ATOM     25  O   UNL     1      -5.111  11.618  16.546  0.00  0.00    +0.000 OA
ATOM     26  C   UNL     1      -6.037  12.175  17.473  0.00  0.00    +0.000 C 
ENDBRANCH   9  25
BRANCH   1  27
ATOM     27  C   UNL     1      -1.397  12.770  22.658  0.00  0.00    +0.000 C 
BRANCH  27  28
ATOM     28  C   UNL     1      -0.720  14.139  22.498  0.00  0.00    +0.000 A 
ATOM     29  C   UNL     1       0.672  14.228  22.345  0.00  0.00    +0.000 A 
ATOM     30  C   UNL     1       1.294  15.478  22.267  0.00  0.00    +0.000 A 
ATOM     31  C   UNL     1       0.537  16.646  22.342  0.00  0.00    +0.000 A 
ATOM     32  C   UNL     1      -0.847  16.571  22.472  0.00  0.00    +0.000 A 
ATOM     33  C   UNL     1      -1.471  15.325  22.537  0.00  0.00    +0.000 A 
ENDBRANCH  27  28
BRANCH  27  35
ATOM     34  C   UNL     1      -3.925  12.651  23.158  0.00  0.00    +0.000 C 
ATOM     35  C   UNL     1      -2.840  12.871  22.116  0.00  0.00    +0.000 C 
ENDBRANCH  27  35
ENDBRANCH   1  27
TORSDOF 8
ENDMDL
MODEL 5
REMARK VINA RESULT:      -6.1      2.249      6.394
REMARK  Name = 
REMARK  13 active torsions:
REMARK  status: ('A' for Active; 'I' for Inactive)
REMARK    1  A    between atoms: C_1  and  C_2
REMARK    2  A    between atoms: C_2  and  C_3
REMARK    3  A    between atoms: C_3  and  C_4
REMARK    4  A    between atoms: C_3  and  C_30
REMARK    5  A    between atoms: C_11  and  O_12
REMARK    6  A    between atoms: O_12  and  C_13
REMARK    7  A    between atoms: C_14  and  O_15
REMARK    8  A    between atoms: O_15  and  C_16
REMARK    9  A    between atoms: C_19  and  C_20
REMARK   10  A    between atoms: C_23  and  O_24
REMARK   11  A    between atoms: O_24  and  C_25
REMARK   12  A    between atoms: C_26  and  O_27
REMARK   13  A    between atoms: O_27  and  C_28
REMARK                            x       y       z     vdW  Elec       q    Type
REMARK                         _______ _______ _______ _____ _____    ______ ____
ROOT
ATOM      1  C   UNL     1       0.672  13.199  20.738  0.00  0.00    +0.000 C 
ATOM      2  O   UNL     1       1.674  12.684  21.244  0.00  0.00    +0.000 OA
ATOM      3  N   UNL     1      -0.607  12.946  21.259  0.00  0.00    +0.000 N 
ATOM      4  C   UNL     1      -0.714  12.160  22.508  0.00  0.00    +0.000 C 
ATOM      5  C   UNL     1      -2.131  11.691  22.912  0.00  0.00    +0.000 C 
ATOM      6  C   UNL     1      -3.174  12.729  22.605  0.00  0.00    +0.000 A 
ATOM      7  C   UNL     1      -4.307  12.928  23.403  0.00  0.00    +0.000 A 
ATOM      8  C   UNL     1      -5.236  13.946  23.114  0.00  0.00    +0.000 A 
ATOM      9  C   UNL     1      -5.020  14.787  22.009  0.00  0.00    +0.000 A 
ATOM     10  C   UNL     1      -3.919  14.531  21.179  0.00  0.00    +0.000 A 
ATOM     11  C   UNL     1      -3.009  13.496  21.454  0.00  0.00    +0.000 A 
ATOM     12  C   UNL     1      -1.848  13.214  20.518  0.00  0.00    +0.000 C 
ENDROOT
BRANCH  12  13
ATOM     13  C   UNL     1      -2.131  12.129  19.471  0.00  0.00    +0.000 A 
ATOM     14  C   UNL     1      -1.115  11.335  18.917  0.00  0.00    +0.000 A 
ATOM     15  C   UNL     1      -1.383  10.428  17.891  0.00  0.00    +0.000 A 
ATOM     16  C   UNL     1      -2.671  10.286  17.371  0.00  0.00    +0.000 A 
ATOM     17  C   UNL     1      -3.717  11.018  17.954  0.00  0.00    +0.000 A 
ATOM     18  C   UNL     1      -3.434  11.932  18.987  0.00  0.00    +0.000 A 
BRANCH  16  19
ATOM     19  O   UNL     1      -2.931   9.444  16.322  0.00  0.00    +0.000 OA
ATOM     20  C   UNL     1      -2.915  10.042  15.026  0.00  0.00    +0.000 C 
ENDBRANCH  16  19
BRANCH  17  21
ATOM     21  O   UNL     1      -5.041  11.025  17.596  0.00  0.00    +0.000 OA
ATOM     22  C   UNL     1      -5.598  12.256  17.155  0.00  0.00    +0.000 C 
ENDBRANCH  17  21
ENDBRANCH  12  13
BRANCH   8  23
ATOM     23  O   UNL     1      -6.269  13.974  24.018  0.00  0.00    +0.000 OA
ATOM     24  C   UNL     1      -7.328  13.037  23.881  0.00  0.00    +0.000 C 
ENDBRANCH   8  23
BRANCH   9  25
ATOM     25  O   UNL     1      -5.893  15.816  21.777  0.00  0.00    +0.000 OA
ATOM     26  C   UNL     1      -5.548  16.788  20.796  0.00  0.00    +0.000 C 
ENDBRANCH   9  25
BRANCH   1  27
ATOM     27  C   UNL     1       0.819  14.216  19.572  0.00  0.00    +0.000 C 
BRANCH  27  28
ATOM     28  C   UNL     1       0.743  15.646  20.124  0.00  0.00    +0.000 A 
ATOM     29  C   UNL     1      -0.368  16.457  19.845  0.00  0.00    +0.000 A 
ATOM     30  C   UNL     1      -0.405  17.780  20.293  0.00  0.00    +0.000 A 
ATOM     31  C   UNL     1       0.662  18.308  21.019  0.00  0.00    +0.000 A 
ATOM     32  C   UNL     1       1.760  17.509  21.320  0.00  0.00    +0.000 A 
ATOM     33  C   UNL     1       1.794  16.183  20.886  0.00  0.00    +0.000 A 
ENDBRANCH  27  28
BRANCH  27  35
ATOM     34  C   UNL     1       2.304  12.721  18.084  0.00  0.00    +0.000 C 
ATOM     35  C   UNL     1       2.106  14.084  18.727  0.00  0.00    +0.000 C 
ENDBRANCH  27  35
ENDBRANCH   1  27
TORSDOF 8
ENDMDL
MODEL 6
REMARK VINA RESULT:      -6.1      2.351      6.195
REMARK  Name = 
REMARK  13 active torsions:
REMARK  status: ('A' for Active; 'I' for Inactive)
REMARK    1  A    between atoms: C_1  and  C_2
REMARK    2  A    between atoms: C_2  and  C_3
REMARK    3  A    between atoms: C_3  and  C_4
REMARK    4  A    between atoms: C_3  and  C_30
REMARK    5  A    between atoms: C_11  and  O_12
REMARK    6  A    between atoms: O_12  and  C_13
REMARK    7  A    between atoms: C_14  and  O_15
REMARK    8  A    between atoms: O_15  and  C_16
REMARK    9  A    between atoms: C_19  and  C_20
REMARK   10  A    between atoms: C_23  and  O_24
REMARK   11  A    between atoms: O_24  and  C_25
REMARK   12  A    between atoms: C_26  and  O_27
REMARK   13  A    between atoms: O_27  and  C_28
REMARK                            x       y       z     vdW  Elec       q    Type
REMARK                         _______ _______ _______ _____ _____    ______ ____
ROOT
ATOM      1  C   UNL     1       1.043  13.899  20.193  0.00  0.00    +0.000 C 
ATOM      2  O   UNL     1       1.171  14.535  21.243  0.00  0.00    +0.000 OA
ATOM      3  N   UNL     1      -0.112  13.138  19.949  0.00  0.00    +0.000 N 
ATOM      4  C   UNL     1      -1.227  13.225  20.917  0.00  0.00    +0.000 C 
ATOM      5  C   UNL     1      -2.369  12.194  20.752  0.00  0.00    +0.000 C 
ATOM      6  C   UNL     1      -2.670  11.916  19.306  0.00  0.00    +0.000 A 
ATOM      7  C   UNL     1      -3.959  11.638  18.837  0.00  0.00    +0.000 A 
ATOM      8  C   UNL     1      -4.212  11.436  17.467  0.00  0.00    +0.000 A 
ATOM      9  C   UNL     1      -3.152  11.521  16.548  0.00  0.00    +0.000 A 
ATOM     10  C   UNL     1      -1.855  11.731  17.039  0.00  0.00    +0.000 A 
ATOM     11  C   UNL     1      -1.603  11.905  18.410  0.00  0.00    +0.000 A 
ATOM     12  C   UNL     1      -0.185  12.089  18.921  0.00  0.00    +0.000 C 
ENDROOT
BRANCH  12  13
ATOM     13  C   UNL     1       0.493  10.793  19.382  0.00  0.00    +0.000 A 
ATOM     14  C   UNL     1       1.165   9.938  18.494  0.00  0.00    +0.000 A 
ATOM     15  C   UNL     1       1.682   8.714  18.917  0.00  0.00    +0.000 A 
ATOM     16  C   UNL     1       1.539   8.289  20.240  0.00  0.00    +0.000 A 
ATOM     17  C   UNL     1       0.932   9.154  21.164  0.00  0.00    +0.000 A 
ATOM     18  C   UNL     1       0.411  10.386  20.723  0.00  0.00    +0.000 A 
BRANCH  16  19
ATOM     19  O   UNL     1       1.988   7.062  20.650  0.00  0.00    +0.000 OA
ATOM     20  C   UNL     1       2.431   6.184  19.616  0.00  0.00    +0.000 C 
ENDBRANCH  16  19
BRANCH  17  21
ATOM     21  O   UNL     1       0.695   8.931  22.495  0.00  0.00    +0.000 OA
ATOM     22  C   UNL     1      -0.256   9.765  23.145  0.00  0.00    +0.000 C 
ENDBRANCH  17  21
ENDBRANCH  12  13
BRANCH   8  23
ATOM     23  O   UNL     1      -5.538  11.181  17.219  0.00  0.00    +0.000 OA
ATOM     24  C   UNL     1      -6.473  11.303  18.282  0.00  0.00    +0.000 C 
ENDBRANCH   8  23
BRANCH   9  25
ATOM     25  O   UNL     1      -3.420  11.390  15.211  0.00  0.00    +0.000 OA
ATOM     26  C   UNL     1      -3.246  10.113  14.608  0.00  0.00    +0.000 C 
ENDBRANCH   9  25
BRANCH   1  27
ATOM     27  C   UNL     1       2.119  14.007  19.077  0.00  0.00    +0.000 C 
BRANCH  27  28
ATOM     28  C   UNL     1       1.985  15.359  18.362  0.00  0.00    +0.000 A 
ATOM     29  C   UNL     1       2.984  15.797  17.479  0.00  0.00    +0.000 A 
ATOM     30  C   UNL     1       2.893  17.057  16.880  0.00  0.00    +0.000 A 
ATOM     31  C   UNL     1       1.811  17.891  17.157  0.00  0.00    +0.000 A 
ATOM     32  C   UNL     1       0.803  17.461  18.015  0.00  0.00    +0.000 A 
ATOM     33  C   UNL     1       0.884  16.198  18.603  0.00  0.00    +0.000 A 
ENDBRANCH  27  28
BRANCH  27  35
ATOM     34  C   UNL     1       4.084  14.937  20.465  0.00  0.00    +0.000 C 
ATOM     35  C   UNL     1       3.584  13.840  19.540  0.00  0.00    +0.000 C 
ENDBRANCH  27  35
ENDBRANCH   1  27
TORSDOF 8
ENDMDL
MODEL 7
REMARK VINA RESULT:      -6.1      2.345      6.161
REMARK  Name = 
REMARK  13 active torsions:
REMARK  status: ('A' for Active; 'I' for Inactive)
REMARK    1  A    between atoms: C_1  and  C_2
REMARK    2  A    between atoms: C_2  and  C_3
REMARK    3  A    between atoms: C_3  and  C_4
REMARK    4  A    between atoms: C_3  and  C_30
REMARK    5  A    between atoms: C_11  and  O_12
REMARK    6  A    between atoms: O_12  and  C_13
REMARK    7  A    between atoms: C_14  and  O_15
REMARK    8  A    between atoms: O_15  and  C_16
REMARK    9  A    between atoms: C_19  and  C_20
REMARK   10  A    between atoms: C_23  and  O_24
REMARK   11  A    between atoms: O_24  and  C_25
REMARK   12  A    between atoms: C_26  and  O_27
REMARK   13  A    between atoms: O_27  and  C_28
REMARK                            x       y       z     vdW  Elec       q    Type
REMARK                         _______ _______ _______ _____ _____    ______ ____
ROOT
ATOM      1  C   UNL     1       0.755  14.427  21.448  0.00  0.00    +0.000 C 
ATOM      2  O   UNL     1       1.398  14.949  22.363  0.00  0.00    +0.000 OA
ATOM      3  N   UNL     1      -0.450  13.755  21.709  0.00  0.00    +0.000 N 
ATOM      4  C   UNL     1      -1.000  13.805  23.081  0.00  0.00    +0.000 C 
ATOM      5  C   UNL     1      -2.182  12.857  23.389  0.00  0.00    +0.000 C 
ATOM      6  C   UNL     1      -3.124  12.738  22.224  0.00  0.00    +0.000 A 
ATOM      7  C   UNL     1      -4.506  12.576  22.376  0.00  0.00    +0.000 A 
ATOM      8  C   UNL     1      -5.365  12.522  21.261  0.00  0.00    +0.000 A 
ATOM      9  C   UNL     1      -4.827  12.642  19.968  0.00  0.00    +0.000 A 
ATOM     10  C   UNL     1      -3.435  12.734  19.828  0.00  0.00    +0.000 A 
ATOM     11  C   UNL     1      -2.579  12.759  20.942  0.00  0.00    +0.000 A 
ATOM     12  C   UNL     1      -1.073  12.817  20.762  0.00  0.00    +0.000 C 
ENDROOT
BRANCH  12  13
ATOM     13  C   UNL     1      -0.382  11.448  20.781  0.00  0.00    +0.000 A 
ATOM     14  C   UNL     1      -0.006  10.811  21.974  0.00  0.00    +0.000 A 
ATOM     15  C   UNL     1       0.715   9.617  21.962  0.00  0.00    +0.000 A 
ATOM     16  C   UNL     1       1.098   9.017  20.760  0.00  0.00    +0.000 A 
ATOM     17  C   UNL     1       0.676   9.597  19.553  0.00  0.00    +0.000 A 
ATOM     18  C   UNL     1      -0.049  10.804  19.579  0.00  0.00    +0.000 A 
BRANCH  16  19
ATOM     19  O   UNL     1       1.860   7.879  20.739  0.00  0.00    +0.000 OA
ATOM     20  C   UNL     1       1.146   6.650  20.873  0.00  0.00    +0.000 C 
ENDBRANCH  16  19
BRANCH  17  21
ATOM     21  O   UNL     1       0.942   9.172  18.277  0.00  0.00    +0.000 OA
ATOM     22  C   UNL     1       2.257   9.373  17.776  0.00  0.00    +0.000 C 
ENDBRANCH  17  21
ENDBRANCH  12  13
BRANCH   8  23
ATOM     23  O   UNL     1      -6.678  12.363  21.628  0.00  0.00    +0.000 OA
ATOM     24  C   UNL     1      -7.234  13.244  22.593  0.00  0.00    +0.000 C 
ENDBRANCH   8  23
BRANCH   9  25
ATOM     25  O   UNL     1      -5.677  12.656  18.894  0.00  0.00    +0.000 OA
ATOM     26  C   UNL     1      -5.364  11.840  17.772  0.00  0.00    +0.000 C 
ENDBRANCH   9  25
BRANCH   1  27
ATOM     27  C   UNL     1       1.221  14.587  19.974  0.00  0.00    +0.000 C 
BRANCH  27  28
ATOM     28  C   UNL     1       0.773  15.954  19.439  0.00  0.00    +0.000 A 
ATOM     29  C   UNL     1      -0.417  16.075  18.705  0.00  0.00    +0.000 A 
ATOM     30  C   UNL     1      -0.789  17.308  18.162  0.00  0.00    +0.000 A 
ATOM     31  C   UNL     1       0.020  18.429  18.342  0.00  0.00    +0.000 A 
ATOM     32  C   UNL     1       1.192  18.328  19.085  0.00  0.00    +0.000 A 
ATOM     33  C   UNL     1       1.559  17.101  19.640  0.00  0.00    +0.000 A 
ENDBRANCH  27  28
BRANCH  27  35
ATOM     34  C   UNL     1       3.108  13.682  18.465  0.00  0.00    +0.000 C 
ATOM     35  C   UNL     1       2.739  14.438  19.731  0.00  0.00    +0.000 C 
ENDBRANCH  27  35
ENDBRANCH   1  27
TORSDOF 8
ENDMDL
MODEL 8
REMARK VINA RESULT:      -6.1      2.218      6.339
REMARK  Name = 
REMARK  13 active torsions:
REMARK  status: ('A' for Active; 'I' for Inactive)
REMARK    1  A    between atoms: C_1  and  C_2
REMARK    2  A    between atoms: C_2  and  C_3
REMARK    3  A    between atoms: C_3  and  C_4
REMARK    4  A    between atoms: C_3  and  C_30
REMARK    5  A    between atoms: C_11  and  O_12
REMARK    6  A    between atoms: O_12  and  C_13
REMARK    7  A    between atoms: C_14  and  O_15
REMARK    8  A    between atoms: O_15  and  C_16
REMARK    9  A    between atoms: C_19  and  C_20
REMARK   10  A    between atoms: C_23  and  O_24
REMARK   11  A    between atoms: O_24  and  C_25
REMARK   12  A    between atoms: C_26  and  O_27
REMARK   13  A    between atoms: O_27  and  C_28
REMARK                            x       y       z     vdW  Elec       q    Type
REMARK                         _______ _______ _______ _____ _____    ______ ____
ROOT
ATOM      1  C   UNL     1       0.706  12.972  20.813  0.00  0.00    +0.000 C 
ATOM      2  O   UNL     1       1.667  12.386  21.321  0.00  0.00    +0.000 OA
ATOM      3  N   UNL     1      -0.591  12.799  21.323  0.00  0.00    +0.000 N 
ATOM      4  C   UNL     1      -0.760  12.009  22.562  0.00  0.00    +0.000 C 
ATOM      5  C   UNL     1      -2.208  11.632  22.951  0.00  0.00    +0.000 C 
ATOM      6  C   UNL     1      -3.177  12.740  22.649  0.00  0.00    +0.000 A 
ATOM      7  C   UNL     1      -4.301  13.006  23.440  0.00  0.00    +0.000 A 
ATOM      8  C   UNL     1      -5.157  14.087  23.157  0.00  0.00    +0.000 A 
ATOM      9  C   UNL     1      -4.877  14.922  22.062  0.00  0.00    +0.000 A 
ATOM     10  C   UNL     1      -3.789  14.603  21.237  0.00  0.00    +0.000 A 
ATOM     11  C   UNL     1      -2.953  13.506  21.507  0.00  0.00    +0.000 A 
ATOM     12  C   UNL     1      -1.806  13.157  20.576  0.00  0.00    +0.000 C 
ENDROOT
BRANCH  12  13
ATOM     13  C   UNL     1      -2.153  12.104  19.516  0.00  0.00    +0.000 A 
ATOM     14  C   UNL     1      -1.199  11.213  19.001  0.00  0.00    +0.000 A 
ATOM     15  C   UNL     1      -1.513  10.335  17.963  0.00  0.00    +0.000 A 
ATOM     16  C   UNL     1      -2.787  10.321  17.391  0.00  0.00    +0.000 A 
ATOM     17  C   UNL     1      -3.778  11.154  17.933  0.00  0.00    +0.000 A 
ATOM     18  C   UNL     1      -3.447  12.037  18.979  0.00  0.00    +0.000 A 
BRANCH  16  19
ATOM     19  O   UNL     1      -3.086   9.508  16.329  0.00  0.00    +0.000 OA
ATOM     20  C   UNL     1      -2.907  10.083  15.036  0.00  0.00    +0.000 C 
ENDBRANCH  16  19
BRANCH  17  21
ATOM     21  O   UNL     1      -5.079  11.292  17.521  0.00  0.00    +0.000 OA
ATOM     22  C   UNL     1      -6.103  10.950  18.445  0.00  0.00    +0.000 C 
ENDBRANCH  17  21
ENDBRANCH  12  13
BRANCH   8  23
ATOM     23  O   UNL     1      -6.193  14.174  24.054  0.00  0.00    +0.000 OA
ATOM     24  C   UNL     1      -7.188  13.160  24.056  0.00  0.00    +0.000 C 
ENDBRANCH   8  23
BRANCH   9  25
ATOM     25  O   UNL     1      -5.678  16.010  21.835  0.00  0.00    +0.000 OA
ATOM     26  C   UNL     1      -5.082  17.192  21.312  0.00  0.00    +0.000 C 
ENDBRANCH   9  25
BRANCH   1  27
ATOM     27  C   UNL     1       0.929  13.988  19.660  0.00  0.00    +0.000 C 
BRANCH  27  28
ATOM     28  C   UNL     1       0.294  15.336  20.031  0.00  0.00    +0.000 A 
ATOM     29  C   UNL     1       0.532  15.911  21.289  0.00  0.00    +0.000 A 
ATOM     30  C   UNL     1      -0.100  17.104  21.650  0.00  0.00    +0.000 A 
ATOM     31  C   UNL     1      -0.974  17.733  20.765  0.00  0.00    +0.000 A 
ATOM     32  C   UNL     1      -1.203  17.184  19.507  0.00  0.00    +0.000 A 
ATOM     33  C   UNL     1      -0.563  16.001  19.138  0.00  0.00    +0.000 A 
ENDBRANCH  27  28
BRANCH  27  35
ATOM     34  C   UNL     1       2.870  13.440  18.051  0.00  0.00    +0.000 C 
ATOM     35  C   UNL     1       2.401  14.234  19.259  0.00  0.00    +0.000 C 
ENDBRANCH  27  35
ENDBRANCH   1  27
TORSDOF 8
ENDMDL
MODEL 9
REMARK VINA RESULT:      -6.1      1.124      2.813
REMARK  Name = 
REMARK  13 active torsions:
REMARK  status: ('A' for Active; 'I' for Inactive)
REMARK    1  A    between atoms: C_1  and  C_2
REMARK    2  A    between atoms: C_2  and  C_3
REMARK    3  A    between atoms: C_3  and  C_4
REMARK    4  A    between atoms: C_3  and  C_30
REMARK    5  A    between atoms: C_11  and  O_12
REMARK    6  A    between atoms: O_12  and  C_13
REMARK    7  A    between atoms: C_14  and  O_15
REMARK    8  A    between atoms: O_15  and  C_16
REMARK    9  A    between atoms: C_19  and  C_20
REMARK   10  A    between atoms: C_23  and  O_24
REMARK   11  A    between atoms: O_24  and  C_25
REMARK   12  A    between atoms: C_26  and  O_27
REMARK   13  A    between atoms: O_27  and  C_28
REMARK                            x       y       z     vdW  Elec       q    Type
REMARK                         _______ _______ _______ _____ _____    ______ ____
ROOT
ATOM      1  C   UNL     1      -1.302  11.806  22.679  0.00  0.00    +0.000 C 
ATOM      2  O   UNL     1      -0.609  11.204  23.505  0.00  0.00    +0.000 OA
ATOM      3  N   UNL     1      -1.218  11.499  21.311  0.00  0.00    +0.000 N 
ATOM      4  C   UNL     1      -0.385  10.349  20.899  0.00  0.00    +0.000 C 
ATOM      5  C   UNL     1      -0.117  10.196  19.383  0.00  0.00    +0.000 C 
ATOM      6  C   UNL     1      -1.319  10.564  18.561  0.00  0.00    +0.000 A 
ATOM      7  C   UNL     1      -1.642   9.927  17.357  0.00  0.00    +0.000 A 
ATOM      8  C   UNL     1      -2.807  10.262  16.640  0.00  0.00    +0.000 A 
ATOM      9  C   UNL     1      -3.669  11.251  17.145  0.00  0.00    +0.000 A 
ATOM     10  C   UNL     1      -3.297  11.930  18.314  0.00  0.00    +0.000 A 
ATOM     11  C   UNL     1      -2.120  11.612  19.012  0.00  0.00    +0.000 A 
ATOM     12  C   UNL     1      -1.719  12.389  20.253  0.00  0.00    +0.000 C 
ENDROOT
BRANCH  12  13
ATOM     13  C   UNL     1      -0.755  13.552  19.984  0.00  0.00    +0.000 A 
ATOM     14  C   UNL     1      -1.188  14.787  19.477  0.00  0.00    +0.000 A 
ATOM     15  C   UNL     1      -0.281  15.792  19.142  0.00  0.00    +0.000 A 
ATOM     16  C   UNL     1       1.095  15.600  19.289  0.00  0.00    +0.000 A 
ATOM     17  C   UNL     1       1.551  14.401  19.858  0.00  0.00    +0.000 A 
ATOM     18  C   UNL     1       0.625  13.393  20.189  0.00  0.00    +0.000 A 
BRANCH  16  19
ATOM     19  O   UNL     1       1.996  16.557  18.904  0.00  0.00    +0.000 OA
ATOM     20  C   UNL     1       1.830  17.072  17.584  0.00  0.00    +0.000 C 
ENDBRANCH  16  19
BRANCH  17  21
ATOM     21  O   UNL     1       2.847  14.017  20.086  0.00  0.00    +0.000 OA
ATOM     22  C   UNL     1       3.407  14.308  21.359  0.00  0.00    +0.000 C 
ENDBRANCH  17  21
ENDBRANCH  12  13
BRANCH   8  23
ATOM     23  O   UNL     1      -2.940   9.519  15.493  0.00  0.00    +0.000 OA
ATOM     24  C   UNL     1      -3.063  10.192  14.248  0.00  0.00    +0.000 C 
ENDBRANCH   8  23
BRANCH   9  25
ATOM     25  O   UNL     1      -4.833  11.522  16.476  0.00  0.00    +0.000 OA
ATOM     26  C   UNL     1      -5.818  12.317  17.125  0.00  0.00    +0.000 C 
ENDBRANCH   9  25
BRANCH   1  27
ATOM     27  C   UNL     1      -2.352  12.850  23.150  0.00  0.00    +0.000 C 
BRANCH  27  28
ATOM     28  C   UNL     1      -1.794  14.267  22.951  0.00  0.00    +0.000 A 
ATOM     29  C   UNL     1      -0.449  14.546  23.232  0.00  0.00    +0.000 A 
ATOM     30  C   UNL     1       0.041  15.850  23.113  0.00  0.00    +0.000 A 
ATOM     31  C   UNL     1      -0.804  16.885  22.716  0.00  0.00    +0.000 A 
ATOM     32  C   UNL     1      -2.136  16.618  22.414  0.00  0.00    +0.000 A 
ATOM     33  C   UNL     1      -2.624  15.315  22.519  0.00  0.00    +0.000 A 
ENDBRANCH  27  28
BRANCH  27  35
ATOM     34  C   UNL     1      -4.918  12.877  23.412  0.00  0.00    +0.000 C 
ATOM     35  C   UNL     1      -3.734  12.766  22.466  0.00  0.00    +0.000 C 
ENDBRANCH  27  35
ENDBRANCH   1  27
TORSDOF 8
ENDMDL
