MODEL 1
REMARK VINA RESULT:      -7.7      0.000      0.000
REMARK  Name = 
REMARK  5 active torsions:
REMARK  status: ('A' for Active; 'I' for Inactive)
REMARK    1  A    between atoms: C_1  and  N_2
REMARK    2  A    between atoms: C_3  and  C_4
REMARK    3  A    between atoms: C_7  and  C_8
REMARK    4  A    between atoms: N_9  and  N_10
REMARK    5  A    between atoms: N_13  and  N_14
REMARK                            x       y       z     vdW  Elec       q    Type
REMARK                         _______ _______ _______ _____ _____    ______ ____
ROOT
ATOM      1  C   UNL     1       2.294   7.808  18.731  0.00  0.00    +0.000 A 
ATOM      2  C   UNL     1       1.714   8.884  18.058  0.00  0.00    +0.000 A 
ATOM      3  C   UNL     1       0.868   9.765  18.737  0.00  0.00    +0.000 A 
ATOM      4  C   UNL     1       0.585   9.565  20.091  0.00  0.00    +0.000 A 
ATOM      5  C   UNL     1       1.125   8.467  20.759  0.00  0.00    +0.000 A 
ATOM      6  C   UNL     1       1.971   7.580  20.078  0.00  0.00    +0.000 A 
ENDROOT
BRANCH   1   9
ATOM      7  C   UNL     1       1.991   4.650  17.942  0.00  0.00    +0.000 C 
ATOM      8  N   UNL     1       3.142   5.521  17.733  0.00  0.00    +0.000 N 
ATOM      9  C   UNL     1       3.252   6.902  18.013  0.00  0.00    +0.000 A 
ATOM     10  C   UNL     1       4.462   7.286  17.460  0.00  0.00    +0.000 A 
ATOM     11  N   UNL     1       5.070   6.163  16.945  0.00  0.00    +0.000 N 
ATOM     12  C   UNL     1       6.312   6.072  16.346  0.00  0.00    +0.000 A 
ATOM     13  C   UNL     1       6.689   4.864  15.887  0.00  0.00    +0.000 A 
ATOM     14  C   UNL     1       5.846   3.680  15.991  0.00  0.00    +0.000 A 
ATOM     15  C   UNL     1       4.644   3.764  16.588  0.00  0.00    +0.000 A 
ATOM     16  C   UNL     1       4.253   5.111  17.102  0.00  0.00    +0.000 A 
ENDBRANCH   1   9
BRANCH   4  17
ATOM     17  C   UNL     1      -0.265  10.535  20.814  0.00  0.00    +0.000 C 
ATOM     18  N   UNL     1       0.173  11.103  21.892  0.00  0.00    +0.000 NA
BRANCH  18  19
ATOM     19  N   UNL     1      -0.699  11.957  22.514  0.00  0.00    +0.000 N 
ATOM     20  C   UNL     1      -0.500  13.323  22.471  0.00  0.00    +0.000 C 
ATOM     21  N   UNL     1       0.592  13.791  21.947  0.00  0.00    +0.000 NA
ATOM     22  N   UNL     1      -1.526  14.070  23.017  0.00  0.00    +0.000 N 
ATOM     23  H   UNL     1      -1.661  11.652  22.613  0.00  0.00    +0.000 HD
ATOM     24  H   UNL     1       1.091  12.939  21.661  0.00  0.00    +0.000 HD
ATOM     25  H   UNL     1      -2.153  13.515  23.590  0.00  0.00    +0.000 HD
BRANCH  22  26
ATOM     26  N   UNL     1      -1.151  15.326  23.610  0.00  0.00    +0.000 NA
ATOM     27  C   UNL     1      -1.261  15.256  25.083  0.00  0.00    +0.000 C 
ATOM     28  C   UNL     1      -2.709  15.161  25.586  0.00  0.00    +0.000 C 
ATOM     29  O   UNL     1      -3.518  16.229  25.084  0.00  0.00    +0.000 OA
ATOM     30  C   UNL     1      -3.483  16.262  23.649  0.00  0.00    +0.000 C 
ATOM     31  C   UNL     1      -2.046  16.404  23.129  0.00  0.00    +0.000 C 
ENDBRANCH  22  26
ENDBRANCH  18  19
ENDBRANCH   4  17
TORSDOF 4
ENDMDL
MODEL 2
REMARK VINA RESULT:      -7.6      1.126      1.611
REMARK  Name = 
REMARK  5 active torsions:
REMARK  status: ('A' for Active; 'I' for Inactive)
REMARK    1  A    between atoms: C_1  and  N_2
REMARK    2  A    between atoms: C_3  and  C_4
REMARK    3  A    between atoms: C_7  and  C_8
REMARK    4  A    between atoms: N_9  and  N_10
REMARK    5  A    between atoms: N_13  and  N_14
REMARK                            x       y       z     vdW  Elec       q    Type
REMARK                         _______ _______ _______ _____ _____    ______ ____
ROOT
ATOM      1  C   UNL     1       2.350   7.945  18.514  0.00  0.00    +0.000 A 
ATOM      2  C   UNL     1       1.900   9.025  17.753  0.00  0.00    +0.000 A 
ATOM      3  C   UNL     1       1.120  10.024  18.341  0.00  0.00    +0.000 A 
ATOM      4  C   UNL     1       0.772   9.940  19.692  0.00  0.00    +0.000 A 
ATOM      5  C   UNL     1       1.180   8.842  20.449  0.00  0.00    +0.000 A 
ATOM      6  C   UNL     1       1.960   7.837  19.859  0.00  0.00    +0.000 A 
ENDROOT
BRANCH   1   9
ATOM      7  C   UNL     1       1.843   4.745  18.078  0.00  0.00    +0.000 C 
ATOM      8  N   UNL     1       3.043   5.515  17.767  0.00  0.00    +0.000 N 
ATOM      9  C   UNL     1       3.241   6.908  17.894  0.00  0.00    +0.000 A 
ATOM     10  C   UNL     1       4.465   7.153  17.294  0.00  0.00    +0.000 A 
ATOM     11  N   UNL     1       4.995   5.945  16.900  0.00  0.00    +0.000 N 
ATOM     12  C   UNL     1       6.221   5.712  16.307  0.00  0.00    +0.000 A 
ATOM     13  C   UNL     1       6.517   4.440  15.980  0.00  0.00    +0.000 A 
ATOM     14  C   UNL     1       5.604   3.330  16.219  0.00  0.00    +0.000 A 
ATOM     15  C   UNL     1       4.418   3.553  16.811  0.00  0.00    +0.000 A 
ATOM     16  C   UNL     1       4.117   4.970  17.178  0.00  0.00    +0.000 A 
ENDBRANCH   1   9
BRANCH   4  17
ATOM     17  C   UNL     1      -0.005  11.030  20.319  0.00  0.00    +0.000 C 
ATOM     18  N   UNL     1       0.519  11.737  21.269  0.00  0.00    +0.000 NA
BRANCH  18  19
ATOM     19  N   UNL     1      -0.290  12.698  21.815  0.00  0.00    +0.000 N 
ATOM     20  C   UNL     1      -1.105  12.407  22.891  0.00  0.00    +0.000 C 
ATOM     21  N   UNL     1      -1.199  11.180  23.305  0.00  0.00    +0.000 NA
ATOM     22  N   UNL     1      -1.760  13.499  23.427  0.00  0.00    +0.000 N 
ATOM     23  H   UNL     1       0.013  13.663  21.736  0.00  0.00    +0.000 HD
ATOM     24  H   UNL     1      -0.576  10.675  22.662  0.00  0.00    +0.000 HD
ATOM     25  H   UNL     1      -1.748  14.305  22.811  0.00  0.00    +0.000 HD
BRANCH  22  26
ATOM     26  N   UNL     1      -3.042  13.239  24.027  0.00  0.00    +0.000 NA
ATOM     27  C   UNL     1      -4.094  13.177  22.989  0.00  0.00    +0.000 C 
ATOM     28  C   UNL     1      -4.390  14.533  22.333  0.00  0.00    +0.000 C 
ATOM     29  O   UNL     1      -4.718  15.532  23.303  0.00  0.00    +0.000 OA
ATOM     30  C   UNL     1      -3.669  15.661  24.275  0.00  0.00    +0.000 C 
ATOM     31  C   UNL     1      -3.390  14.323  24.974  0.00  0.00    +0.000 C 
ENDBRANCH  22  26
ENDBRANCH  18  19
ENDBRANCH   4  17
TORSDOF 4
ENDMDL
MODEL 3
REMARK VINA RESULT:      -7.5      1.379      1.847
REMARK  Name = 
REMARK  5 active torsions:
REMARK  status: ('A' for Active; 'I' for Inactive)
REMARK    1  A    between atoms: C_1  and  N_2
REMARK    2  A    between atoms: C_3  and  C_4
REMARK    3  A    between atoms: C_7  and  C_8
REMARK    4  A    between atoms: N_9  and  N_10
REMARK    5  A    between atoms: N_13  and  N_14
REMARK                            x       y       z     vdW  Elec       q    Type
REMARK                         _______ _______ _______ _____ _____    ______ ____
ROOT
ATOM      1  C   UNL     1       2.263   7.974  18.491  0.00  0.00    +0.000 A 
ATOM      2  C   UNL     1       1.946   7.910  19.848  0.00  0.00    +0.000 A 
ATOM      3  C   UNL     1       1.004   8.787  20.392  0.00  0.00    +0.000 A 
ATOM      4  C   UNL     1       0.385   9.745  19.584  0.00  0.00    +0.000 A 
ATOM      5  C   UNL     1       0.730   9.845  18.236  0.00  0.00    +0.000 A 
ATOM      6  C   UNL     1       1.678   8.967  17.689  0.00  0.00    +0.000 A 
ENDROOT
BRANCH   1   9
ATOM      7  C   UNL     1       1.915   4.766  17.969  0.00  0.00    +0.000 C 
ATOM      8  N   UNL     1       3.096   5.591  17.736  0.00  0.00    +0.000 N 
ATOM      9  C   UNL     1       3.228   6.988  17.898  0.00  0.00    +0.000 A 
ATOM     10  C   UNL     1       4.469   7.296  17.367  0.00  0.00    +0.000 A 
ATOM     11  N   UNL     1       5.070   6.120  16.979  0.00  0.00    +0.000 N 
ATOM     12  C   UNL     1       6.333   5.949  16.445  0.00  0.00    +0.000 A 
ATOM     13  C   UNL     1       6.699   4.698  16.111  0.00  0.00    +0.000 A 
ATOM     14  C   UNL     1       5.823   3.546  16.282  0.00  0.00    +0.000 A 
ATOM     15  C   UNL     1       4.599   3.708  16.815  0.00  0.00    +0.000 A 
ATOM     16  C   UNL     1       4.221   5.103  17.192  0.00  0.00    +0.000 A 
ENDBRANCH   1   9
BRANCH   4  17
ATOM     17  C   UNL     1      -0.651  10.630  20.156  0.00  0.00    +0.000 C 
ATOM     18  N   UNL     1      -0.410  11.893  20.315  0.00  0.00    +0.000 NA
BRANCH  18  19
ATOM     19  N   UNL     1      -1.416  12.626  20.887  0.00  0.00    +0.000 N 
ATOM     20  C   UNL     1      -1.409  12.897  22.241  0.00  0.00    +0.000 C 
ATOM     21  N   UNL     1      -0.510  12.342  22.997  0.00  0.00    +0.000 NA
ATOM     22  N   UNL     1      -2.404  13.760  22.659  0.00  0.00    +0.000 N 
ATOM     23  H   UNL     1      -1.891  13.304  20.302  0.00  0.00    +0.000 HD
ATOM     24  H   UNL     1       0.034  11.781  22.329  0.00  0.00    +0.000 HD
ATOM     25  H   UNL     1      -3.140  13.872  21.970  0.00  0.00    +0.000 HD
BRANCH  22  26
ATOM     26  N   UNL     1      -2.884  13.572  24.003  0.00  0.00    +0.000 NA
ATOM     27  C   UNL     1      -3.971  12.570  24.028  0.00  0.00    +0.000 C 
ATOM     28  C   UNL     1      -5.267  13.053  23.361  0.00  0.00    +0.000 C 
ATOM     29  O   UNL     1      -5.725  14.287  23.921  0.00  0.00    +0.000 OA
ATOM     30  C   UNL     1      -4.707  15.295  23.833  0.00  0.00    +0.000 C 
ATOM     31  C   UNL     1      -3.417  14.847  24.535  0.00  0.00    +0.000 C 
ENDBRANCH  22  26
ENDBRANCH  18  19
ENDBRANCH   4  17
TORSDOF 4
ENDMDL
MODEL 4
REMARK VINA RESULT:      -7.5      3.822     11.878
REMARK  Name = 
REMARK  5 active torsions:
REMARK  status: ('A' for Active; 'I' for Inactive)
REMARK    1  A    between atoms: C_1  and  N_2
REMARK    2  A    between atoms: C_3  and  C_4
REMARK    3  A    between atoms: C_7  and  C_8
REMARK    4  A    between atoms: N_9  and  N_10
REMARK    5  A    between atoms: N_13  and  N_14
REMARK                            x       y       z     vdW  Elec       q    Type
REMARK                         _______ _______ _______ _____ _____    ______ ____
ROOT
ATOM      1  C   UNL     1      -1.773  12.277  22.661  0.00  0.00    +0.000 A 
ATOM      2  C   UNL     1      -1.723  11.101  23.410  0.00  0.00    +0.000 A 
ATOM      3  C   UNL     1      -0.800  10.101  23.089  0.00  0.00    +0.000 A 
ATOM      4  C   UNL     1       0.068  10.267  22.007  0.00  0.00    +0.000 A 
ATOM      5  C   UNL     1      -0.005  11.421  21.227  0.00  0.00    +0.000 A 
ATOM      6  C   UNL     1      -0.934  12.423  21.545  0.00  0.00    +0.000 A 
ENDROOT
BRANCH   1   9
ATOM      7  C   UNL     1      -1.279  14.896  24.554  0.00  0.00    +0.000 C 
ATOM      8  N   UNL     1      -2.521  14.468  23.920  0.00  0.00    +0.000 N 
ATOM      9  C   UNL     1      -2.722  13.374  23.049  0.00  0.00    +0.000 A 
ATOM     10  C   UNL     1      -4.018  13.518  22.584  0.00  0.00    +0.000 A 
ATOM     11  N   UNL     1      -4.578  14.607  23.213  0.00  0.00    +0.000 N 
ATOM     12  C   UNL     1      -5.868  15.087  23.090  0.00  0.00    +0.000 A 
ATOM     13  C   UNL     1      -6.185  16.193  23.787  0.00  0.00    +0.000 A 
ATOM     14  C   UNL     1      -5.231  16.890  24.640  0.00  0.00    +0.000 A 
ATOM     15  C   UNL     1      -3.980  16.416  24.774  0.00  0.00    +0.000 A 
ATOM     16  C   UNL     1      -3.656  15.179  24.003  0.00  0.00    +0.000 A 
ENDBRANCH   1   9
BRANCH   4  17
ATOM     17  C   UNL     1       1.079   9.230  21.711  0.00  0.00    +0.000 C 
ATOM     18  N   UNL     1       0.754   8.186  21.018  0.00  0.00    +0.000 NA
BRANCH  18  19
ATOM     19  N   UNL     1       1.747   7.262  20.827  0.00  0.00    +0.000 N 
ATOM     20  C   UNL     1       2.421   7.189  19.624  0.00  0.00    +0.000 C 
ATOM     21  N   UNL     1       2.020   7.915  18.625  0.00  0.00    +0.000 NA
ATOM     22  N   UNL     1       3.488   6.311  19.616  0.00  0.00    +0.000 N 
ATOM     23  H   UNL     1       2.265   6.957  21.644  0.00  0.00    +0.000 HD
ATOM     24  H   UNL     1       1.216   8.421  19.019  0.00  0.00    +0.000 HD
ATOM     25  H   UNL     1       3.472   5.668  20.400  0.00  0.00    +0.000 HD
BRANCH  22  26
ATOM     26  N   UNL     1       3.787   5.687  18.354  0.00  0.00    +0.000 NA
ATOM     27  C   UNL     1       3.668   4.217  18.463  0.00  0.00    +0.000 C 
ATOM     28  C   UNL     1       4.763   3.576  19.329  0.00  0.00    +0.000 C 
ATOM     29  O   UNL     1       6.072   3.929  18.877  0.00  0.00    +0.000 OA
ATOM     30  C   UNL     1       6.230   5.356  18.840  0.00  0.00    +0.000 C 
ATOM     31  C   UNL     1       5.172   6.011  17.942  0.00  0.00    +0.000 C 
ENDBRANCH  22  26
ENDBRANCH  18  19
ENDBRANCH   4  17
TORSDOF 4
ENDMDL
MODEL 5
REMARK VINA RESULT:      -7.5      1.689      2.009
REMARK  Name = 
REMARK  5 active torsions:
REMARK  status: ('A' for Active; 'I' for Inactive)
REMARK    1  A    between atoms: C_1  and  N_2
REMARK    2  A    between atoms: C_3  and  C_4
REMARK    3  A    between atoms: C_7  and  C_8
REMARK    4  A    between atoms: N_9  and  N_10
REMARK    5  A    between atoms: N_13  and  N_14
REMARK                            x       y       z     vdW  Elec       q    Type
REMARK                         _______ _______ _______ _____ _____    ______ ____
ROOT
ATOM      1  C   UNL     1       2.458   7.596  18.731  0.00  0.00    +0.000 A 
ATOM      2  C   UNL     1       1.898   8.719  18.122  0.00  0.00    +0.000 A 
ATOM      3  C   UNL     1       1.057   9.567  18.848  0.00  0.00    +0.000 A 
ATOM      4  C   UNL     1       0.759   9.286  20.184  0.00  0.00    +0.000 A 
ATOM      5  C   UNL     1       1.278   8.141  20.787  0.00  0.00    +0.000 A 
ATOM      6  C   UNL     1       2.120   7.287  20.058  0.00  0.00    +0.000 A 
ENDROOT
BRANCH   1   9
ATOM      7  C   UNL     1       2.139   4.485  17.777  0.00  0.00    +0.000 C 
ATOM      8  N   UNL     1       3.295   5.360  17.614  0.00  0.00    +0.000 N 
ATOM      9  C   UNL     1       3.411   6.724  17.965  0.00  0.00    +0.000 A 
ATOM     10  C   UNL     1       4.622   7.131  17.432  0.00  0.00    +0.000 A 
ATOM     11  N   UNL     1       5.225   6.034  16.858  0.00  0.00    +0.000 N 
ATOM     12  C   UNL     1       6.466   5.968  16.253  0.00  0.00    +0.000 A 
ATOM     13  C   UNL     1       6.836   4.784  15.732  0.00  0.00    +0.000 A 
ATOM     14  C   UNL     1       5.988   3.600  15.775  0.00  0.00    +0.000 A 
ATOM     15  C   UNL     1       4.787   3.659  16.376  0.00  0.00    +0.000 A 
ATOM     16  C   UNL     1       4.403   4.978  16.961  0.00  0.00    +0.000 A 
ENDBRANCH   1   9
BRANCH   4  17
ATOM     17  C   UNL     1      -0.085  10.219  20.960  0.00  0.00    +0.000 C 
ATOM     18  N   UNL     1      -0.810  11.100  20.348  0.00  0.00    +0.000 NA
BRANCH  18  19
ATOM     19  N   UNL     1      -1.529  11.945  21.152  0.00  0.00    +0.000 N 
ATOM     20  C   UNL     1      -2.588  12.672  20.644  0.00  0.00    +0.000 C 
ATOM     21  N   UNL     1      -2.820  12.650  19.366  0.00  0.00    +0.000 NA
ATOM     22  N   UNL     1      -3.309  13.374  21.590  0.00  0.00    +0.000 N 
ATOM     23  H   UNL     1      -1.579  11.721  22.139  0.00  0.00    +0.000 HD
ATOM     24  H   UNL     1      -2.081  12.030  19.011  0.00  0.00    +0.000 HD
ATOM     25  H   UNL     1      -2.818  13.459  22.473  0.00  0.00    +0.000 HD
BRANCH  22  26
ATOM     26  N   UNL     1      -3.923  14.596  21.142  0.00  0.00    +0.000 NA
ATOM     27  C   UNL     1      -3.515  15.725  22.005  0.00  0.00    +0.000 C 
ATOM     28  C   UNL     1      -4.097  15.654  23.425  0.00  0.00    +0.000 C 
ATOM     29  O   UNL     1      -5.523  15.539  23.410  0.00  0.00    +0.000 OA
ATOM     30  C   UNL     1      -5.933  14.399  22.639  0.00  0.00    +0.000 C 
ATOM     31  C   UNL     1      -5.398  14.476  21.202  0.00  0.00    +0.000 C 
ENDBRANCH  22  26
ENDBRANCH  18  19
ENDBRANCH   4  17
TORSDOF 4
ENDMDL
MODEL 6
REMARK VINA RESULT:      -7.4      5.048     11.611
REMARK  Name = 
REMARK  5 active torsions:
REMARK  status: ('A' for Active; 'I' for Inactive)
REMARK    1  A    between atoms: C_1  and  N_2
REMARK    2  A    between atoms: C_3  and  C_4
REMARK    3  A    between atoms: C_7  and  C_8
REMARK    4  A    between atoms: N_9  and  N_10
REMARK    5  A    between atoms: N_13  and  N_14
REMARK                            x       y       z     vdW  Elec       q    Type
REMARK                         _______ _______ _______ _____ _____    ______ ____
ROOT
ATOM      1  C   UNL     1      -2.324  11.217  18.734  0.00  0.00    +0.000 A 
ATOM      2  C   UNL     1      -1.341  11.454  19.694  0.00  0.00    +0.000 A 
ATOM      3  C   UNL     1      -0.072  10.885  19.557  0.00  0.00    +0.000 A 
ATOM      4  C   UNL     1       0.215  10.061  18.465  0.00  0.00    +0.000 A 
ATOM      5  C   UNL     1      -0.776   9.783  17.525  0.00  0.00    +0.000 A 
ATOM      6  C   UNL     1      -2.051  10.351  17.663  0.00  0.00    +0.000 A 
ENDROOT
BRANCH   1   9
ATOM      7  C   UNL     1      -3.459  13.236  21.041  0.00  0.00    +0.000 C 
ATOM      8  N   UNL     1      -4.172  12.701  19.886  0.00  0.00    +0.000 N 
ATOM      9  C   UNL     1      -3.665  11.883  18.852  0.00  0.00    +0.000 A 
ATOM     10  C   UNL     1      -4.681  11.818  17.913  0.00  0.00    +0.000 A 
ATOM     11  N   UNL     1      -5.764  12.507  18.411  0.00  0.00    +0.000 N 
ATOM     12  C   UNL     1      -7.010  12.659  17.832  0.00  0.00    +0.000 A 
ATOM     13  C   UNL     1      -7.911  13.407  18.495  0.00  0.00    +0.000 A 
ATOM     14  C   UNL     1      -7.620  14.055  19.767  0.00  0.00    +0.000 A 
ATOM     15  C   UNL     1      -6.413  13.895  20.339  0.00  0.00    +0.000 A 
ATOM     16  C   UNL     1      -5.434  13.048  19.593  0.00  0.00    +0.000 A 
ENDBRANCH   1   9
BRANCH   4  17
ATOM     17  C   UNL     1       1.576   9.509  18.299  0.00  0.00    +0.000 C 
ATOM     18  N   UNL     1       1.739   8.251  18.038  0.00  0.00    +0.000 NA
BRANCH  18  19
ATOM     19  N   UNL     1       3.037   7.825  17.939  0.00  0.00    +0.000 N 
ATOM     20  C   UNL     1       3.330   6.482  17.805  0.00  0.00    +0.000 C 
ATOM     21  N   UNL     1       2.374   5.608  17.904  0.00  0.00    +0.000 NA
ATOM     22  N   UNL     1       4.664   6.205  17.575  0.00  0.00    +0.000 N 
ATOM     23  H   UNL     1       3.710   8.467  17.537  0.00  0.00    +0.000 HD
ATOM     24  H   UNL     1       1.547   6.195  18.074  0.00  0.00    +0.000 HD
ATOM     25  H   UNL     1       5.269   6.992  17.785  0.00  0.00    +0.000 HD
BRANCH  22  26
ATOM     26  N   UNL     1       5.147   4.946  18.076  0.00  0.00    +0.000 NA
ATOM     27  C   UNL     1       6.351   5.150  18.911  0.00  0.00    +0.000 C 
ATOM     28  C   UNL     1       7.584   5.594  18.111  0.00  0.00    +0.000 C 
ATOM     29  O   UNL     1       7.877   4.692  17.041  0.00  0.00    +0.000 OA
ATOM     30  C   UNL     1       6.741   4.543  16.175  0.00  0.00    +0.000 C 
ATOM     31  C   UNL     1       5.510   4.055  16.950  0.00  0.00    +0.000 C 
ENDBRANCH  22  26
ENDBRANCH  18  19
ENDBRANCH   4  17
TORSDOF 4
ENDMDL
MODEL 7
REMARK VINA RESULT:      -7.4      3.782     11.651
REMARK  Name = 
REMARK  5 active torsions:
REMARK  status: ('A' for Active; 'I' for Inactive)
REMARK    1  A    between atoms: C_1  and  N_2
REMARK    2  A    between atoms: C_3  and  C_4
REMARK    3  A    between atoms: C_7  and  C_8
REMARK    4  A    between atoms: N_9  and  N_10
REMARK    5  A    between atoms: N_13  and  N_14
REMARK                            x       y       z     vdW  Elec       q    Type
REMARK                         _______ _______ _______ _____ _____    ______ ____
ROOT
ATOM      1  C   UNL     1      -1.581  11.718  22.138  0.00  0.00    +0.000 A 
ATOM      2  C   UNL     1      -1.123  11.417  20.855  0.00  0.00    +0.000 A 
ATOM      3  C   UNL     1      -0.373  10.259  20.630  0.00  0.00    +0.000 A 
ATOM      4  C   UNL     1      -0.063   9.405  21.691  0.00  0.00    +0.000 A 
ATOM      5  C   UNL     1      -0.478   9.722  22.984  0.00  0.00    +0.000 A 
ATOM      6  C   UNL     1      -1.229  10.885  23.212  0.00  0.00    +0.000 A 
ENDROOT
BRANCH   1   9
ATOM      7  C   UNL     1      -0.780  14.660  23.319  0.00  0.00    +0.000 C 
ATOM      8  N   UNL     1      -2.102  14.175  22.936  0.00  0.00    +0.000 N 
ATOM      9  C   UNL     1      -2.440  12.928  22.364  0.00  0.00    +0.000 A 
ATOM     10  C   UNL     1      -3.777  13.042  22.018  0.00  0.00    +0.000 A 
ATOM     11  N   UNL     1      -4.221  14.276  22.438  0.00  0.00    +0.000 N 
ATOM     12  C   UNL     1      -5.500  14.792  22.346  0.00  0.00    +0.000 A 
ATOM     13  C   UNL     1      -5.695  16.043  22.801  0.00  0.00    +0.000 A 
ATOM     14  C   UNL     1      -4.625  16.855  23.367  0.00  0.00    +0.000 A 
ATOM     15  C   UNL     1      -3.384  16.348  23.471  0.00  0.00    +0.000 A 
ATOM     16  C   UNL     1      -3.194  14.953  22.974  0.00  0.00    +0.000 A 
ENDBRANCH   1   9
BRANCH   4  17
ATOM     17  C   UNL     1       0.682   8.154  21.434  0.00  0.00    +0.000 C 
ATOM     18  N   UNL     1       1.634   8.135  20.556  0.00  0.00    +0.000 NA
BRANCH  18  19
ATOM     19  N   UNL     1       2.240   6.922  20.359  0.00  0.00    +0.000 N 
ATOM     20  C   UNL     1       2.690   6.554  19.106  0.00  0.00    +0.000 C 
ATOM     21  N   UNL     1       2.418   7.308  18.084  0.00  0.00    +0.000 NA
ATOM     22  N   UNL     1       3.404   5.372  19.077  0.00  0.00    +0.000 N 
ATOM     23  H   UNL     1       2.735   6.514  21.144  0.00  0.00    +0.000 HD
ATOM     24  H   UNL     1       1.880   8.077  18.506  0.00  0.00    +0.000 HD
ATOM     25  H   UNL     1       3.285   4.821  19.921  0.00  0.00    +0.000 HD
BRANCH  22  26
ATOM     26  N   UNL     1       3.317   4.606  17.862  0.00  0.00    +0.000 NA
ATOM     27  C   UNL     1       1.948   4.078  17.682  0.00  0.00    +0.000 C 
ATOM     28  C   UNL     1       1.572   2.987  18.696  0.00  0.00    +0.000 C 
ATOM     29  O   UNL     1       2.516   1.913  18.695  0.00  0.00    +0.000 OA
ATOM     30  C   UNL     1       3.843   2.401  18.947  0.00  0.00    +0.000 C 
ATOM     31  C   UNL     1       4.253   3.459  17.914  0.00  0.00    +0.000 C 
ENDBRANCH  22  26
ENDBRANCH  18  19
ENDBRANCH   4  17
TORSDOF 4
ENDMDL
MODEL 8
REMARK VINA RESULT:      -7.4      5.045     11.590
REMARK  Name = 
REMARK  5 active torsions:
REMARK  status: ('A' for Active; 'I' for Inactive)
REMARK    1  A    between atoms: C_1  and  N_2
REMARK    2  A    between atoms: C_3  and  C_4
REMARK    3  A    between atoms: C_7  and  C_8
REMARK    4  A    between atoms: N_9  and  N_10
REMARK    5  A    between atoms: N_13  and  N_14
REMARK                            x       y       z     vdW  Elec       q    Type
REMARK                         _______ _______ _______ _____ _____    ______ ____
ROOT
ATOM      1  C   UNL     1      -2.391  11.259  18.738  0.00  0.00    +0.000 A 
ATOM      2  C   UNL     1      -1.282  11.601  19.512  0.00  0.00    +0.000 A 
ATOM      3  C   UNL     1      -0.044  11.000  19.271  0.00  0.00    +0.000 A 
ATOM      4  C   UNL     1       0.088  10.041  18.263  0.00  0.00    +0.000 A 
ATOM      5  C   UNL     1      -1.026   9.662  17.514  0.00  0.00    +0.000 A 
ATOM      6  C   UNL     1      -2.270  10.262  17.758  0.00  0.00    +0.000 A 
ENDROOT
BRANCH   1   9
ATOM      7  C   UNL     1      -5.026  11.412  16.808  0.00  0.00    +0.000 C 
ATOM      8  N   UNL     1      -4.814  12.071  18.093  0.00  0.00    +0.000 N 
ATOM      9  C   UNL     1      -3.704  11.954  18.959  0.00  0.00    +0.000 A 
ATOM     10  C   UNL     1      -4.078  12.620  20.114  0.00  0.00    +0.000 A 
ATOM     11  N   UNL     1      -5.323  13.168  19.906  0.00  0.00    +0.000 N 
ATOM     12  C   UNL     1      -6.057  13.957  20.771  0.00  0.00    +0.000 A 
ATOM     13  C   UNL     1      -7.274  14.358  20.359  0.00  0.00    +0.000 A 
ATOM     14  C   UNL     1      -7.833  13.988  19.065  0.00  0.00    +0.000 A 
ATOM     15  C   UNL     1      -7.114  13.233  18.216  0.00  0.00    +0.000 A 
ATOM     16  C   UNL     1      -5.760  12.813  18.688  0.00  0.00    +0.000 A 
ENDBRANCH   1   9
BRANCH   4  17
ATOM     17  C   UNL     1       1.414   9.454  17.977  0.00  0.00    +0.000 C 
ATOM     18  N   UNL     1       1.728   8.296  18.464  0.00  0.00    +0.000 NA
BRANCH  18  19
ATOM     19  N   UNL     1       2.992   7.850  18.176  0.00  0.00    +0.000 N 
ATOM     20  C   UNL     1       3.236   6.506  17.970  0.00  0.00    +0.000 C 
ATOM     21  N   UNL     1       2.284   5.647  18.178  0.00  0.00    +0.000 NA
ATOM     22  N   UNL     1       4.520   6.214  17.552  0.00  0.00    +0.000 N 
ATOM     23  H   UNL     1       3.617   8.492  17.702  0.00  0.00    +0.000 HD
ATOM     24  H   UNL     1       1.501   6.243  18.474  0.00  0.00    +0.000 HD
ATOM     25  H   UNL     1       5.164   6.984  17.697  0.00  0.00    +0.000 HD
BRANCH  22  26
ATOM     26  N   UNL     1       5.041   4.933  17.951  0.00  0.00    +0.000 NA
ATOM     27  C   UNL     1       6.242   5.105  18.797  0.00  0.00    +0.000 C 
ATOM     28  C   UNL     1       7.459   5.647  18.032  0.00  0.00    +0.000 C 
ATOM     29  O   UNL     1       7.772   4.841  16.893  0.00  0.00    +0.000 OA
ATOM     30  C   UNL     1       6.638   4.728  16.021  0.00  0.00    +0.000 C 
ATOM     31  C   UNL     1       5.424   4.145  16.758  0.00  0.00    +0.000 C 
ENDBRANCH  22  26
ENDBRANCH  18  19
ENDBRANCH   4  17
TORSDOF 4
ENDMDL
MODEL 9
REMARK VINA RESULT:      -7.3      3.992     11.771
REMARK  Name = 
REMARK  5 active torsions:
REMARK  status: ('A' for Active; 'I' for Inactive)
REMARK    1  A    between atoms: C_1  and  N_2
REMARK    2  A    between atoms: C_3  and  C_4
REMARK    3  A    between atoms: C_7  and  C_8
REMARK    4  A    between atoms: N_9  and  N_10
REMARK    5  A    between atoms: N_13  and  N_14
REMARK                            x       y       z     vdW  Elec       q    Type
REMARK                         _______ _______ _______ _____ _____    ______ ____
ROOT
ATOM      1  C   UNL     1      -2.089  12.177  22.324  0.00  0.00    +0.000 A 
ATOM      2  C   UNL     1      -1.363  12.189  21.132  0.00  0.00    +0.000 A 
ATOM      3  C   UNL     1      -0.353  11.249  20.914  0.00  0.00    +0.000 A 
ATOM      4  C   UNL     1      -0.052  10.300  21.895  0.00  0.00    +0.000 A 
ATOM      5  C   UNL     1      -0.743  10.309  23.107  0.00  0.00    +0.000 A 
ATOM      6  C   UNL     1      -1.755  11.255  23.328  0.00  0.00    +0.000 A 
ENDROOT
BRANCH   1   9
ATOM      7  C   UNL     1      -2.232  14.849  24.202  0.00  0.00    +0.000 C 
ATOM      8  N   UNL     1      -3.294  14.264  23.390  0.00  0.00    +0.000 N 
ATOM      9  C   UNL     1      -3.216  13.149  22.526  0.00  0.00    +0.000 A 
ATOM     10  C   UNL     1      -4.428  13.126  21.857  0.00  0.00    +0.000 A 
ATOM     11  N   UNL     1      -5.211  14.140  22.361  0.00  0.00    +0.000 N 
ATOM     12  C   UNL     1      -6.513  14.454  22.020  0.00  0.00    +0.000 A 
ATOM     13  C   UNL     1      -7.072  15.516  22.629  0.00  0.00    +0.000 A 
ATOM     14  C   UNL     1      -6.361  16.332  23.605  0.00  0.00    +0.000 A 
ATOM     15  C   UNL     1      -5.100  16.019  23.949  0.00  0.00    +0.000 A 
ATOM     16  C   UNL     1      -4.506  14.828  23.272  0.00  0.00    +0.000 A 
ENDBRANCH   1   9
BRANCH   4  17
ATOM     17  C   UNL     1       0.979   9.273  21.632  0.00  0.00    +0.000 C 
ATOM     18  N   UNL     1       0.666   8.187  21.000  0.00  0.00    +0.000 NA
BRANCH  18  19
ATOM     19  N   UNL     1       1.679   7.279  20.837  0.00  0.00    +0.000 N 
ATOM     20  C   UNL     1       2.368   7.196  19.643  0.00  0.00    +0.000 C 
ATOM     21  N   UNL     1       1.966   7.897  18.627  0.00  0.00    +0.000 NA
ATOM     22  N   UNL     1       3.450   6.338  19.663  0.00  0.00    +0.000 N 
ATOM     23  H   UNL     1       2.192   6.998  21.665  0.00  0.00    +0.000 HD
ATOM     24  H   UNL     1       1.148   8.395  19.002  0.00  0.00    +0.000 HD
ATOM     25  H   UNL     1       3.437   5.709  20.459  0.00  0.00    +0.000 HD
BRANCH  22  26
ATOM     26  N   UNL     1       3.776   5.697  18.417  0.00  0.00    +0.000 NA
ATOM     27  C   UNL     1       3.603   4.233  18.528  0.00  0.00    +0.000 C 
ATOM     28  C   UNL     1       4.642   3.560  19.438  0.00  0.00    +0.000 C 
ATOM     29  O   UNL     1       5.979   3.866  19.035  0.00  0.00    +0.000 OA
ATOM     30  C   UNL     1       6.186   5.286  18.997  0.00  0.00    +0.000 C 
ATOM     31  C   UNL     1       5.186   5.971  18.056  0.00  0.00    +0.000 C 
ENDBRANCH  22  26
ENDBRANCH  18  19
ENDBRANCH   4  17
TORSDOF 4
ENDMDL
