MODEL 1
REMARK VINA RESULT:      -8.0      0.000      0.000
REMARK  Name = 
REMARK  6 active torsions:
REMARK  status: ('A' for Active; 'I' for Inactive)
REMARK    1  A    between atoms: N_6  and  C_7
REMARK    2  A    between atoms: C_7  and  C_8
REMARK    3  A    between atoms: C_8  and  C_9
REMARK    4  A    between atoms: C_9  and  N_10
REMARK    5  A    between atoms: N_13  and  C_14
REMARK    6  A    between atoms: C_18  and  C_19
REMARK                            x       y       z     vdW  Elec       q    Type
REMARK                         _______ _______ _______ _____ _____    ______ ____
ROOT
ATOM      1  N   UNL     1       7.377   6.824  17.153  0.00  0.00    +0.000 NA
ATOM      2  C   UNL     1       7.389   5.804  18.233  0.00  0.00    +0.000 C 
ATOM      3  C   UNL     1       6.091   5.766  19.061  0.00  0.00    +0.000 C 
ATOM      4  N   UNL     1       4.926   5.544  18.189  0.00  0.00    +0.000 N 
ATOM      5  C   UNL     1       4.840   6.389  16.985  0.00  0.00    +0.000 C 
ATOM      6  C   UNL     1       6.218   6.516  16.275  0.00  0.00    +0.000 C 
ENDROOT
BRANCH   4   7
ATOM      7  C   UNL     1       4.146   4.410  18.305  0.00  0.00    +0.000 A 
ATOM      8  C   UNL     1       4.332   3.315  17.450  0.00  0.00    +0.000 A 
ATOM      9  C   UNL     1       3.517   2.181  17.520  0.00  0.00    +0.000 A 
ATOM     10  C   UNL     1       2.491   2.117  18.457  0.00  0.00    +0.000 A 
ATOM     11  C   UNL     1       2.280   3.185  19.336  0.00  0.00    +0.000 A 
ATOM     12  C   UNL     1       3.115   4.312  19.249  0.00  0.00    +0.000 A 
BRANCH  11  13
ATOM     13  C   UNL     1       1.178   3.163  20.362  0.00  0.00    +0.000 C 
ATOM     14  F   UNL     1       1.550   2.615  21.552  0.00  0.00    +0.000 F 
ATOM     15  F   UNL     1       0.714   4.410  20.656  0.00  0.00    +0.000 F 
ATOM     16  F   UNL     1       0.094   2.451  19.947  0.00  0.00    +0.000 F 
ENDBRANCH  11  13
ENDBRANCH   4   7
BRANCH   1  17
ATOM     17  C   UNL     1       7.300   8.204  17.662  0.00  0.00    +0.000 C 
BRANCH  17  18
ATOM     18  C   UNL     1       8.628   8.797  18.151  0.00  0.00    +0.000 C 
BRANCH  18  19
ATOM     19  C   UNL     1       8.640  10.323  18.111  0.00  0.00    +0.000 C 
BRANCH  19  25
ATOM     20  O   UNL     1       9.050  11.017  20.933  0.00  0.00    +0.000 OA
ATOM     21  C   UNL     1       9.899  11.224  20.079  0.00  0.00    +0.000 C 
ATOM     22  C   UNL     1      11.190  11.977  20.293  0.00  0.00    +0.000 C 
ATOM     23  C   UNL     1      11.971  11.696  19.015  0.00  0.00    +0.000 C 
ATOM     24  C   UNL     1      10.888  11.494  17.974  0.00  0.00    +0.000 C 
ATOM     25  N   UNL     1       9.828  10.883  18.732  0.00  0.00    +0.000 N 
ENDBRANCH  19  25
ENDBRANCH  18  19
ENDBRANCH  17  18
ENDBRANCH   1  17
TORSDOF 6
ENDMDL
MODEL 2
REMARK VINA RESULT:      -7.7      1.128      1.341
REMARK  Name = 
REMARK  6 active torsions:
REMARK  status: ('A' for Active; 'I' for Inactive)
REMARK    1  A    between atoms: N_6  and  C_7
REMARK    2  A    between atoms: C_7  and  C_8
REMARK    3  A    between atoms: C_8  and  C_9
REMARK    4  A    between atoms: C_9  and  N_10
REMARK    5  A    between atoms: N_13  and  C_14
REMARK    6  A    between atoms: C_18  and  C_19
REMARK                            x       y       z     vdW  Elec       q    Type
REMARK                         _______ _______ _______ _____ _____    ______ ____
ROOT
ATOM      1  N   UNL     1       7.740   6.299  17.447  0.00  0.00    +0.000 NA
ATOM      2  C   UNL     1       7.342   5.805  18.790  0.00  0.00    +0.000 C 
ATOM      3  C   UNL     1       5.842   5.984  19.093  0.00  0.00    +0.000 C 
ATOM      4  N   UNL     1       5.023   5.323  18.065  0.00  0.00    +0.000 N 
ATOM      5  C   UNL     1       5.384   5.600  16.663  0.00  0.00    +0.000 C 
ATOM      6  C   UNL     1       6.924   5.558  16.450  0.00  0.00    +0.000 C 
ENDROOT
BRANCH   4   7
ATOM      7  C   UNL     1       4.192   4.265  18.377  0.00  0.00    +0.000 A 
ATOM      8  C   UNL     1       4.152   3.117  17.573  0.00  0.00    +0.000 A 
ATOM      9  C   UNL     1       3.280   2.059  17.845  0.00  0.00    +0.000 A 
ATOM     10  C   UNL     1       2.422   2.126  18.939  0.00  0.00    +0.000 A 
ATOM     11  C   UNL     1       2.438   3.251  19.771  0.00  0.00    +0.000 A 
ATOM     12  C   UNL     1       3.328   4.300  19.480  0.00  0.00    +0.000 A 
BRANCH  11  13
ATOM     13  C   UNL     1       1.525   3.371  20.962  0.00  0.00    +0.000 C 
ATOM     14  F   UNL     1       2.169   3.710  22.113  0.00  0.00    +0.000 F 
ATOM     15  F   UNL     1       0.558   4.315  20.785  0.00  0.00    +0.000 F 
ATOM     16  F   UNL     1       0.867   2.210  21.232  0.00  0.00    +0.000 F 
ENDBRANCH  11  13
ENDBRANCH   4   7
BRANCH   1  17
ATOM     17  C   UNL     1       7.569   7.753  17.290  0.00  0.00    +0.000 C 
BRANCH  17  18
ATOM     18  C   UNL     1       8.399   8.617  18.250  0.00  0.00    +0.000 C 
BRANCH  18  19
ATOM     19  C   UNL     1       8.477  10.076  17.808  0.00  0.00    +0.000 C 
BRANCH  19  25
ATOM     20  O   UNL     1       9.787  12.666  17.369  0.00  0.00    +0.000 OA
ATOM     21  C   UNL     1       9.792  12.106  18.455  0.00  0.00    +0.000 C 
ATOM     22  C   UNL     1      10.568  12.559  19.668  0.00  0.00    +0.000 C 
ATOM     23  C   UNL     1      10.003  11.690  20.785  0.00  0.00    +0.000 C 
ATOM     24  C   UNL     1       9.577  10.424  20.068  0.00  0.00    +0.000 C 
ATOM     25  N   UNL     1       9.157  10.913  18.782  0.00  0.00    +0.000 N 
ENDBRANCH  19  25
ENDBRANCH  18  19
ENDBRANCH  17  18
ENDBRANCH   1  17
TORSDOF 6
ENDMDL
MODEL 3
REMARK VINA RESULT:      -7.7      1.536      1.895
REMARK  Name = 
REMARK  6 active torsions:
REMARK  status: ('A' for Active; 'I' for Inactive)
REMARK    1  A    between atoms: N_6  and  C_7
REMARK    2  A    between atoms: C_7  and  C_8
REMARK    3  A    between atoms: C_8  and  C_9
REMARK    4  A    between atoms: C_9  and  N_10
REMARK    5  A    between atoms: N_13  and  C_14
REMARK    6  A    between atoms: C_18  and  C_19
REMARK                            x       y       z     vdW  Elec       q    Type
REMARK                         _______ _______ _______ _____ _____    ______ ____
ROOT
ATOM      1  N   UNL     1       7.683   5.614  18.016  0.00  0.00    +0.000 NA
ATOM      2  C   UNL     1       6.878   5.543  19.261  0.00  0.00    +0.000 C 
ATOM      3  C   UNL     1       5.374   5.792  19.040  0.00  0.00    +0.000 C 
ATOM      4  N   UNL     1       4.832   4.846  18.052  0.00  0.00    +0.000 N 
ATOM      5  C   UNL     1       5.600   4.693  16.804  0.00  0.00    +0.000 C 
ATOM      6  C   UNL     1       7.128   4.601  17.079  0.00  0.00    +0.000 C 
ENDROOT
BRANCH   4   7
ATOM      7  C   UNL     1       3.862   3.924  18.395  0.00  0.00    +0.000 A 
ATOM      8  C   UNL     1       3.252   3.123  17.419  0.00  0.00    +0.000 A 
ATOM      9  C   UNL     1       2.234   2.221  17.742  0.00  0.00    +0.000 A 
ATOM     10  C   UNL     1       1.802   2.098  19.059  0.00  0.00    +0.000 A 
ATOM     11  C   UNL     1       2.393   2.872  20.062  0.00  0.00    +0.000 A 
ATOM     12  C   UNL     1       3.419   3.769  19.714  0.00  0.00    +0.000 A 
BRANCH  11  13
ATOM     13  C   UNL     1       1.955   2.779  21.500  0.00  0.00    +0.000 C 
ATOM     14  F   UNL     1       0.610   2.628  21.654  0.00  0.00    +0.000 F 
ATOM     15  F   UNL     1       2.524   1.726  22.151  0.00  0.00    +0.000 F 
ATOM     16  F   UNL     1       2.290   3.886  22.219  0.00  0.00    +0.000 F 
ENDBRANCH  11  13
ENDBRANCH   4   7
BRANCH   1  17
ATOM     17  C   UNL     1       7.683   6.953  17.402  0.00  0.00    +0.000 C 
BRANCH  17  18
ATOM     18  C   UNL     1       8.251   8.076  18.281  0.00  0.00    +0.000 C 
BRANCH  18  19
ATOM     19  C   UNL     1       7.986   9.464  17.704  0.00  0.00    +0.000 C 
BRANCH  19  25
ATOM     20  O   UNL     1       8.042  12.343  17.137  0.00  0.00    +0.000 OA
ATOM     21  C   UNL     1       8.671  11.846  18.059  0.00  0.00    +0.000 C 
ATOM     22  C   UNL     1       9.662  12.574  18.935  0.00  0.00    +0.000 C 
ATOM     23  C   UNL     1       9.923  11.582  20.061  0.00  0.00    +0.000 C 
ATOM     24  C   UNL     1       9.705  10.233  19.404  0.00  0.00    +0.000 C 
ATOM     25  N   UNL     1       8.668  10.510  18.446  0.00  0.00    +0.000 N 
ENDBRANCH  19  25
ENDBRANCH  18  19
ENDBRANCH  17  18
ENDBRANCH   1  17
TORSDOF 6
ENDMDL
MODEL 4
REMARK VINA RESULT:      -7.6      5.355      7.268
REMARK  Name = 
REMARK  6 active torsions:
REMARK  status: ('A' for Active; 'I' for Inactive)
REMARK    1  A    between atoms: N_6  and  C_7
REMARK    2  A    between atoms: C_7  and  C_8
REMARK    3  A    between atoms: C_8  and  C_9
REMARK    4  A    between atoms: C_9  and  N_10
REMARK    5  A    between atoms: N_13  and  C_14
REMARK    6  A    between atoms: C_18  and  C_19
REMARK                            x       y       z     vdW  Elec       q    Type
REMARK                         _______ _______ _______ _____ _____    ______ ____
ROOT
ATOM      1  N   UNL     1       1.869   3.908  18.955  0.00  0.00    +0.000 NA
ATOM      2  C   UNL     1       1.177   4.428  20.162  0.00  0.00    +0.000 C 
ATOM      3  C   UNL     1       1.916   5.595  20.843  0.00  0.00    +0.000 C 
ATOM      4  N   UNL     1       2.134   6.696  19.891  0.00  0.00    +0.000 N 
ATOM      5  C   UNL     1       2.690   6.324  18.578  0.00  0.00    +0.000 C 
ATOM      6  C   UNL     1       2.011   5.046  18.009  0.00  0.00    +0.000 C 
ENDROOT
BRANCH   4   7
ATOM      7  C   UNL     1       1.558   7.937  20.080  0.00  0.00    +0.000 A 
ATOM      8  C   UNL     1       1.584   8.907  19.068  0.00  0.00    +0.000 A 
ATOM      9  C   UNL     1       1.051  10.184  19.261  0.00  0.00    +0.000 A 
ATOM     10  C   UNL     1       0.472  10.522  20.480  0.00  0.00    +0.000 A 
ATOM     11  C   UNL     1       0.417   9.579  21.512  0.00  0.00    +0.000 A 
ATOM     12  C   UNL     1       0.956   8.298  21.292  0.00  0.00    +0.000 A 
BRANCH  11  13
ATOM     13  C   UNL     1      -0.193   9.899  22.850  0.00  0.00    +0.000 C 
ATOM     14  F   UNL     1      -1.405   9.311  23.054  0.00  0.00    +0.000 F 
ATOM     15  F   UNL     1       0.592   9.504  23.891  0.00  0.00    +0.000 F 
ATOM     16  F   UNL     1      -0.396  11.235  23.023  0.00  0.00    +0.000 F 
ENDBRANCH  11  13
ENDBRANCH   4   7
BRANCH   1  17
ATOM     17  C   UNL     1       3.180   3.306  19.254  0.00  0.00    +0.000 C 
BRANCH  17  18
ATOM     18  C   UNL     1       4.059   3.011  18.031  0.00  0.00    +0.000 C 
BRANCH  18  19
ATOM     19  C   UNL     1       5.302   3.896  17.974  0.00  0.00    +0.000 C 
BRANCH  19  25
ATOM     20  O   UNL     1       8.037   4.344  17.007  0.00  0.00    +0.000 OA
ATOM     21  C   UNL     1       7.066   4.395  16.268  0.00  0.00    +0.000 C 
ATOM     22  C   UNL     1       7.089   4.829  14.822  0.00  0.00    +0.000 C 
ATOM     23  C   UNL     1       5.703   4.441  14.322  0.00  0.00    +0.000 C 
ATOM     24  C   UNL     1       4.838   4.538  15.563  0.00  0.00    +0.000 C 
ATOM     25  N   UNL     1       5.742   4.144  16.611  0.00  0.00    +0.000 N 
ENDBRANCH  19  25
ENDBRANCH  18  19
ENDBRANCH  17  18
ENDBRANCH   1  17
TORSDOF 6
ENDMDL
MODEL 5
REMARK VINA RESULT:      -7.6      1.067      1.444
REMARK  Name = 
REMARK  6 active torsions:
REMARK  status: ('A' for Active; 'I' for Inactive)
REMARK    1  A    between atoms: N_6  and  C_7
REMARK    2  A    between atoms: C_7  and  C_8
REMARK    3  A    between atoms: C_8  and  C_9
REMARK    4  A    between atoms: C_9  and  N_10
REMARK    5  A    between atoms: N_13  and  C_14
REMARK    6  A    between atoms: C_18  and  C_19
REMARK                            x       y       z     vdW  Elec       q    Type
REMARK                         _______ _______ _______ _____ _____    ______ ____
ROOT
ATOM      1  N   UNL     1       7.010   6.828  16.867  0.00  0.00    +0.000 NA
ATOM      2  C   UNL     1       7.127   5.350  16.804  0.00  0.00    +0.000 C 
ATOM      3  C   UNL     1       6.675   4.639  18.094  0.00  0.00    +0.000 C 
ATOM      4  N   UNL     1       5.291   5.007  18.430  0.00  0.00    +0.000 N 
ATOM      5  C   UNL     1       4.970   6.445  18.399  0.00  0.00    +0.000 C 
ATOM      6  C   UNL     1       5.584   7.142  17.152  0.00  0.00    +0.000 C 
ENDROOT
BRANCH   4   7
ATOM      7  C   UNL     1       4.280   4.066  18.451  0.00  0.00    +0.000 A 
ATOM      8  C   UNL     1       4.258   3.009  17.530  0.00  0.00    +0.000 A 
ATOM      9  C   UNL     1       3.215   2.079  17.505  0.00  0.00    +0.000 A 
ATOM     10  C   UNL     1       2.164   2.184  18.410  0.00  0.00    +0.000 A 
ATOM     11  C   UNL     1       2.154   3.219  19.351  0.00  0.00    +0.000 A 
ATOM     12  C   UNL     1       3.216   4.140  19.360  0.00  0.00    +0.000 A 
BRANCH  11  13
ATOM     13  C   UNL     1       1.035   3.378  20.346  0.00  0.00    +0.000 C 
ATOM     14  F   UNL     1      -0.155   2.873  19.917  0.00  0.00    +0.000 F 
ATOM     15  F   UNL     1       1.298   2.757  21.530  0.00  0.00    +0.000 F 
ATOM     16  F   UNL     1       0.795   4.683  20.655  0.00  0.00    +0.000 F 
ENDBRANCH  11  13
ENDBRANCH   4   7
BRANCH   1  17
ATOM     17  C   UNL     1       7.894   7.437  17.875  0.00  0.00    +0.000 C 
BRANCH  17  18
ATOM     18  C   UNL     1       8.021   8.965  17.798  0.00  0.00    +0.000 C 
BRANCH  18  19
ATOM     19  C   UNL     1       8.928   9.534  18.886  0.00  0.00    +0.000 C 
BRANCH  19  25
ATOM     20  O   UNL     1       9.804  11.439  20.940  0.00  0.00    +0.000 OA
ATOM     21  C   UNL     1       9.485  11.792  19.815  0.00  0.00    +0.000 C 
ATOM     22  C   UNL     1       9.347  13.223  19.352  0.00  0.00    +0.000 C 
ATOM     23  C   UNL     1       9.213  13.086  17.840  0.00  0.00    +0.000 C 
ATOM     24  C   UNL     1       8.566  11.727  17.663  0.00  0.00    +0.000 C 
ATOM     25  N   UNL     1       9.112  10.970  18.757  0.00  0.00    +0.000 N 
ENDBRANCH  19  25
ENDBRANCH  18  19
ENDBRANCH  17  18
ENDBRANCH   1  17
TORSDOF 6
ENDMDL
MODEL 6
REMARK VINA RESULT:      -7.5      5.138      8.261
REMARK  Name = 
REMARK  6 active torsions:
REMARK  status: ('A' for Active; 'I' for Inactive)
REMARK    1  A    between atoms: N_6  and  C_7
REMARK    2  A    between atoms: C_7  and  C_8
REMARK    3  A    between atoms: C_8  and  C_9
REMARK    4  A    between atoms: C_9  and  N_10
REMARK    5  A    between atoms: N_13  and  C_14
REMARK    6  A    between atoms: C_18  and  C_19
REMARK                            x       y       z     vdW  Elec       q    Type
REMARK                         _______ _______ _______ _____ _____    ______ ____
ROOT
ATOM      1  N   UNL     1       6.433   6.353  18.299  0.00  0.00    +0.000 NA
ATOM      2  C   UNL     1       7.624   5.807  17.599  0.00  0.00    +0.000 C 
ATOM      3  C   UNL     1       7.348   4.491  16.846  0.00  0.00    +0.000 C 
ATOM      4  N   UNL     1       6.250   4.666  15.882  0.00  0.00    +0.000 N 
ATOM      5  C   UNL     1       5.035   5.329  16.389  0.00  0.00    +0.000 C 
ATOM      6  C   UNL     1       5.380   6.562  17.271  0.00  0.00    +0.000 C 
ENDROOT
BRANCH   4   7
ATOM      7  C   UNL     1       6.455   4.525  14.524  0.00  0.00    +0.000 A 
ATOM      8  C   UNL     1       7.594   5.059  13.906  0.00  0.00    +0.000 A 
ATOM      9  C   UNL     1       7.790   4.970  12.525  0.00  0.00    +0.000 A 
ATOM     10  C   UNL     1       6.844   4.335  11.725  0.00  0.00    +0.000 A 
ATOM     11  C   UNL     1       5.699   3.780  12.305  0.00  0.00    +0.000 A 
ATOM     12  C   UNL     1       5.526   3.879  13.697  0.00  0.00    +0.000 A 
BRANCH  11  13
ATOM     13  C   UNL     1       4.645   3.090  11.481  0.00  0.00    +0.000 C 
ATOM     14  F   UNL     1       5.018   1.857  11.038  0.00  0.00    +0.000 F 
ATOM     15  F   UNL     1       3.484   2.903  12.168  0.00  0.00    +0.000 F 
ATOM     16  F   UNL     1       4.309   3.799  10.367  0.00  0.00    +0.000 F 
ENDBRANCH  11  13
ENDBRANCH   4   7
BRANCH   1  17
ATOM     17  C   UNL     1       5.946   5.479  19.381  0.00  0.00    +0.000 C 
BRANCH  17  18
ATOM     18  C   UNL     1       4.453   5.130  19.318  0.00  0.00    +0.000 C 
BRANCH  18  19
ATOM     19  C   UNL     1       4.201   3.625  19.309  0.00  0.00    +0.000 C 
BRANCH  19  25
ATOM     20  O   UNL     1       1.666   3.355  17.856  0.00  0.00    +0.000 OA
ATOM     21  C   UNL     1       1.741   3.228  19.069  0.00  0.00    +0.000 C 
ATOM     22  C   UNL     1       0.568   3.067  20.005  0.00  0.00    +0.000 C 
ATOM     23  C   UNL     1       1.228   2.677  21.323  0.00  0.00    +0.000 C 
ATOM     24  C   UNL     1       2.589   3.340  21.248  0.00  0.00    +0.000 C 
ATOM     25  N   UNL     1       2.895   3.280  19.843  0.00  0.00    +0.000 N 
ENDBRANCH  19  25
ENDBRANCH  18  19
ENDBRANCH  17  18
ENDBRANCH   1  17
TORSDOF 6
ENDMDL
MODEL 7
REMARK VINA RESULT:      -7.5      5.140      8.126
REMARK  Name = 
REMARK  6 active torsions:
REMARK  status: ('A' for Active; 'I' for Inactive)
REMARK    1  A    between atoms: N_6  and  C_7
REMARK    2  A    between atoms: C_7  and  C_8
REMARK    3  A    between atoms: C_8  and  C_9
REMARK    4  A    between atoms: C_9  and  N_10
REMARK    5  A    between atoms: N_13  and  C_14
REMARK    6  A    between atoms: C_18  and  C_19
REMARK                            x       y       z     vdW  Elec       q    Type
REMARK                         _______ _______ _______ _____ _____    ______ ____
ROOT
ATOM      1  N   UNL     1       4.404   5.777  18.192  0.00  0.00    +0.000 NA
ATOM      2  C   UNL     1       4.249   7.126  17.591  0.00  0.00    +0.000 C 
ATOM      3  C   UNL     1       2.782   7.565  17.429  0.00  0.00    +0.000 C 
ATOM      4  N   UNL     1       2.082   7.523  18.723  0.00  0.00    +0.000 N 
ATOM      5  C   UNL     1       2.252   6.293  19.518  0.00  0.00    +0.000 C 
ATOM      6  C   UNL     1       3.730   5.810  19.517  0.00  0.00    +0.000 C 
ENDROOT
BRANCH   4   7
ATOM      7  C   UNL     1       1.576   8.668  19.306  0.00  0.00    +0.000 A 
ATOM      8  C   UNL     1       1.598   9.894  18.627  0.00  0.00    +0.000 A 
ATOM      9  C   UNL     1       1.136  11.072  19.223  0.00  0.00    +0.000 A 
ATOM     10  C   UNL     1       0.635  11.047  20.521  0.00  0.00    +0.000 A 
ATOM     11  C   UNL     1       0.587   9.840  21.228  0.00  0.00    +0.000 A 
ATOM     12  C   UNL     1       1.053   8.669  20.606  0.00  0.00    +0.000 A 
BRANCH  11  13
ATOM     13  C   UNL     1       0.060   9.765  22.636  0.00  0.00    +0.000 C 
ATOM     14  F   UNL     1      -0.933   8.847  22.800  0.00  0.00    +0.000 F 
ATOM     15  F   UNL     1       1.026   9.434  23.538  0.00  0.00    +0.000 F 
ATOM     16  F   UNL     1      -0.456  10.952  23.062  0.00  0.00    +0.000 F 
ENDBRANCH  11  13
ENDBRANCH   4   7
BRANCH   1  17
ATOM     17  C   UNL     1       3.855   4.701  17.350  0.00  0.00    +0.000 C 
BRANCH  17  18
ATOM     18  C   UNL     1       4.528   3.331  17.516  0.00  0.00    +0.000 C 
BRANCH  18  19
ATOM     19  C   UNL     1       3.539   2.233  17.897  0.00  0.00    +0.000 C 
BRANCH  19  25
ATOM     20  O   UNL     1       4.690   2.277  20.596  0.00  0.00    +0.000 OA
ATOM     21  C   UNL     1       3.498   2.453  20.391  0.00  0.00    +0.000 C 
ATOM     22  C   UNL     1       2.435   2.569  21.456  0.00  0.00    +0.000 C 
ATOM     23  C   UNL     1       1.217   3.052  20.677  0.00  0.00    +0.000 C 
ATOM     24  C   UNL     1       1.433   2.480  19.290  0.00  0.00    +0.000 C 
ATOM     25  N   UNL     1       2.865   2.509  19.154  0.00  0.00    +0.000 N 
ENDBRANCH  19  25
ENDBRANCH  18  19
ENDBRANCH  17  18
ENDBRANCH   1  17
TORSDOF 6
ENDMDL
MODEL 8
REMARK VINA RESULT:      -7.4      5.380      8.253
REMARK  Name = 
REMARK  6 active torsions:
REMARK  status: ('A' for Active; 'I' for Inactive)
REMARK    1  A    between atoms: N_6  and  C_7
REMARK    2  A    between atoms: C_7  and  C_8
REMARK    3  A    between atoms: C_8  and  C_9
REMARK    4  A    between atoms: C_9  and  N_10
REMARK    5  A    between atoms: N_13  and  C_14
REMARK    6  A    between atoms: C_18  and  C_19
REMARK                            x       y       z     vdW  Elec       q    Type
REMARK                         _______ _______ _______ _____ _____    ______ ____
ROOT
ATOM      1  N   UNL     1       5.806   4.271  18.760  0.00  0.00    +0.000 NA
ATOM      2  C   UNL     1       4.961   3.642  17.713  0.00  0.00    +0.000 C 
ATOM      3  C   UNL     1       4.650   4.575  16.527  0.00  0.00    +0.000 C 
ATOM      4  N   UNL     1       5.894   5.072  15.919  0.00  0.00    +0.000 N 
ATOM      5  C   UNL     1       6.908   5.605  16.847  0.00  0.00    +0.000 C 
ATOM      6  C   UNL     1       7.068   4.701  18.102  0.00  0.00    +0.000 C 
ENDROOT
BRANCH   4   7
ATOM      7  C   UNL     1       6.233   4.763  14.616  0.00  0.00    +0.000 A 
ATOM      8  C   UNL     1       7.473   5.142  14.084  0.00  0.00    +0.000 A 
ATOM      9  C   UNL     1       7.811   4.882  12.752  0.00  0.00    +0.000 A 
ATOM     10  C   UNL     1       6.908   4.230  11.918  0.00  0.00    +0.000 A 
ATOM     11  C   UNL     1       5.664   3.827  12.415  0.00  0.00    +0.000 A 
ATOM     12  C   UNL     1       5.349   4.095  13.759  0.00  0.00    +0.000 A 
BRANCH  11  13
ATOM     13  C   UNL     1       4.653   3.124  11.549  0.00  0.00    +0.000 C 
ATOM     14  F   UNL     1       4.327   3.811  10.420  0.00  0.00    +0.000 F 
ATOM     15  F   UNL     1       5.084   1.901  11.129  0.00  0.00    +0.000 F 
ATOM     16  F   UNL     1       3.477   2.900  12.200  0.00  0.00    +0.000 F 
ENDBRANCH  11  13
ENDBRANCH   4   7
BRANCH   1  17
ATOM     17  C   UNL     1       5.149   5.407  19.430  0.00  0.00    +0.000 C 
BRANCH  17  18
ATOM     18  C   UNL     1       3.793   5.818  18.841  0.00  0.00    +0.000 C 
BRANCH  18  19
ATOM     19  C   UNL     1       2.639   5.600  19.817  0.00  0.00    +0.000 C 
BRANCH  19  25
ATOM     20  O   UNL     1       2.721   3.257  21.583  0.00  0.00    +0.000 OA
ATOM     21  C   UNL     1       2.138   3.247  20.509  0.00  0.00    +0.000 C 
ATOM     22  C   UNL     1       1.515   2.032  19.864  0.00  0.00    +0.000 C 
ATOM     23  C   UNL     1       0.706   2.626  18.717  0.00  0.00    +0.000 C 
ATOM     24  C   UNL     1       1.470   3.885  18.358  0.00  0.00    +0.000 C 
ATOM     25  N   UNL     1       1.992   4.313  19.628  0.00  0.00    +0.000 N 
ENDBRANCH  19  25
ENDBRANCH  18  19
ENDBRANCH  17  18
ENDBRANCH   1  17
TORSDOF 6
ENDMDL
MODEL 9
REMARK VINA RESULT:      -7.4      1.313      1.677
REMARK  Name = 
REMARK  6 active torsions:
REMARK  status: ('A' for Active; 'I' for Inactive)
REMARK    1  A    between atoms: N_6  and  C_7
REMARK    2  A    between atoms: C_7  and  C_8
REMARK    3  A    between atoms: C_8  and  C_9
REMARK    4  A    between atoms: C_9  and  N_10
REMARK    5  A    between atoms: N_13  and  C_14
REMARK    6  A    between atoms: C_18  and  C_19
REMARK                            x       y       z     vdW  Elec       q    Type
REMARK                         _______ _______ _______ _____ _____    ______ ____
ROOT
ATOM      1  N   UNL     1       7.805   6.686  17.512  0.00  0.00    +0.000 NA
ATOM      2  C   UNL     1       7.641   5.361  18.162  0.00  0.00    +0.000 C 
ATOM      3  C   UNL     1       6.456   5.298  19.144  0.00  0.00    +0.000 C 
ATOM      4  N   UNL     1       5.203   5.672  18.470  0.00  0.00    +0.000 N 
ATOM      5  C   UNL     1       5.239   6.902  17.659  0.00  0.00    +0.000 C 
ATOM      6  C   UNL     1       6.534   6.985  16.802  0.00  0.00    +0.000 C 
ENDROOT
BRANCH   4   7
ATOM      7  C   UNL     1       4.163   4.774  18.331  0.00  0.00    +0.000 A 
ATOM      8  C   UNL     1       4.002   4.033  17.152  0.00  0.00    +0.000 A 
ATOM      9  C   UNL     1       2.926   3.158  16.976  0.00  0.00    +0.000 A 
ATOM     10  C   UNL     1       1.981   3.002  17.986  0.00  0.00    +0.000 A 
ATOM     11  C   UNL     1       2.113   3.715  19.182  0.00  0.00    +0.000 A 
ATOM     12  C   UNL     1       3.206   4.586  19.337  0.00  0.00    +0.000 A 
BRANCH  11  13
ATOM     13  C   UNL     1       1.114   3.583  20.300  0.00  0.00    +0.000 C 
ATOM     14  F   UNL     1       0.621   4.775  20.737  0.00  0.00    +0.000 F 
ATOM     15  F   UNL     1       0.029   2.839  19.945  0.00  0.00    +0.000 F 
ATOM     16  F   UNL     1       1.640   2.973  21.399  0.00  0.00    +0.000 F 
ENDBRANCH  11  13
ENDBRANCH   4   7
BRANCH   1  17
ATOM     17  C   UNL     1       8.141   7.760  18.463  0.00  0.00    +0.000 C 
BRANCH  17  18
ATOM     18  C   UNL     1       8.010   9.186  17.913  0.00  0.00    +0.000 C 
BRANCH  18  19
ATOM     19  C   UNL     1       9.299   9.992  18.057  0.00  0.00    +0.000 C 
BRANCH  19  25
ATOM     20  O   UNL     1       9.064  12.877  17.574  0.00  0.00    +0.000 OA
ATOM     21  C   UNL     1       9.123  12.405  18.700  0.00  0.00    +0.000 C 
ATOM     22  C   UNL     1       9.234  13.202  19.977  0.00  0.00    +0.000 C 
ATOM     23  C   UNL     1       8.990  12.157  21.059  0.00  0.00    +0.000 C 
ATOM     24  C   UNL     1       9.490  10.872  20.429  0.00  0.00    +0.000 C 
ATOM     25  N   UNL     1       9.178  11.058  19.037  0.00  0.00    +0.000 N 
ENDBRANCH  19  25
ENDBRANCH  18  19
ENDBRANCH  17  18
ENDBRANCH   1  17
TORSDOF 6
ENDMDL
