MODEL 1
REMARK VINA RESULT:      -8.5      0.000      0.000
REMARK  Name = 
REMARK  11 active torsions:
REMARK  status: ('A' for Active; 'I' for Inactive)
REMARK    1  A    between atoms: C_1  and  O_2
REMARK    2  A    between atoms: O_2  and  C_3
REMARK    3  A    between atoms: C_13  and  O_14
REMARK    4  A    between atoms: O_14  and  C_15
REMARK    5  A    between atoms: C_15  and  C_16
REMARK    6  A    between atoms: C_16  and  C_17
REMARK    7  A    between atoms: C_17  and  C_18
REMARK    8  A    between atoms: C_18  and  O_19
REMARK    9  A    between atoms: O_19  and  C_20
REMARK   10  A    between atoms: C_25  and  S_26
REMARK   11  A    between atoms: S_26  and  C_29
REMARK                            x       y       z     vdW  Elec       q    Type
REMARK                         _______ _______ _______ _____ _____    ______ ____
ROOT
ATOM      1  C   UNL     1       2.501   6.763  19.892  0.00  0.00    +0.000 C 
ENDROOT
BRANCH   1   2
ATOM      2  C   UNL     1       1.942   8.029  19.245  0.00  0.00    +0.000 C 
BRANCH   2   3
ATOM      3  C   UNL     1       1.134   8.868  20.230  0.00  0.00    +0.000 C 
BRANCH   3   4
ATOM      4  O   UNL     1       1.050  10.194  19.725  0.00  0.00    +0.000 OA
BRANCH   4  15
ATOM      5  C   UNL     1      -0.952  11.445  19.961  0.00  0.00    +0.000 A 
ATOM      6  C   UNL     1      -2.240  11.785  19.514  0.00  0.00    +0.000 A 
ATOM      7  C   UNL     1      -2.707  11.333  18.278  0.00  0.00    +0.000 A 
ATOM      8  C   UNL     1      -4.034  11.647  17.770  0.00  0.00    +0.000 A 
ATOM      9  C   UNL     1      -4.392  11.221  16.553  0.00  0.00    +0.000 A 
ATOM     10  C   UNL     1      -3.489  10.438  15.689  0.00  0.00    +0.000 A 
ATOM     11  O   UNL     1      -3.827  10.111  14.558  0.00  0.00    +0.000 OA
ATOM     12  O   UNL     1      -2.260  10.089  16.228  0.00  0.00    +0.000 OA
ATOM     13  C   UNL     1      -1.870  10.543  17.501  0.00  0.00    +0.000 A 
ATOM     14  C   UNL     1      -0.606  10.160  17.941  0.00  0.00    +0.000 A 
ATOM     15  C   UNL     1      -0.143  10.592  19.189  0.00  0.00    +0.000 A 
BRANCH   5  17
ATOM     16  C   UNL     1      -1.646  11.897  22.191  0.00  0.00    +0.000 C 
ATOM     17  O   UNL     1      -0.630  11.966  21.193  0.00  0.00    +0.000 OA
ENDBRANCH   5  17
ENDBRANCH   4  15
ENDBRANCH   3   4
ENDBRANCH   2   3
ENDBRANCH   1   2
BRANCH   1  18
ATOM     18  C   UNL     1       1.447   6.000  20.692  0.00  0.00    +0.000 C 
BRANCH  18  19
ATOM     19  O   UNL     1       1.308   4.694  20.135  0.00  0.00    +0.000 OA
BRANCH  19  20
ATOM     20  C   UNL     1       2.239   3.808  20.545  0.00  0.00    +0.000 A 
ATOM     21  N   UNL     1       2.273   3.392  21.816  0.00  0.00    +0.000 NA
ATOM     22  O   UNL     1       3.307   2.460  21.875  0.00  0.00    +0.000 OA
ATOM     23  N   UNL     1       3.881   2.372  20.558  0.00  0.00    +0.000 N 
ATOM     24  O   UNL     1       4.768   1.505  20.408  0.00  0.00    +0.000 OA
ATOM     25  C   UNL     1       3.221   3.204  19.775  0.00  0.00    +0.000 A 
BRANCH  25  26
ATOM     26  S   UNL     1       3.596   3.409  18.163  0.00  0.00    +0.000 S 
ATOM     27  O   UNL     1       3.770   2.072  17.621  0.00  0.00    +0.000 OA
ATOM     28  O   UNL     1       2.563   4.286  17.660  0.00  0.00    +0.000 OA
BRANCH  26  29
ATOM     29  C   UNL     1       5.159   4.234  18.096  0.00  0.00    +0.000 A 
ATOM     30  C   UNL     1       5.888   4.234  16.902  0.00  0.00    +0.000 A 
ATOM     31  C   UNL     1       7.098   4.924  16.837  0.00  0.00    +0.000 A 
ATOM     32  C   UNL     1       7.569   5.619  17.952  0.00  0.00    +0.000 A 
ATOM     33  C   UNL     1       6.830   5.629  19.135  0.00  0.00    +0.000 A 
ATOM     34  C   UNL     1       5.619   4.940  19.210  0.00  0.00    +0.000 A 
ENDBRANCH  26  29
ENDBRANCH  25  26
ENDBRANCH  19  20
ENDBRANCH  18  19
ENDBRANCH   1  18
TORSDOF 10
ENDMDL
MODEL 2
REMARK VINA RESULT:      -8.3      1.108      1.517
REMARK  Name = 
REMARK  11 active torsions:
REMARK  status: ('A' for Active; 'I' for Inactive)
REMARK    1  A    between atoms: C_1  and  O_2
REMARK    2  A    between atoms: O_2  and  C_3
REMARK    3  A    between atoms: C_13  and  O_14
REMARK    4  A    between atoms: O_14  and  C_15
REMARK    5  A    between atoms: C_15  and  C_16
REMARK    6  A    between atoms: C_16  and  C_17
REMARK    7  A    between atoms: C_17  and  C_18
REMARK    8  A    between atoms: C_18  and  O_19
REMARK    9  A    between atoms: O_19  and  C_20
REMARK   10  A    between atoms: C_25  and  S_26
REMARK   11  A    between atoms: S_26  and  C_29
REMARK                            x       y       z     vdW  Elec       q    Type
REMARK                         _______ _______ _______ _____ _____    ______ ____
ROOT
ATOM      1  C   UNL     1       2.816   7.178  18.514  0.00  0.00    +0.000 C 
ENDROOT
BRANCH   1   2
ATOM      2  C   UNL     1       2.788   8.382  17.575  0.00  0.00    +0.000 C 
BRANCH   2   3
ATOM      3  C   UNL     1       2.412   9.669  18.303  0.00  0.00    +0.000 C 
BRANCH   3   4
ATOM      4  O   UNL     1       1.270   9.411  19.107  0.00  0.00    +0.000 OA
BRANCH   4  15
ATOM      5  C   UNL     1      -0.519  10.884  19.615  0.00  0.00    +0.000 A 
ATOM      6  C   UNL     1      -1.796  11.400  19.331  0.00  0.00    +0.000 A 
ATOM      7  C   UNL     1      -2.449  11.069  18.142  0.00  0.00    +0.000 A 
ATOM      8  C   UNL     1      -3.773  11.567  17.801  0.00  0.00    +0.000 A 
ATOM      9  C   UNL     1      -4.313  11.247  16.619  0.00  0.00    +0.000 A 
ATOM     10  C   UNL     1      -3.618  10.402  15.631  0.00  0.00    +0.000 A 
ATOM     11  O   UNL     1      -4.116  10.174  14.536  0.00  0.00    +0.000 OA
ATOM     12  O   UNL     1      -2.391   9.880  16.012  0.00  0.00    +0.000 OA
ATOM     13  C   UNL     1      -1.809  10.221  17.247  0.00  0.00    +0.000 A 
ATOM     14  C   UNL     1      -0.563   9.666  17.526  0.00  0.00    +0.000 A 
ATOM     15  C   UNL     1       0.085   9.977  18.726  0.00  0.00    +0.000 A 
BRANCH   5  17
ATOM     16  C   UNL     1      -0.513  10.657  21.983  0.00  0.00    +0.000 C 
ATOM     17  O   UNL     1      -0.001  11.302  20.818  0.00  0.00    +0.000 OA
ENDBRANCH   5  17
ENDBRANCH   4  15
ENDBRANCH   3   4
ENDBRANCH   2   3
ENDBRANCH   1   2
BRANCH   1  18
ATOM     18  C   UNL     1       1.569   6.305  18.384  0.00  0.00    +0.000 C 
BRANCH  18  19
ATOM     19  O   UNL     1       1.972   4.937  18.348  0.00  0.00    +0.000 OA
BRANCH  19  20
ATOM     20  C   UNL     1       2.032   4.339  19.556  0.00  0.00    +0.000 A 
ATOM     21  N   UNL     1       1.149   4.642  20.514  0.00  0.00    +0.000 NA
ATOM     22  O   UNL     1       1.468   3.816  21.589  0.00  0.00    +0.000 OA
ATOM     23  N   UNL     1       2.604   3.022  21.199  0.00  0.00    +0.000 N 
ATOM     24  O   UNL     1       2.967   2.152  22.019  0.00  0.00    +0.000 OA
ATOM     25  C   UNL     1       2.929   3.365  19.967  0.00  0.00    +0.000 A 
BRANCH  25  26
ATOM     26  S   UNL     1       4.215   2.680  19.155  0.00  0.00    +0.000 S 
ATOM     27  O   UNL     1       5.161   2.271  20.178  0.00  0.00    +0.000 OA
ATOM     28  O   UNL     1       3.609   1.708  18.272  0.00  0.00    +0.000 OA
BRANCH  26  29
ATOM     29  C   UNL     1       4.966   3.963  18.198  0.00  0.00    +0.000 A 
ATOM     30  C   UNL     1       4.711   4.041  16.825  0.00  0.00    +0.000 A 
ATOM     31  C   UNL     1       5.267   5.081  16.081  0.00  0.00    +0.000 A 
ATOM     32  C   UNL     1       6.061   6.043  16.706  0.00  0.00    +0.000 A 
ATOM     33  C   UNL     1       6.300   5.970  18.079  0.00  0.00    +0.000 A 
ATOM     34  C   UNL     1       5.749   4.932  18.832  0.00  0.00    +0.000 A 
ENDBRANCH  26  29
ENDBRANCH  25  26
ENDBRANCH  19  20
ENDBRANCH  18  19
ENDBRANCH   1  18
TORSDOF 10
ENDMDL
MODEL 3
REMARK VINA RESULT:      -8.2      3.770      9.590
REMARK  Name = 
REMARK  11 active torsions:
REMARK  status: ('A' for Active; 'I' for Inactive)
REMARK    1  A    between atoms: C_1  and  O_2
REMARK    2  A    between atoms: O_2  and  C_3
REMARK    3  A    between atoms: C_13  and  O_14
REMARK    4  A    between atoms: O_14  and  C_15
REMARK    5  A    between atoms: C_15  and  C_16
REMARK    6  A    between atoms: C_16  and  C_17
REMARK    7  A    between atoms: C_17  and  C_18
REMARK    8  A    between atoms: C_18  and  O_19
REMARK    9  A    between atoms: O_19  and  C_20
REMARK   10  A    between atoms: C_25  and  S_26
REMARK   11  A    between atoms: S_26  and  C_29
REMARK                            x       y       z     vdW  Elec       q    Type
REMARK                         _______ _______ _______ _____ _____    ______ ____
ROOT
ATOM      1  C   UNL     1       1.456   8.328  20.531  0.00  0.00    +0.000 C 
ENDROOT
BRANCH   1   2
ATOM      2  C   UNL     1       1.342   9.063  19.197  0.00  0.00    +0.000 C 
BRANCH   2   3
ATOM      3  C   UNL     1       2.177   8.402  18.105  0.00  0.00    +0.000 C 
BRANCH   3   4
ATOM      4  O   UNL     1       3.030   7.442  18.713  0.00  0.00    +0.000 OA
BRANCH   4  15
ATOM      5  C   UNL     1       3.166   5.187  17.987  0.00  0.00    +0.000 A 
ATOM      6  C   UNL     1       3.822   4.173  17.266  0.00  0.00    +0.000 A 
ATOM      7  C   UNL     1       4.885   4.477  16.414  0.00  0.00    +0.000 A 
ATOM      8  C   UNL     1       5.603   3.467  15.652  0.00  0.00    +0.000 A 
ATOM      9  C   UNL     1       6.579   3.842  14.817  0.00  0.00    +0.000 A 
ATOM     10  C   UNL     1       6.964   5.252  14.628  0.00  0.00    +0.000 A 
ATOM     11  O   UNL     1       7.824   5.567  13.814  0.00  0.00    +0.000 OA
ATOM     12  O   UNL     1       6.315   6.186  15.422  0.00  0.00    +0.000 OA
ATOM     13  C   UNL     1       5.279   5.803  16.294  0.00  0.00    +0.000 A 
ATOM     14  C   UNL     1       4.673   6.819  17.028  0.00  0.00    +0.000 A 
ATOM     15  C   UNL     1       3.621   6.515  17.899  0.00  0.00    +0.000 A 
BRANCH   5  17
ATOM     16  C   UNL     1       1.302   3.727  18.215  0.00  0.00    +0.000 C 
ATOM     17  O   UNL     1       2.137   4.737  18.779  0.00  0.00    +0.000 OA
ENDBRANCH   5  17
ENDBRANCH   4  15
ENDBRANCH   3   4
ENDBRANCH   2   3
ENDBRANCH   1   2
BRANCH   1  18
ATOM     18  C   UNL     1       0.829   9.108  21.685  0.00  0.00    +0.000 C 
BRANCH  18  19
ATOM     19  O   UNL     1      -0.347   9.760  21.209  0.00  0.00    +0.000 OA
BRANCH  19  20
ATOM     20  C   UNL     1      -0.650  10.908  21.850  0.00  0.00    +0.000 A 
ATOM     21  N   UNL     1      -0.856  10.919  23.172  0.00  0.00    +0.000 NA
ATOM     22  O   UNL     1      -1.090  12.253  23.500  0.00  0.00    +0.000 OA
ATOM     23  N   UNL     1      -1.019  13.015  22.281  0.00  0.00    +0.000 N 
ATOM     24  O   UNL     1      -1.113  14.254  22.408  0.00  0.00    +0.000 OA
ATOM     25  C   UNL     1      -0.760  12.175  21.297  0.00  0.00    +0.000 A 
BRANCH  25  26
ATOM     26  S   UNL     1      -0.616  12.668  19.711  0.00  0.00    +0.000 S 
ATOM     27  O   UNL     1      -1.052  14.054  19.682  0.00  0.00    +0.000 OA
ATOM     28  O   UNL     1       0.735  12.308  19.340  0.00  0.00    +0.000 OA
BRANCH  26  29
ATOM     29  C   UNL     1      -1.765  11.715  18.765  0.00  0.00    +0.000 A 
ATOM     30  C   UNL     1      -1.296  10.688  17.939  0.00  0.00    +0.000 A 
ATOM     31  C   UNL     1      -2.207   9.907  17.229  0.00  0.00    +0.000 A 
ATOM     32  C   UNL     1      -3.577  10.141  17.355  0.00  0.00    +0.000 A 
ATOM     33  C   UNL     1      -4.041  11.155  18.193  0.00  0.00    +0.000 A 
ATOM     34  C   UNL     1      -3.137  11.943  18.906  0.00  0.00    +0.000 A 
ENDBRANCH  26  29
ENDBRANCH  25  26
ENDBRANCH  19  20
ENDBRANCH  18  19
ENDBRANCH   1  18
TORSDOF 10
ENDMDL
MODEL 4
REMARK VINA RESULT:      -8.2      2.304      3.527
REMARK  Name = 
REMARK  11 active torsions:
REMARK  status: ('A' for Active; 'I' for Inactive)
REMARK    1  A    between atoms: C_1  and  O_2
REMARK    2  A    between atoms: O_2  and  C_3
REMARK    3  A    between atoms: C_13  and  O_14
REMARK    4  A    between atoms: O_14  and  C_15
REMARK    5  A    between atoms: C_15  and  C_16
REMARK    6  A    between atoms: C_16  and  C_17
REMARK    7  A    between atoms: C_17  and  C_18
REMARK    8  A    between atoms: C_18  and  O_19
REMARK    9  A    between atoms: O_19  and  C_20
REMARK   10  A    between atoms: C_25  and  S_26
REMARK   11  A    between atoms: S_26  and  C_29
REMARK                            x       y       z     vdW  Elec       q    Type
REMARK                         _______ _______ _______ _____ _____    ______ ____
ROOT
ATOM      1  C   UNL     1       1.989   8.367  17.832  0.00  0.00    +0.000 C 
ENDROOT
BRANCH   1   2
ATOM      2  C   UNL     1       1.799   9.862  18.080  0.00  0.00    +0.000 C 
BRANCH   2   3
ATOM      3  C   UNL     1       0.406  10.183  18.614  0.00  0.00    +0.000 C 
BRANCH   3   4
ATOM      4  O   UNL     1       0.433  11.486  19.180  0.00  0.00    +0.000 OA
BRANCH   4  15
ATOM      5  C   UNL     1       0.007  11.251  21.502  0.00  0.00    +0.000 A 
ATOM      6  C   UNL     1      -0.860  11.365  22.603  0.00  0.00    +0.000 A 
ATOM      7  C   UNL     1      -2.094  12.007  22.475  0.00  0.00    +0.000 A 
ATOM      8  C   UNL     1      -3.032  12.146  23.578  0.00  0.00    +0.000 A 
ATOM      9  C   UNL     1      -4.173  12.819  23.391  0.00  0.00    +0.000 A 
ATOM     10  C   UNL     1      -4.528  13.438  22.101  0.00  0.00    +0.000 A 
ATOM     11  O   UNL     1      -5.554  14.096  21.979  0.00  0.00    +0.000 OA
ATOM     12  O   UNL     1      -3.651  13.226  21.047  0.00  0.00    +0.000 OA
ATOM     13  C   UNL     1      -2.443  12.531  21.237  0.00  0.00    +0.000 A 
ATOM     14  C   UNL     1      -1.620  12.393  20.123  0.00  0.00    +0.000 A 
ATOM     15  C   UNL     1      -0.393  11.732  20.242  0.00  0.00    +0.000 A 
BRANCH   5  17
ATOM     16  C   UNL     1       1.069   9.248  22.224  0.00  0.00    +0.000 C 
ATOM     17  O   UNL     1       1.185  10.599  21.781  0.00  0.00    +0.000 OA
ENDBRANCH   5  17
ENDBRANCH   4  15
ENDBRANCH   3   4
ENDBRANCH   2   3
ENDBRANCH   1   2
BRANCH   1  18
ATOM     18  C   UNL     1       2.312   7.597  19.111  0.00  0.00    +0.000 C 
BRANCH  18  19
ATOM     19  O   UNL     1       2.901   6.347  18.754  0.00  0.00    +0.000 OA
BRANCH  19  20
ATOM     20  C   UNL     1       2.503   5.304  19.512  0.00  0.00    +0.000 A 
ATOM     21  N   UNL     1       1.915   5.506  20.697  0.00  0.00    +0.000 NA
ATOM     22  O   UNL     1       1.596   4.236  21.174  0.00  0.00    +0.000 OA
ATOM     23  N   UNL     1       2.049   3.283  20.195  0.00  0.00    +0.000 N 
ATOM     24  O   UNL     1       1.755   2.090  20.421  0.00  0.00    +0.000 OA
ATOM     25  C   UNL     1       2.601   3.956  19.204  0.00  0.00    +0.000 A 
BRANCH  25  26
ATOM     26  S   UNL     1       3.268   3.207  17.871  0.00  0.00    +0.000 S 
ATOM     27  O   UNL     1       3.697   1.895  18.324  0.00  0.00    +0.000 OA
ATOM     28  O   UNL     1       2.265   3.345  16.839  0.00  0.00    +0.000 OA
BRANCH  26  29
ATOM     29  C   UNL     1       4.709   4.129  17.426  0.00  0.00    +0.000 A 
ATOM     30  C   UNL     1       5.747   4.279  18.351  0.00  0.00    +0.000 A 
ATOM     31  C   UNL     1       6.903   4.966  17.983  0.00  0.00    +0.000 A 
ATOM     32  C   UNL     1       7.026   5.488  16.694  0.00  0.00    +0.000 A 
ATOM     33  C   UNL     1       5.995   5.323  15.769  0.00  0.00    +0.000 A 
ATOM     34  C   UNL     1       4.834   4.637  16.130  0.00  0.00    +0.000 A 
ENDBRANCH  26  29
ENDBRANCH  25  26
ENDBRANCH  19  20
ENDBRANCH  18  19
ENDBRANCH   1  18
TORSDOF 10
ENDMDL
MODEL 5
REMARK VINA RESULT:      -8.0      2.393      3.376
REMARK  Name = 
REMARK  11 active torsions:
REMARK  status: ('A' for Active; 'I' for Inactive)
REMARK    1  A    between atoms: C_1  and  O_2
REMARK    2  A    between atoms: O_2  and  C_3
REMARK    3  A    between atoms: C_13  and  O_14
REMARK    4  A    between atoms: O_14  and  C_15
REMARK    5  A    between atoms: C_15  and  C_16
REMARK    6  A    between atoms: C_16  and  C_17
REMARK    7  A    between atoms: C_17  and  C_18
REMARK    8  A    between atoms: C_18  and  O_19
REMARK    9  A    between atoms: O_19  and  C_20
REMARK   10  A    between atoms: C_25  and  S_26
REMARK   11  A    between atoms: S_26  and  C_29
REMARK                            x       y       z     vdW  Elec       q    Type
REMARK                         _______ _______ _______ _____ _____    ______ ____
ROOT
ATOM      1  C   UNL     1       1.493   7.453  20.864  0.00  0.00    +0.000 C 
ENDROOT
BRANCH   1   2
ATOM      2  C   UNL     1       1.337   8.653  21.794  0.00  0.00    +0.000 C 
BRANCH   2   3
ATOM      3  C   UNL     1      -0.013   9.343  21.619  0.00  0.00    +0.000 C 
BRANCH   3   4
ATOM      4  O   UNL     1       0.184  10.522  20.850  0.00  0.00    +0.000 OA
BRANCH   4  15
ATOM      5  C   UNL     1      -1.746  11.794  20.313  0.00  0.00    +0.000 A 
ATOM      6  C   UNL     1      -2.827  12.073  19.459  0.00  0.00    +0.000 A 
ATOM      7  C   UNL     1      -2.921  11.463  18.206  0.00  0.00    +0.000 A 
ATOM      8  C   UNL     1      -4.022  11.708  17.287  0.00  0.00    +0.000 A 
ATOM      9  C   UNL     1      -4.017  11.126  16.083  0.00  0.00    +0.000 A 
ATOM     10  C   UNL     1      -2.930  10.236  15.636  0.00  0.00    +0.000 A 
ATOM     11  O   UNL     1      -2.926   9.763  14.506  0.00  0.00    +0.000 OA
ATOM     12  O   UNL     1      -1.932   9.960  16.559  0.00  0.00    +0.000 OA
ATOM     13  C   UNL     1      -1.922  10.577  17.824  0.00  0.00    +0.000 A 
ATOM     14  C   UNL     1      -0.864  10.255  18.669  0.00  0.00    +0.000 A 
ATOM     15  C   UNL     1      -0.778  10.847  19.933  0.00  0.00    +0.000 A 
BRANCH   5  17
ATOM     16  C   UNL     1      -3.033  12.455  22.202  0.00  0.00    +0.000 C 
ATOM     17  O   UNL     1      -1.786  12.472  21.509  0.00  0.00    +0.000 OA
ENDBRANCH   5  17
ENDBRANCH   4  15
ENDBRANCH   3   4
ENDBRANCH   2   3
ENDBRANCH   1   2
BRANCH   1  18
ATOM     18  C   UNL     1       2.200   7.811  19.558  0.00  0.00    +0.000 C 
BRANCH  18  19
ATOM     19  O   UNL     1       1.980   6.762  18.617  0.00  0.00    +0.000 OA
BRANCH  19  20
ATOM     20  C   UNL     1       3.081   6.381  17.936  0.00  0.00    +0.000 A 
ATOM     21  N   UNL     1       4.056   7.257  17.668  0.00  0.00    +0.000 NA
ATOM     22  O   UNL     1       5.042   6.526  17.010  0.00  0.00    +0.000 OA
ATOM     23  N   UNL     1       4.571   5.170  16.900  0.00  0.00    +0.000 N 
ATOM     24  O   UNL     1       5.380   4.351  16.415  0.00  0.00    +0.000 OA
ATOM     25  C   UNL     1       3.379   5.113  17.462  0.00  0.00    +0.000 A 
BRANCH  25  26
ATOM     26  S   UNL     1       2.483   3.707  17.525  0.00  0.00    +0.000 S 
ATOM     27  O   UNL     1       1.156   4.058  17.048  0.00  0.00    +0.000 OA
ATOM     28  O   UNL     1       3.290   2.732  16.826  0.00  0.00    +0.000 OA
BRANCH  26  29
ATOM     29  C   UNL     1       2.349   3.254  19.229  0.00  0.00    +0.000 A 
ATOM     30  C   UNL     1       3.439   2.660  19.874  0.00  0.00    +0.000 A 
ATOM     31  C   UNL     1       3.347   2.346  21.229  0.00  0.00    +0.000 A 
ATOM     32  C   UNL     1       2.181   2.637  21.938  0.00  0.00    +0.000 A 
ATOM     33  C   UNL     1       1.103   3.245  21.295  0.00  0.00    +0.000 A 
ATOM     34  C   UNL     1       1.185   3.561  19.938  0.00  0.00    +0.000 A 
ENDBRANCH  26  29
ENDBRANCH  25  26
ENDBRANCH  19  20
ENDBRANCH  18  19
ENDBRANCH   1  18
TORSDOF 10
ENDMDL
MODEL 6
REMARK VINA RESULT:      -8.0      0.947      1.364
REMARK  Name = 
REMARK  11 active torsions:
REMARK  status: ('A' for Active; 'I' for Inactive)
REMARK    1  A    between atoms: C_1  and  O_2
REMARK    2  A    between atoms: O_2  and  C_3
REMARK    3  A    between atoms: C_13  and  O_14
REMARK    4  A    between atoms: O_14  and  C_15
REMARK    5  A    between atoms: C_15  and  C_16
REMARK    6  A    between atoms: C_16  and  C_17
REMARK    7  A    between atoms: C_17  and  C_18
REMARK    8  A    between atoms: C_18  and  O_19
REMARK    9  A    between atoms: O_19  and  C_20
REMARK   10  A    between atoms: C_25  and  S_26
REMARK   11  A    between atoms: S_26  and  C_29
REMARK                            x       y       z     vdW  Elec       q    Type
REMARK                         _______ _______ _______ _____ _____    ______ ____
ROOT
ATOM      1  C   UNL     1       0.979   7.483  21.341  0.00  0.00    +0.000 C 
ENDROOT
BRANCH   1   2
ATOM      2  C   UNL     1       1.334   8.937  21.040  0.00  0.00    +0.000 C 
BRANCH   2   3
ATOM      3  C   UNL     1       0.320   9.911  21.633  0.00  0.00    +0.000 C 
BRANCH   3   4
ATOM      4  O   UNL     1       0.318  11.092  20.843  0.00  0.00    +0.000 OA
BRANCH   4  15
ATOM      5  C   UNL     1      -1.790  12.084  20.397  0.00  0.00    +0.000 A 
ATOM      6  C   UNL     1      -2.941  12.202  19.597  0.00  0.00    +0.000 A 
ATOM      7  C   UNL     1      -3.014  11.566  18.356  0.00  0.00    +0.000 A 
ATOM      8  C   UNL     1      -4.182  11.647  17.493  0.00  0.00    +0.000 A 
ATOM      9  C   UNL     1      -4.159  11.053  16.295  0.00  0.00    +0.000 A 
ATOM     10  C   UNL     1      -2.985  10.311  15.800  0.00  0.00    +0.000 A 
ATOM     11  O   UNL     1      -2.974   9.826  14.675  0.00  0.00    +0.000 OA
ATOM     12  O   UNL     1      -1.914  10.186  16.672  0.00  0.00    +0.000 OA
ATOM     13  C   UNL     1      -1.925  10.817  17.930  0.00  0.00    +0.000 A 
ATOM     14  C   UNL     1      -0.792  10.653  18.721  0.00  0.00    +0.000 A 
ATOM     15  C   UNL     1      -0.723  11.271  19.975  0.00  0.00    +0.000 A 
BRANCH   5  17
ATOM     16  C   UNL     1      -2.717  12.212  22.584  0.00  0.00    +0.000 C 
ATOM     17  O   UNL     1      -1.862  12.769  21.587  0.00  0.00    +0.000 OA
ENDBRANCH   5  17
ENDBRANCH   4  15
ENDBRANCH   3   4
ENDBRANCH   2   3
ENDBRANCH   1   2
BRANCH   1  18
ATOM     18  C   UNL     1       1.838   6.495  20.556  0.00  0.00    +0.000 C 
BRANCH  18  19
ATOM     19  O   UNL     1       1.195   5.221  20.567  0.00  0.00    +0.000 OA
BRANCH  19  20
ATOM     20  C   UNL     1       2.037   4.169  20.628  0.00  0.00    +0.000 A 
ATOM     21  N   UNL     1       2.291   3.563  21.794  0.00  0.00    +0.000 NA
ATOM     22  O   UNL     1       3.144   2.506  21.486  0.00  0.00    +0.000 OA
ATOM     23  N   UNL     1       3.382   2.545  20.067  0.00  0.00    +0.000 N 
ATOM     24  O   UNL     1       4.058   1.603  19.603  0.00  0.00    +0.000 OA
ATOM     25  C   UNL     1       2.707   3.566  19.574  0.00  0.00    +0.000 A 
BRANCH  25  26
ATOM     26  S   UNL     1       2.734   3.963  17.955  0.00  0.00    +0.000 S 
ATOM     27  O   UNL     1       2.411   2.740  17.239  0.00  0.00    +0.000 OA
ATOM     28  O   UNL     1       1.885   5.129  17.853  0.00  0.00    +0.000 OA
BRANCH  26  29
ATOM     29  C   UNL     1       4.399   4.404  17.557  0.00  0.00    +0.000 A 
ATOM     30  C   UNL     1       5.107   5.263  18.404  0.00  0.00    +0.000 A 
ATOM     31  C   UNL     1       6.435   5.574  18.114  0.00  0.00    +0.000 A 
ATOM     32  C   UNL     1       7.055   5.019  16.994  0.00  0.00    +0.000 A 
ATOM     33  C   UNL     1       6.350   4.150  16.161  0.00  0.00    +0.000 A 
ATOM     34  C   UNL     1       5.020   3.835  16.443  0.00  0.00    +0.000 A 
ENDBRANCH  26  29
ENDBRANCH  25  26
ENDBRANCH  19  20
ENDBRANCH  18  19
ENDBRANCH   1  18
TORSDOF 10
ENDMDL
MODEL 7
REMARK VINA RESULT:      -7.9      1.732      2.175
REMARK  Name = 
REMARK  11 active torsions:
REMARK  status: ('A' for Active; 'I' for Inactive)
REMARK    1  A    between atoms: C_1  and  O_2
REMARK    2  A    between atoms: O_2  and  C_3
REMARK    3  A    between atoms: C_13  and  O_14
REMARK    4  A    between atoms: O_14  and  C_15
REMARK    5  A    between atoms: C_15  and  C_16
REMARK    6  A    between atoms: C_16  and  C_17
REMARK    7  A    between atoms: C_17  and  C_18
REMARK    8  A    between atoms: C_18  and  O_19
REMARK    9  A    between atoms: O_19  and  C_20
REMARK   10  A    between atoms: C_25  and  S_26
REMARK   11  A    between atoms: S_26  and  C_29
REMARK                            x       y       z     vdW  Elec       q    Type
REMARK                         _______ _______ _______ _____ _____    ______ ____
ROOT
ATOM      1  C   UNL     1       2.115   7.176  18.437  0.00  0.00    +0.000 C 
ENDROOT
BRANCH   1   2
ATOM      2  C   UNL     1       2.625   8.499  17.869  0.00  0.00    +0.000 C 
BRANCH   2   3
ATOM      3  C   UNL     1       1.513   9.535  17.739  0.00  0.00    +0.000 C 
BRANCH   3   4
ATOM      4  O   UNL     1       1.341  10.168  18.999  0.00  0.00    +0.000 OA
BRANCH   4  15
ATOM      5  C   UNL     1       0.113  11.730  20.297  0.00  0.00    +0.000 A 
ATOM      6  C   UNL     1      -1.106  12.335  20.650  0.00  0.00    +0.000 A 
ATOM      7  C   UNL     1      -2.263  12.092  19.907  0.00  0.00    +0.000 A 
ATOM      8  C   UNL     1      -3.551  12.684  20.232  0.00  0.00    +0.000 A 
ATOM      9  C   UNL     1      -4.605  12.445  19.443  0.00  0.00    +0.000 A 
ATOM     10  C   UNL     1      -4.519  11.597  18.240  0.00  0.00    +0.000 A 
ATOM     11  O   UNL     1      -5.488  11.443  17.507  0.00  0.00    +0.000 OA
ATOM     12  O   UNL     1      -3.299  10.985  17.996  0.00  0.00    +0.000 OA
ATOM     13  C   UNL     1      -2.182  11.241  18.812  0.00  0.00    +0.000 A 
ATOM     14  C   UNL     1      -0.996  10.598  18.469  0.00  0.00    +0.000 A 
ATOM     15  C   UNL     1       0.161  10.822  19.223  0.00  0.00    +0.000 A 
BRANCH   5  17
ATOM     16  C   UNL     1       1.953  13.182  20.704  0.00  0.00    +0.000 C 
ATOM     17  O   UNL     1       1.165  12.067  21.116  0.00  0.00    +0.000 OA
ENDBRANCH   5  17
ENDBRANCH   4  15
ENDBRANCH   3   4
ENDBRANCH   2   3
ENDBRANCH   1   2
BRANCH   1  18
ATOM     18  C   UNL     1       2.623   6.911  19.852  0.00  0.00    +0.000 C 
BRANCH  18  19
ATOM     19  O   UNL     1       3.128   5.578  19.913  0.00  0.00    +0.000 OA
BRANCH  19  20
ATOM     20  C   UNL     1       2.183   4.617  19.853  0.00  0.00    +0.000 A 
ATOM     21  N   UNL     1       1.136   4.636  20.686  0.00  0.00    +0.000 NA
ATOM     22  O   UNL     1       0.349   3.547  20.318  0.00  0.00    +0.000 OA
ATOM     23  N   UNL     1       1.013   2.886  19.225  0.00  0.00    +0.000 N 
ATOM     24  O   UNL     1       0.392   1.935  18.706  0.00  0.00    +0.000 OA
ATOM     25  C   UNL     1       2.125   3.550  18.970  0.00  0.00    +0.000 A 
BRANCH  25  26
ATOM     26  S   UNL     1       3.192   3.089  17.774  0.00  0.00    +0.000 S 
ATOM     27  O   UNL     1       3.752   1.820  18.207  0.00  0.00    +0.000 OA
ATOM     28  O   UNL     1       2.428   3.184  16.550  0.00  0.00    +0.000 OA
BRANCH  26  29
ATOM     29  C   UNL     1       4.496   4.283  17.755  0.00  0.00    +0.000 A 
ATOM     30  C   UNL     1       4.481   5.306  16.802  0.00  0.00    +0.000 A 
ATOM     31  C   UNL     1       5.485   6.274  16.816  0.00  0.00    +0.000 A 
ATOM     32  C   UNL     1       6.488   6.226  17.785  0.00  0.00    +0.000 A 
ATOM     33  C   UNL     1       6.490   5.213  18.744  0.00  0.00    +0.000 A 
ATOM     34  C   UNL     1       5.490   4.239  18.735  0.00  0.00    +0.000 A 
ENDBRANCH  26  29
ENDBRANCH  25  26
ENDBRANCH  19  20
ENDBRANCH  18  19
ENDBRANCH   1  18
TORSDOF 10
ENDMDL
MODEL 8
REMARK VINA RESULT:      -7.9      1.529      3.405
REMARK  Name = 
REMARK  11 active torsions:
REMARK  status: ('A' for Active; 'I' for Inactive)
REMARK    1  A    between atoms: C_1  and  O_2
REMARK    2  A    between atoms: O_2  and  C_3
REMARK    3  A    between atoms: C_13  and  O_14
REMARK    4  A    between atoms: O_14  and  C_15
REMARK    5  A    between atoms: C_15  and  C_16
REMARK    6  A    between atoms: C_16  and  C_17
REMARK    7  A    between atoms: C_17  and  C_18
REMARK    8  A    between atoms: C_18  and  O_19
REMARK    9  A    between atoms: O_19  and  C_20
REMARK   10  A    between atoms: C_25  and  S_26
REMARK   11  A    between atoms: S_26  and  C_29
REMARK                            x       y       z     vdW  Elec       q    Type
REMARK                         _______ _______ _______ _____ _____    ______ ____
ROOT
ATOM      1  C   UNL     1       2.597   7.822  17.616  0.00  0.00    +0.000 C 
ENDROOT
BRANCH   1   2
ATOM      2  C   UNL     1       2.242   9.282  17.889  0.00  0.00    +0.000 C 
BRANCH   2   3
ATOM      3  C   UNL     1       0.887   9.425  18.574  0.00  0.00    +0.000 C 
BRANCH   3   4
ATOM      4  O   UNL     1       0.185  10.497  17.961  0.00  0.00    +0.000 OA
BRANCH   4  15
ATOM      5  C   UNL     1      -2.053  11.277  17.850  0.00  0.00    +0.000 A 
ATOM      6  C   UNL     1      -3.158  11.907  18.448  0.00  0.00    +0.000 A 
ATOM      7  C   UNL     1      -3.157  12.204  19.813  0.00  0.00    +0.000 A 
ATOM      8  C   UNL     1      -4.270  12.862  20.481  0.00  0.00    +0.000 A 
ATOM      9  C   UNL     1      -4.217  13.067  21.802  0.00  0.00    +0.000 A 
ATOM     10  C   UNL     1      -3.067  12.650  22.624  0.00  0.00    +0.000 A 
ATOM     11  O   UNL     1      -3.073  12.802  23.840  0.00  0.00    +0.000 OA
ATOM     12  O   UNL     1      -1.989  12.094  21.952  0.00  0.00    +0.000 OA
ATOM     13  C   UNL     1      -2.040  11.862  20.565  0.00  0.00    +0.000 A 
ATOM     14  C   UNL     1      -0.918  11.276  19.987  0.00  0.00    +0.000 A 
ATOM     15  C   UNL     1      -0.907  10.996  18.616  0.00  0.00    +0.000 A 
BRANCH   5  17
ATOM     16  C   UNL     1      -2.787   9.795  16.140  0.00  0.00    +0.000 C 
ATOM     17  O   UNL     1      -2.201  11.044  16.503  0.00  0.00    +0.000 OA
ENDBRANCH   5  17
ENDBRANCH   4  15
ENDBRANCH   3   4
ENDBRANCH   2   3
ENDBRANCH   1   2
BRANCH   1  18
ATOM     18  C   UNL     1       2.787   7.016  18.898  0.00  0.00    +0.000 C 
BRANCH  18  19
ATOM     19  O   UNL     1       2.355   5.676  18.663  0.00  0.00    +0.000 OA
BRANCH  19  20
ATOM     20  C   UNL     1       2.326   4.896  19.764  0.00  0.00    +0.000 A 
ATOM     21  N   UNL     1       1.507   5.181  20.782  0.00  0.00    +0.000 NA
ATOM     22  O   UNL     1       1.696   4.159  21.709  0.00  0.00    +0.000 OA
ATOM     23  N   UNL     1       2.690   3.268  21.170  0.00  0.00    +0.000 N 
ATOM     24  O   UNL     1       2.914   2.235  21.836  0.00  0.00    +0.000 OA
ATOM     25  C   UNL     1       3.059   3.742  19.995  0.00  0.00    +0.000 A 
BRANCH  25  26
ATOM     26  S   UNL     1       4.215   2.999  19.050  0.00  0.00    +0.000 S 
ATOM     27  O   UNL     1       5.178   2.426  19.975  0.00  0.00    +0.000 OA
ATOM     28  O   UNL     1       3.460   2.158  18.148  0.00  0.00    +0.000 OA
BRANCH  26  29
ATOM     29  C   UNL     1       5.030   4.272  18.132  0.00  0.00    +0.000 A 
ATOM     30  C   UNL     1       4.734   4.443  16.776  0.00  0.00    +0.000 A 
ATOM     31  C   UNL     1       5.344   5.476  16.065  0.00  0.00    +0.000 A 
ATOM     32  C   UNL     1       6.231   6.340  16.708  0.00  0.00    +0.000 A 
ATOM     33  C   UNL     1       6.511   6.175  18.065  0.00  0.00    +0.000 A 
ATOM     34  C   UNL     1       5.907   5.143  18.784  0.00  0.00    +0.000 A 
ENDBRANCH  26  29
ENDBRANCH  25  26
ENDBRANCH  19  20
ENDBRANCH  18  19
ENDBRANCH   1  18
TORSDOF 10
ENDMDL
MODEL 9
REMARK VINA RESULT:      -7.9      2.914      3.944
REMARK  Name = 
REMARK  11 active torsions:
REMARK  status: ('A' for Active; 'I' for Inactive)
REMARK    1  A    between atoms: C_1  and  O_2
REMARK    2  A    between atoms: O_2  and  C_3
REMARK    3  A    between atoms: C_13  and  O_14
REMARK    4  A    between atoms: O_14  and  C_15
REMARK    5  A    between atoms: C_15  and  C_16
REMARK    6  A    between atoms: C_16  and  C_17
REMARK    7  A    between atoms: C_17  and  C_18
REMARK    8  A    between atoms: C_18  and  O_19
REMARK    9  A    between atoms: O_19  and  C_20
REMARK   10  A    between atoms: C_25  and  S_26
REMARK   11  A    between atoms: S_26  and  C_29
REMARK                            x       y       z     vdW  Elec       q    Type
REMARK                         _______ _______ _______ _____ _____    ______ ____
ROOT
ATOM      1  C   UNL     1       2.182   7.646  18.065  0.00  0.00    +0.000 C 
ENDROOT
BRANCH   1   2
ATOM      2  C   UNL     1       2.227   9.153  17.822  0.00  0.00    +0.000 C 
BRANCH   2   3
ATOM      3  C   UNL     1       0.911   9.833  18.187  0.00  0.00    +0.000 C 
BRANCH   3   4
ATOM      4  O   UNL     1       1.118  10.610  19.358  0.00  0.00    +0.000 OA
BRANCH   4  15
ATOM      5  C   UNL     1      -0.308  12.502  19.477  0.00  0.00    +0.000 A 
ATOM      6  C   UNL     1      -0.543  13.871  19.260  0.00  0.00    +0.000 A 
ATOM      7  C   UNL     1       0.498  14.721  18.881  0.00  0.00    +0.000 A 
ATOM      8  C   UNL     1       0.310  16.142  18.635  0.00  0.00    +0.000 A 
ATOM      9  C   UNL     1       1.366  16.903  18.324  0.00  0.00    +0.000 A 
ATOM     10  C   UNL     1       2.732  16.359  18.219  0.00  0.00    +0.000 A 
ATOM     11  O   UNL     1       3.686  17.092  17.988  0.00  0.00    +0.000 OA
ATOM     12  O   UNL     1       2.871  14.989  18.384  0.00  0.00    +0.000 OA
ATOM     13  C   UNL     1       1.769  14.183  18.724  0.00  0.00    +0.000 A 
ATOM     14  C   UNL     1       2.017  12.824  18.893  0.00  0.00    +0.000 A 
ATOM     15  C   UNL     1       0.972  11.966  19.252  0.00  0.00    +0.000 A 
BRANCH   5  17
ATOM     16  C   UNL     1      -2.421  11.610  18.846  0.00  0.00    +0.000 C 
ATOM     17  O   UNL     1      -1.426  11.793  19.851  0.00  0.00    +0.000 OA
ENDBRANCH   5  17
ENDBRANCH   4  15
ENDBRANCH   3   4
ENDBRANCH   2   3
ENDBRANCH   1   2
BRANCH   1  18
ATOM     18  C   UNL     1       2.374   7.284  19.536  0.00  0.00    +0.000 C 
BRANCH  18  19
ATOM     19  O   UNL     1       3.235   6.149  19.618  0.00  0.00    +0.000 OA
BRANCH  19  20
ATOM     20  C   UNL     1       2.615   5.000  19.958  0.00  0.00    +0.000 A 
ATOM     21  N   UNL     1       1.880   4.923  21.073  0.00  0.00    +0.000 NA
ATOM     22  O   UNL     1       1.355   3.632  21.084  0.00  0.00    +0.000 OA
ATOM     23  N   UNL     1       1.844   2.959  19.910  0.00  0.00    +0.000 N 
ATOM     24  O   UNL     1       1.392   1.812  19.712  0.00  0.00    +0.000 OA
ATOM     25  C   UNL     1       2.611   3.807  19.250  0.00  0.00    +0.000 A 
BRANCH  25  26
ATOM     26  S   UNL     1       3.386   3.400  17.831  0.00  0.00    +0.000 S 
ATOM     27  O   UNL     1       3.957   2.082  18.052  0.00  0.00    +0.000 OA
ATOM     28  O   UNL     1       2.393   3.616  16.802  0.00  0.00    +0.000 OA
BRANCH  26  29
ATOM     29  C   UNL     1       4.717   4.544  17.621  0.00  0.00    +0.000 A 
ATOM     30  C   UNL     1       5.861   4.427  18.418  0.00  0.00    +0.000 A 
ATOM     31  C   UNL     1       6.929   5.301  18.219  0.00  0.00    +0.000 A 
ATOM     32  C   UNL     1       6.860   6.275  17.222  0.00  0.00    +0.000 A 
ATOM     33  C   UNL     1       5.725   6.377  16.419  0.00  0.00    +0.000 A 
ATOM     34  C   UNL     1       4.650   5.508  16.612  0.00  0.00    +0.000 A 
ENDBRANCH  26  29
ENDBRANCH  25  26
ENDBRANCH  19  20
ENDBRANCH  18  19
ENDBRANCH   1  18
TORSDOF 10
ENDMDL
