MODEL 1
REMARK VINA RESULT:      -4.2      0.000      0.000
REMARK  Name = 
REMARK  0 active torsions:
REMARK  status: ('A' for Active; 'I' for Inactive)
REMARK                            x       y       z     vdW  Elec       q    Type
REMARK                         _______ _______ _______ _____ _____    ______ ____
ROOT
ATOM      1  O   UNL     1       7.667   5.403  20.252  0.00  0.00    +0.000 OA
ATOM      2  C   UNL     1       7.470   5.453  19.050  0.00  0.00    +0.000 C 
ATOM      3  C   UNL     1       7.529   6.692  18.207  0.00  0.00    +0.000 C 
ATOM      4  C   UNL     1       7.209   6.206  16.801  0.00  0.00    +0.000 C 
ATOM      5  C   UNL     1       6.923   4.743  16.972  0.00  0.00    +0.000 C 
ATOM      6  O   UNL     1       6.557   3.985  16.091  0.00  0.00    +0.000 OA
ATOM      7  N   UNL     1       7.143   4.400  18.264  0.00  0.00    +0.000 N 
ATOM      8  H   UNL     1       7.015   3.464  18.617  0.00  0.00    +0.000 HD
ENDROOT
TORSDOF 0
ENDMDL
MODEL 2
REMARK VINA RESULT:      -4.2      0.075      2.829
REMARK  Name = 
REMARK  0 active torsions:
REMARK  status: ('A' for Active; 'I' for Inactive)
REMARK                            x       y       z     vdW  Elec       q    Type
REMARK                         _______ _______ _______ _____ _____    ______ ____
ROOT
ATOM      1  O   UNL     1       6.508   3.986  16.121  0.00  0.00    +0.000 OA
ATOM      2  C   UNL     1       6.856   4.748  17.008  0.00  0.00    +0.000 C 
ATOM      3  C   UNL     1       7.209   6.194  16.826  0.00  0.00    +0.000 C 
ATOM      4  C   UNL     1       7.567   6.672  18.226  0.00  0.00    +0.000 C 
ATOM      5  C   UNL     1       7.458   5.441  19.076  0.00  0.00    +0.000 C 
ATOM      6  O   UNL     1       7.730   5.372  20.262  0.00  0.00    +0.000 OA
ATOM      7  N   UNL     1       7.005   4.417  18.312  0.00  0.00    +0.000 N 
ATOM      8  H   UNL     1       6.854   3.487  18.668  0.00  0.00    +0.000 HD
ENDROOT
TORSDOF 0
ENDMDL
MODEL 3
REMARK VINA RESULT:      -4.2      2.051      3.464
REMARK  Name = 
REMARK  0 active torsions:
REMARK  status: ('A' for Active; 'I' for Inactive)
REMARK                            x       y       z     vdW  Elec       q    Type
REMARK                         _______ _______ _______ _____ _____    ______ ____
ROOT
ATOM      1  O   UNL     1       7.713   5.363  14.387  0.00  0.00    +0.000 OA
ATOM      2  C   UNL     1       7.017   4.993  15.319  0.00  0.00    +0.000 C 
ATOM      3  C   UNL     1       5.566   4.625  15.230  0.00  0.00    +0.000 C 
ATOM      4  C   UNL     1       5.189   4.243  16.654  0.00  0.00    +0.000 C 
ATOM      5  C   UNL     1       6.436   4.494  17.448  0.00  0.00    +0.000 C 
ATOM      6  O   UNL     1       6.544   4.377  18.656  0.00  0.00    +0.000 OA
ATOM      7  N   UNL     1       7.427   4.868  16.603  0.00  0.00    +0.000 N 
ATOM      8  H   UNL     1       8.361   5.091  16.910  0.00  0.00    +0.000 HD
ENDROOT
TORSDOF 0
ENDMDL
MODEL 4
REMARK VINA RESULT:      -4.1      2.068      2.506
REMARK  Name = 
REMARK  0 active torsions:
REMARK  status: ('A' for Active; 'I' for Inactive)
REMARK                            x       y       z     vdW  Elec       q    Type
REMARK                         _______ _______ _______ _____ _____    ______ ____
ROOT
ATOM      1  O   UNL     1       6.615   4.351  18.586  0.00  0.00    +0.000 OA
ATOM      2  C   UNL     1       6.472   4.528  17.387  0.00  0.00    +0.000 C 
ATOM      3  C   UNL     1       5.216   4.263  16.611  0.00  0.00    +0.000 C 
ATOM      4  C   UNL     1       5.571   4.646  15.182  0.00  0.00    +0.000 C 
ATOM      5  C   UNL     1       7.020   5.029  15.250  0.00  0.00    +0.000 C 
ATOM      6  O   UNL     1       7.717   5.339  14.300  0.00  0.00    +0.000 OA
ATOM      7  N   UNL     1       7.428   4.978  16.541  0.00  0.00    +0.000 N 
ATOM      8  H   UNL     1       8.368   5.194  16.832  0.00  0.00    +0.000 HD
ENDROOT
TORSDOF 0
ENDMDL
MODEL 5
REMARK VINA RESULT:      -4.1      6.181      6.851
REMARK  Name = 
REMARK  0 active torsions:
REMARK  status: ('A' for Active; 'I' for Inactive)
REMARK                            x       y       z     vdW  Elec       q    Type
REMARK                         _______ _______ _______ _____ _____    ______ ____
ROOT
ATOM      1  O   UNL     1       1.138   3.592  17.775  0.00  0.00    +0.000 OA
ATOM      2  C   UNL     1       1.391   3.715  18.962  0.00  0.00    +0.000 C 
ATOM      3  C   UNL     1       2.062   4.900  19.591  0.00  0.00    +0.000 C 
ATOM      4  C   UNL     1       2.134   4.548  21.070  0.00  0.00    +0.000 C 
ATOM      5  C   UNL     1       1.564   3.163  21.149  0.00  0.00    +0.000 C 
ATOM      6  O   UNL     1       1.500   2.479  22.156  0.00  0.00    +0.000 OA
ATOM      7  N   UNL     1       1.128   2.796  19.920  0.00  0.00    +0.000 N 
ATOM      8  H   UNL     1       0.705   1.901  19.728  0.00  0.00    +0.000 HD
ENDROOT
TORSDOF 0
ENDMDL
MODEL 6
REMARK VINA RESULT:      -4.1      1.989      2.224
REMARK  Name = 
REMARK  0 active torsions:
REMARK  status: ('A' for Active; 'I' for Inactive)
REMARK                            x       y       z     vdW  Elec       q    Type
REMARK                         _______ _______ _______ _____ _____    ______ ____
ROOT
ATOM      1  O   UNL     1       7.698   8.311  17.320  0.00  0.00    +0.000 OA
ATOM      2  C   UNL     1       7.542   7.102  17.358  0.00  0.00    +0.000 C 
ATOM      3  C   UNL     1       7.697   6.241  18.576  0.00  0.00    +0.000 C 
ATOM      4  C   UNL     1       7.394   4.834  18.081  0.00  0.00    +0.000 C 
ATOM      5  C   UNL     1       7.162   5.001  16.609  0.00  0.00    +0.000 C 
ATOM      6  O   UNL     1       6.954   4.098  15.817  0.00  0.00    +0.000 OA
ATOM      7  N   UNL     1       7.218   6.319  16.302  0.00  0.00    +0.000 N 
ATOM      8  H   UNL     1       7.093   6.675  15.367  0.00  0.00    +0.000 HD
ENDROOT
TORSDOF 0
ENDMDL
MODEL 7
REMARK VINA RESULT:      -4.0      2.191      2.626
REMARK  Name = 
REMARK  0 active torsions:
REMARK  status: ('A' for Active; 'I' for Inactive)
REMARK                            x       y       z     vdW  Elec       q    Type
REMARK                         _______ _______ _______ _____ _____    ______ ____
ROOT
ATOM      1  O   UNL     1       4.455   3.738  19.394  0.00  0.00    +0.000 OA
ATOM      2  C   UNL     1       5.046   4.021  18.366  0.00  0.00    +0.000 C 
ATOM      3  C   UNL     1       4.406   4.263  17.031  0.00  0.00    +0.000 C 
ATOM      4  C   UNL     1       5.575   4.574  16.106  0.00  0.00    +0.000 C 
ATOM      5  C   UNL     1       6.787   4.411  16.974  0.00  0.00    +0.000 C 
ATOM      6  O   UNL     1       7.943   4.506  16.602  0.00  0.00    +0.000 OA
ATOM      7  N   UNL     1       6.388   4.147  18.242  0.00  0.00    +0.000 N 
ATOM      8  H   UNL     1       7.031   3.998  19.004  0.00  0.00    +0.000 HD
ENDROOT
TORSDOF 0
ENDMDL
MODEL 8
REMARK VINA RESULT:      -4.0      5.867      6.144
REMARK  Name = 
REMARK  0 active torsions:
REMARK  status: ('A' for Active; 'I' for Inactive)
REMARK                            x       y       z     vdW  Elec       q    Type
REMARK                         _______ _______ _______ _____ _____    ______ ____
ROOT
ATOM      1  O   UNL     1       2.236   3.251  22.230  0.00  0.00    +0.000 OA
ATOM      2  C   UNL     1       2.105   2.980  21.048  0.00  0.00    +0.000 C 
ATOM      3  C   UNL     1       0.856   3.173  20.242  0.00  0.00    +0.000 C 
ATOM      4  C   UNL     1       1.228   2.682  18.850  0.00  0.00    +0.000 C 
ATOM      5  C   UNL     1       2.634   2.182  18.998  0.00  0.00    +0.000 C 
ATOM      6  O   UNL     1       3.289   1.640  18.125  0.00  0.00    +0.000 OA
ATOM      7  N   UNL     1       3.061   2.436  20.258  0.00  0.00    +0.000 N 
ATOM      8  H   UNL     1       3.980   2.188  20.591  0.00  0.00    +0.000 HD
ENDROOT
TORSDOF 0
ENDMDL
MODEL 9
REMARK VINA RESULT:      -4.0      2.163      3.048
REMARK  Name = 
REMARK  0 active torsions:
REMARK  status: ('A' for Active; 'I' for Inactive)
REMARK                            x       y       z     vdW  Elec       q    Type
REMARK                         _______ _______ _______ _____ _____    ______ ____
ROOT
ATOM      1  O   UNL     1       7.996   4.561  16.781  0.00  0.00    +0.000 OA
ATOM      2  C   UNL     1       6.823   4.402  17.072  0.00  0.00    +0.000 C 
ATOM      3  C   UNL     1       5.667   4.508  16.122  0.00  0.00    +0.000 C 
ATOM      4  C   UNL     1       4.445   4.223  16.985  0.00  0.00    +0.000 C 
ATOM      5  C   UNL     1       5.001   4.051  18.367  0.00  0.00    +0.000 C 
ATOM      6  O   UNL     1       4.344   3.873  19.378  0.00  0.00    +0.000 OA
ATOM      7  N   UNL     1       6.353   4.120  18.310  0.00  0.00    +0.000 N 
ATOM      8  H   UNL     1       6.945   4.032  19.121  0.00  0.00    +0.000 HD
ENDROOT
TORSDOF 0
ENDMDL
