MODEL 1
REMARK VINA RESULT:      -8.6      0.000      0.000
REMARK  Name = 
REMARK  4 active torsions:
REMARK  status: ('A' for Active; 'I' for Inactive)
REMARK    1  A    between atoms: C_2  and  C_3
REMARK    2  A    between atoms: C_2  and  C_10
REMARK    3  A    between atoms: C_13  and  C_14
REMARK    4  A    between atoms: C_14  and  N_15
REMARK                            x       y       z     vdW  Elec       q    Type
REMARK                         _______ _______ _______ _____ _____    ______ ____
ROOT
ATOM      1  C   UNL     1       2.090   6.490  19.977  0.00  0.00    +0.000 A 
ATOM      2  C   UNL     1       1.344   5.699  20.827  0.00  0.00    +0.000 A 
ATOM      3  C   UNL     1       1.968   4.435  20.864  0.00  0.00    +0.000 A 
ATOM      4  C   UNL     1       3.071   4.508  20.038  0.00  0.00    +0.000 A 
ATOM      5  O   UNL     1       3.142   5.760  19.481  0.00  0.00    +0.000 OA
ENDROOT
BRANCH   1   7
ATOM      6  O   UNL     1       2.461   8.399  18.656  0.00  0.00    +0.000 OA
ATOM      7  C   UNL     1       1.907   7.879  19.628  0.00  0.00    +0.000 C 
BRANCH   7   8
ATOM      8  C   UNL     1       1.085   8.758  20.496  0.00  0.00    +0.000 A 
ATOM      9  C   UNL     1       0.265   9.726  19.898  0.00  0.00    +0.000 A 
ATOM     10  C   UNL     1      -0.481  10.599  20.692  0.00  0.00    +0.000 A 
ATOM     11  C   UNL     1      -0.387  10.519  22.081  0.00  0.00    +0.000 A 
ATOM     12 CL   UNL     1      -1.308  11.590  23.062  0.00  0.00    +0.000 Cl
ATOM     13  C   UNL     1       0.457   9.585  22.683  0.00  0.00    +0.000 A 
ATOM     14  C   UNL     1       1.194   8.703  21.892  0.00  0.00    +0.000 A 
ENDBRANCH   7   8
ENDBRANCH   1   7
BRANCH   4  15
ATOM     15  C   UNL     1       4.128   3.517  19.662  0.00  0.00    +0.000 C 
BRANCH  15  16
ATOM     16  N   UNL     1       4.739   3.909  18.408  0.00  0.00    +0.000 N 
ATOM     17  C   UNL     1       4.154   3.690  17.191  0.00  0.00    +0.000 C 
ATOM     18  O   UNL     1       3.054   3.251  16.929  0.00  0.00    +0.000 OA
ATOM     19  C   UNL     1       5.133   4.081  16.181  0.00  0.00    +0.000 A 
ATOM     20  C   UNL     1       5.073   3.981  14.805  0.00  0.00    +0.000 A 
ATOM     21  C   UNL     1       6.192   4.411  14.083  0.00  0.00    +0.000 A 
ATOM     22  C   UNL     1       7.324   4.923  14.750  0.00  0.00    +0.000 A 
ATOM     23  C   UNL     1       7.366   4.995  16.148  0.00  0.00    +0.000 A 
ATOM     24  C   UNL     1       6.251   4.558  16.840  0.00  0.00    +0.000 A 
ATOM     25  C   UNL     1       5.997   4.441  18.282  0.00  0.00    +0.000 C 
ATOM     26  O   UNL     1       6.794   4.743  19.145  0.00  0.00    +0.000 OA
ENDBRANCH  15  16
ENDBRANCH   4  15
TORSDOF 4
ENDMDL
MODEL 2
REMARK VINA RESULT:      -8.5      0.267      1.971
REMARK  Name = 
REMARK  4 active torsions:
REMARK  status: ('A' for Active; 'I' for Inactive)
REMARK    1  A    between atoms: C_2  and  C_3
REMARK    2  A    between atoms: C_2  and  C_10
REMARK    3  A    between atoms: C_13  and  C_14
REMARK    4  A    between atoms: C_14  and  N_15
REMARK                            x       y       z     vdW  Elec       q    Type
REMARK                         _______ _______ _______ _____ _____    ______ ____
ROOT
ATOM      1  C   UNL     1       2.099   6.472  19.936  0.00  0.00    +0.000 A 
ATOM      2  C   UNL     1       1.232   5.690  20.672  0.00  0.00    +0.000 A 
ATOM      3  C   UNL     1       1.839   4.424  20.812  0.00  0.00    +0.000 A 
ATOM      4  C   UNL     1       3.053   4.488  20.157  0.00  0.00    +0.000 A 
ATOM      5  O   UNL     1       3.210   5.736  19.608  0.00  0.00    +0.000 OA
ENDROOT
BRANCH   1   7
ATOM      6  O   UNL     1       2.546   8.330  18.566  0.00  0.00    +0.000 OA
ATOM      7  C   UNL     1       1.974   7.858  19.553  0.00  0.00    +0.000 C 
BRANCH   7   8
ATOM      8  C   UNL     1       1.196   8.794  20.401  0.00  0.00    +0.000 A 
ATOM      9  C   UNL     1       1.293   8.686  21.796  0.00  0.00    +0.000 A 
ATOM     10  C   UNL     1       0.534   9.520  22.618  0.00  0.00    +0.000 A 
ATOM     11  C   UNL     1      -0.338  10.446  22.045  0.00  0.00    +0.000 A 
ATOM     12 CL   UNL     1      -1.270  11.480  23.055  0.00  0.00    +0.000 Cl
ATOM     13  C   UNL     1      -0.469  10.533  20.659  0.00  0.00    +0.000 A 
ATOM     14  C   UNL     1       0.297   9.708  19.834  0.00  0.00    +0.000 A 
ENDBRANCH   7   8
ENDBRANCH   1   7
BRANCH   4  15
ATOM     15  C   UNL     1       4.150   3.492  19.949  0.00  0.00    +0.000 C 
BRANCH  15  16
ATOM     16  N   UNL     1       4.787   3.728  18.670  0.00  0.00    +0.000 N 
ATOM     17  C   UNL     1       5.953   4.429  18.534  0.00  0.00    +0.000 C 
ATOM     18  O   UNL     1       6.690   4.878  19.387  0.00  0.00    +0.000 OA
ATOM     19  C   UNL     1       6.186   4.579  17.100  0.00  0.00    +0.000 A 
ATOM     20  C   UNL     1       7.176   5.272  16.431  0.00  0.00    +0.000 A 
ATOM     21  C   UNL     1       7.128   5.267  15.033  0.00  0.00    +0.000 A 
ATOM     22  C   UNL     1       6.104   4.577  14.353  0.00  0.00    +0.000 A 
ATOM     23  C   UNL     1       5.101   3.897  15.055  0.00  0.00    +0.000 A 
ATOM     24  C   UNL     1       5.166   3.922  16.437  0.00  0.00    +0.000 A 
ATOM     25  C   UNL     1       4.257   3.376  17.454  0.00  0.00    +0.000 C 
ATOM     26  O   UNL     1       3.238   2.769  17.206  0.00  0.00    +0.000 OA
ENDBRANCH  15  16
ENDBRANCH   4  15
TORSDOF 4
ENDMDL
MODEL 3
REMARK VINA RESULT:      -8.4      1.618      2.566
REMARK  Name = 
REMARK  4 active torsions:
REMARK  status: ('A' for Active; 'I' for Inactive)
REMARK    1  A    between atoms: C_2  and  C_3
REMARK    2  A    between atoms: C_2  and  C_10
REMARK    3  A    between atoms: C_13  and  C_14
REMARK    4  A    between atoms: C_14  and  N_15
REMARK                            x       y       z     vdW  Elec       q    Type
REMARK                         _______ _______ _______ _____ _____    ______ ____
ROOT
ATOM      1  C   UNL     1       2.707   7.040  18.173  0.00  0.00    +0.000 A 
ATOM      2  C   UNL     1       2.082   5.811  18.223  0.00  0.00    +0.000 A 
ATOM      3  C   UNL     1       3.098   4.833  18.200  0.00  0.00    +0.000 A 
ATOM      4  C   UNL     1       4.301   5.507  18.140  0.00  0.00    +0.000 A 
ATOM      5  O   UNL     1       4.067   6.859  18.109  0.00  0.00    +0.000 OA
ENDROOT
BRANCH   1   7
ATOM      6  O   UNL     1       2.293   9.191  17.318  0.00  0.00    +0.000 OA
ATOM      7  C   UNL     1       2.126   8.362  18.216  0.00  0.00    +0.000 C 
BRANCH   7   8
ATOM      8  C   UNL     1       1.356   8.793  19.408  0.00  0.00    +0.000 A 
ATOM      9  C   UNL     1       0.514   9.910  19.303  0.00  0.00    +0.000 A 
ATOM     10  C   UNL     1      -0.184  10.368  20.422  0.00  0.00    +0.000 A 
ATOM     11  C   UNL     1      -0.023   9.723  21.648  0.00  0.00    +0.000 A 
ATOM     12 CL   UNL     1      -0.887  10.281  23.027  0.00  0.00    +0.000 Cl
ATOM     13  C   UNL     1       0.842   8.635  21.769  0.00  0.00    +0.000 A 
ATOM     14  C   UNL     1       1.533   8.168  20.650  0.00  0.00    +0.000 A 
ENDBRANCH   7   8
ENDBRANCH   1   7
BRANCH   4  15
ATOM     15  C   UNL     1       5.724   5.046  18.095  0.00  0.00    +0.000 C 
BRANCH  15  16
ATOM     16  N   UNL     1       6.104   4.770  16.724  0.00  0.00    +0.000 N 
ATOM     17  C   UNL     1       7.001   5.533  16.029  0.00  0.00    +0.000 C 
ATOM     18  O   UNL     1       7.684   6.461  16.407  0.00  0.00    +0.000 OA
ATOM     19  C   UNL     1       7.001   5.032  14.657  0.00  0.00    +0.000 A 
ATOM     20  C   UNL     1       7.665   5.504  13.542  0.00  0.00    +0.000 A 
ATOM     21  C   UNL     1       7.445   4.833  12.335  0.00  0.00    +0.000 A 
ATOM     22  C   UNL     1       6.578   3.723  12.278  0.00  0.00    +0.000 A 
ATOM     23  C   UNL     1       5.902   3.276  13.420  0.00  0.00    +0.000 A 
ATOM     24  C   UNL     1       6.131   3.959  14.600  0.00  0.00    +0.000 A 
ATOM     25  C   UNL     1       5.546   3.794  15.938  0.00  0.00    +0.000 C 
ATOM     26  O   UNL     1       4.714   2.958  16.223  0.00  0.00    +0.000 OA
ENDBRANCH  15  16
ENDBRANCH   4  15
TORSDOF 4
ENDMDL
MODEL 4
REMARK VINA RESULT:      -8.4      1.450      2.139
REMARK  Name = 
REMARK  4 active torsions:
REMARK  status: ('A' for Active; 'I' for Inactive)
REMARK    1  A    between atoms: C_2  and  C_3
REMARK    2  A    between atoms: C_2  and  C_10
REMARK    3  A    between atoms: C_13  and  C_14
REMARK    4  A    between atoms: C_14  and  N_15
REMARK                            x       y       z     vdW  Elec       q    Type
REMARK                         _______ _______ _______ _____ _____    ______ ____
ROOT
ATOM      1  C   UNL     1       2.723   6.967  18.446  0.00  0.00    +0.000 A 
ATOM      2  C   UNL     1       2.188   5.787  18.919  0.00  0.00    +0.000 A 
ATOM      3  C   UNL     1       3.224   4.830  18.898  0.00  0.00    +0.000 A 
ATOM      4  C   UNL     1       4.349   5.467  18.415  0.00  0.00    +0.000 A 
ATOM      5  O   UNL     1       4.044   6.773  18.124  0.00  0.00    +0.000 OA
ENDROOT
BRANCH   1   7
ATOM      6  O   UNL     1       2.191   8.940  17.281  0.00  0.00    +0.000 OA
ATOM      7  C   UNL     1       2.098   8.262  18.308  0.00  0.00    +0.000 C 
BRANCH   7   8
ATOM      8  C   UNL     1       1.371   8.859  19.455  0.00  0.00    +0.000 A 
ATOM      9  C   UNL     1       1.510   8.275  20.723  0.00  0.00    +0.000 A 
ATOM     10  C   UNL     1       0.799   8.787  21.810  0.00  0.00    +0.000 A 
ATOM     11  C   UNL     1      -0.066   9.865  21.624  0.00  0.00    +0.000 A 
ATOM     12 CL   UNL     1      -0.939  10.500  22.963  0.00  0.00    +0.000 Cl
ATOM     13  C   UNL     1      -0.238  10.426  20.359  0.00  0.00    +0.000 A 
ATOM     14  C   UNL     1       0.480   9.925  19.272  0.00  0.00    +0.000 A 
ENDBRANCH   7   8
ENDBRANCH   1   7
BRANCH   4  15
ATOM     15  C   UNL     1       5.750   5.006  18.162  0.00  0.00    +0.000 C 
BRANCH  15  16
ATOM     16  N   UNL     1       5.979   4.902  16.735  0.00  0.00    +0.000 N 
ATOM     17  C   UNL     1       5.335   3.995  15.939  0.00  0.00    +0.000 C 
ATOM     18  O   UNL     1       4.442   3.220  16.214  0.00  0.00    +0.000 OA
ATOM     19  C   UNL     1       5.939   4.100  14.614  0.00  0.00    +0.000 A 
ATOM     20  C   UNL     1       5.710   3.352  13.475  0.00  0.00    +0.000 A 
ATOM     21  C   UNL     1       6.473   3.661  12.344  0.00  0.00    +0.000 A 
ATOM     22  C   UNL     1       7.430   4.696  12.383  0.00  0.00    +0.000 A 
ATOM     23  C   UNL     1       7.656   5.426  13.557  0.00  0.00    +0.000 A 
ATOM     24  C   UNL     1       6.895   5.098  14.664  0.00  0.00    +0.000 A 
ATOM     25  C   UNL     1       6.924   5.613  16.040  0.00  0.00    +0.000 C 
ATOM     26  O   UNL     1       7.678   6.477  16.432  0.00  0.00    +0.000 OA
ENDBRANCH  15  16
ENDBRANCH   4  15
TORSDOF 4
ENDMDL
MODEL 5
REMARK VINA RESULT:      -8.2      1.474      2.561
REMARK  Name = 
REMARK  4 active torsions:
REMARK  status: ('A' for Active; 'I' for Inactive)
REMARK    1  A    between atoms: C_2  and  C_3
REMARK    2  A    between atoms: C_2  and  C_10
REMARK    3  A    between atoms: C_13  and  C_14
REMARK    4  A    between atoms: C_14  and  N_15
REMARK                            x       y       z     vdW  Elec       q    Type
REMARK                         _______ _______ _______ _____ _____    ______ ____
ROOT
ATOM      1  C   UNL     1       2.036   7.490  19.178  0.00  0.00    +0.000 A 
ATOM      2  C   UNL     1       1.558   7.361  20.466  0.00  0.00    +0.000 A 
ATOM      3  C   UNL     1       1.949   6.085  20.922  0.00  0.00    +0.000 A 
ATOM      4  C   UNL     1       2.653   5.490  19.894  0.00  0.00    +0.000 A 
ATOM      5  O   UNL     1       2.697   6.342  18.819  0.00  0.00    +0.000 OA
ENDROOT
BRANCH   1   7
ATOM      6  O   UNL     1       2.704   8.763  17.318  0.00  0.00    +0.000 OA
ATOM      7  C   UNL     1       1.948   8.619  18.281  0.00  0.00    +0.000 C 
BRANCH   7   8
ATOM      8  C   UNL     1       0.967   9.700  18.547  0.00  0.00    +0.000 A 
ATOM      9  C   UNL     1       1.298  10.703  19.470  0.00  0.00    +0.000 A 
ATOM     10  C   UNL     1       0.375  11.705  19.776  0.00  0.00    +0.000 A 
ATOM     11  C   UNL     1      -0.884  11.690  19.176  0.00  0.00    +0.000 A 
ATOM     12 CL   UNL     1      -2.021  12.926  19.547  0.00  0.00    +0.000 Cl
ATOM     13  C   UNL     1      -1.234  10.675  18.286  0.00  0.00    +0.000 A 
ATOM     14  C   UNL     1      -0.309   9.678  17.969  0.00  0.00    +0.000 A 
ENDBRANCH   7   8
ENDBRANCH   1   7
BRANCH   4  15
ATOM     15  C   UNL     1       3.324   4.160  19.758  0.00  0.00    +0.000 C 
BRANCH  15  16
ATOM     16  N   UNL     1       4.210   4.176  18.612  0.00  0.00    +0.000 N 
ATOM     17  C   UNL     1       5.502   4.618  18.672  0.00  0.00    +0.000 C 
ATOM     18  O   UNL     1       6.157   4.966  19.633  0.00  0.00    +0.000 OA
ATOM     19  C   UNL     1       6.008   4.620  17.303  0.00  0.00    +0.000 A 
ATOM     20  C   UNL     1       7.223   5.054  16.808  0.00  0.00    +0.000 A 
ATOM     21  C   UNL     1       7.420   4.964  15.426  0.00  0.00    +0.000 A 
ATOM     22  C   UNL     1       6.409   4.448  14.589  0.00  0.00    +0.000 A 
ATOM     23  C   UNL     1       5.179   4.033  15.114  0.00  0.00    +0.000 A 
ATOM     24  C   UNL     1       5.006   4.138  16.482  0.00  0.00    +0.000 A 
ATOM     25  C   UNL     1       3.839   3.856  17.330  0.00  0.00    +0.000 C 
ATOM     26  O   UNL     1       2.774   3.450  16.916  0.00  0.00    +0.000 OA
ENDBRANCH  15  16
ENDBRANCH   4  15
TORSDOF 4
ENDMDL
MODEL 6
REMARK VINA RESULT:      -8.0      2.361      3.643
REMARK  Name = 
REMARK  4 active torsions:
REMARK  status: ('A' for Active; 'I' for Inactive)
REMARK    1  A    between atoms: C_2  and  C_3
REMARK    2  A    between atoms: C_2  and  C_10
REMARK    3  A    between atoms: C_13  and  C_14
REMARK    4  A    between atoms: C_14  and  N_15
REMARK                            x       y       z     vdW  Elec       q    Type
REMARK                         _______ _______ _______ _____ _____    ______ ____
ROOT
ATOM      1  C   UNL     1       2.502   4.798  18.955  0.00  0.00    +0.000 A 
ATOM      2  C   UNL     1       1.843   3.712  18.416  0.00  0.00    +0.000 A 
ATOM      3  C   UNL     1       2.618   3.262  17.326  0.00  0.00    +0.000 A 
ATOM      4  C   UNL     1       3.719   4.091  17.249  0.00  0.00    +0.000 A 
ATOM      5  O   UNL     1       3.646   5.041  18.236  0.00  0.00    +0.000 OA
ENDROOT
BRANCH   1   7
ATOM      6  O   UNL     1       2.036   5.112  21.238  0.00  0.00    +0.000 OA
ATOM      7  C   UNL     1       2.156   5.594  20.109  0.00  0.00    +0.000 C 
BRANCH   7   8
ATOM      8  C   UNL     1       1.853   7.038  19.949  0.00  0.00    +0.000 A 
ATOM      9  C   UNL     1       1.284   7.735  21.024  0.00  0.00    +0.000 A 
ATOM     10  C   UNL     1       0.943   9.081  20.884  0.00  0.00    +0.000 A 
ATOM     11  C   UNL     1       1.150   9.722  19.663  0.00  0.00    +0.000 A 
ATOM     12 CL   UNL     1       0.736  11.383  19.490  0.00  0.00    +0.000 Cl
ATOM     13  C   UNL     1       1.680   9.026  18.577  0.00  0.00    +0.000 A 
ATOM     14  C   UNL     1       2.033   7.682  18.717  0.00  0.00    +0.000 A 
ENDBRANCH   7   8
ENDBRANCH   1   7
BRANCH   4  15
ATOM     15  C   UNL     1       4.897   4.133  16.326  0.00  0.00    +0.000 C 
BRANCH  15  16
ATOM     16  N   UNL     1       5.821   5.160  16.763  0.00  0.00    +0.000 N 
ATOM     17  C   UNL     1       6.708   4.981  17.788  0.00  0.00    +0.000 C 
ATOM     18  O   UNL     1       6.957   3.981  18.429  0.00  0.00    +0.000 OA
ATOM     19  C   UNL     1       7.345   6.274  18.020  0.00  0.00    +0.000 A 
ATOM     20  C   UNL     1       8.251   6.653  18.992  0.00  0.00    +0.000 A 
ATOM     21  C   UNL     1       8.669   7.987  18.991  0.00  0.00    +0.000 A 
ATOM     22  C   UNL     1       8.176   8.894  18.030  0.00  0.00    +0.000 A 
ATOM     23  C   UNL     1       7.243   8.488  17.067  0.00  0.00    +0.000 A 
ATOM     24  C   UNL     1       6.840   7.165  17.093  0.00  0.00    +0.000 A 
ATOM     25  C   UNL     1       5.848   6.445  16.282  0.00  0.00    +0.000 C 
ATOM     26  O   UNL     1       5.192   6.948  15.395  0.00  0.00    +0.000 OA
ENDBRANCH  15  16
ENDBRANCH   4  15
TORSDOF 4
ENDMDL
MODEL 7
REMARK VINA RESULT:      -8.0      1.055      2.255
REMARK  Name = 
REMARK  4 active torsions:
REMARK  status: ('A' for Active; 'I' for Inactive)
REMARK    1  A    between atoms: C_2  and  C_3
REMARK    2  A    between atoms: C_2  and  C_10
REMARK    3  A    between atoms: C_13  and  C_14
REMARK    4  A    between atoms: C_14  and  N_15
REMARK                            x       y       z     vdW  Elec       q    Type
REMARK                         _______ _______ _______ _____ _____    ______ ____
ROOT
ATOM      1  C   UNL     1       2.645   6.834  19.014  0.00  0.00    +0.000 A 
ATOM      2  C   UNL     1       2.051   5.784  19.685  0.00  0.00    +0.000 A 
ATOM      3  C   UNL     1       3.040   4.792  19.851  0.00  0.00    +0.000 A 
ATOM      4  C   UNL     1       4.196   5.279  19.276  0.00  0.00    +0.000 A 
ATOM      5  O   UNL     1       3.956   6.523  18.750  0.00  0.00    +0.000 OA
ENDROOT
BRANCH   1   7
ATOM      6  O   UNL     1       2.256   8.609  17.523  0.00  0.00    +0.000 OA
ATOM      7  C   UNL     1       2.083   8.109  18.637  0.00  0.00    +0.000 C 
BRANCH   7   8
ATOM      8  C   UNL     1       1.327   8.909  19.633  0.00  0.00    +0.000 A 
ATOM      9  C   UNL     1       1.442   8.583  20.992  0.00  0.00    +0.000 A 
ATOM     10  C   UNL     1       0.704   9.286  21.946  0.00  0.00    +0.000 A 
ATOM     11  C   UNL     1      -0.165  10.298  21.537  0.00  0.00    +0.000 A 
ATOM     12 CL   UNL     1      -1.071  11.170  22.710  0.00  0.00    +0.000 Cl
ATOM     13  C   UNL     1      -0.313  10.602  20.184  0.00  0.00    +0.000 A 
ATOM     14  C   UNL     1       0.432   9.909  19.229  0.00  0.00    +0.000 A 
ENDBRANCH   7   8
ENDBRANCH   1   7
BRANCH   4  15
ATOM     15  C   UNL     1       5.575   4.715  19.129  0.00  0.00    +0.000 C 
BRANCH  15  16
ATOM     16  N   UNL     1       5.877   4.525  17.725  0.00  0.00    +0.000 N 
ATOM     17  C   UNL     1       6.920   5.145  17.094  0.00  0.00    +0.000 C 
ATOM     18  O   UNL     1       7.797   5.845  17.555  0.00  0.00    +0.000 OA
ATOM     19  C   UNL     1       6.801   4.823  15.675  0.00  0.00    +0.000 A 
ATOM     20  C   UNL     1       7.550   5.263  14.601  0.00  0.00    +0.000 A 
ATOM     21  C   UNL     1       7.179   4.807  13.332  0.00  0.00    +0.000 A 
ATOM     22  C   UNL     1       6.084   3.933  13.176  0.00  0.00    +0.000 A 
ATOM     23  C   UNL     1       5.329   3.517  14.279  0.00  0.00    +0.000 A 
ATOM     24  C   UNL     1       5.711   3.987  15.522  0.00  0.00    +0.000 A 
ATOM     25  C   UNL     1       5.109   3.799  16.850  0.00  0.00    +0.000 C 
ATOM     26  O   UNL     1       4.112   3.144  17.063  0.00  0.00    +0.000 OA
ENDBRANCH  15  16
ENDBRANCH   4  15
TORSDOF 4
ENDMDL
MODEL 8
REMARK VINA RESULT:      -7.9      1.477      1.998
REMARK  Name = 
REMARK  4 active torsions:
REMARK  status: ('A' for Active; 'I' for Inactive)
REMARK    1  A    between atoms: C_2  and  C_3
REMARK    2  A    between atoms: C_2  and  C_10
REMARK    3  A    between atoms: C_13  and  C_14
REMARK    4  A    between atoms: C_14  and  N_15
REMARK                            x       y       z     vdW  Elec       q    Type
REMARK                         _______ _______ _______ _____ _____    ______ ____
ROOT
ATOM      1  C   UNL     1       1.779   7.985  19.313  0.00  0.00    +0.000 A 
ATOM      2  C   UNL     1       1.396   7.832  20.630  0.00  0.00    +0.000 A 
ATOM      3  C   UNL     1       1.810   6.544  21.030  0.00  0.00    +0.000 A 
ATOM      4  C   UNL     1       2.430   5.967  19.940  0.00  0.00    +0.000 A 
ATOM      5  O   UNL     1       2.402   6.840  18.883  0.00  0.00    +0.000 OA
ENDROOT
BRANCH   1   7
ATOM      6  O   UNL     1       2.294   9.277  17.417  0.00  0.00    +0.000 OA
ATOM      7  C   UNL     1       1.633   9.133  18.449  0.00  0.00    +0.000 C 
BRANCH   7   8
ATOM      8  C   UNL     1       0.716  10.235  18.830  0.00  0.00    +0.000 A 
ATOM      9  C   UNL     1       1.218  11.305  19.585  0.00  0.00    +0.000 A 
ATOM     10  C   UNL     1       0.366  12.331  19.999  0.00  0.00    +0.000 A 
ATOM     11  C   UNL     1      -0.990  12.273  19.678  0.00  0.00    +0.000 A 
ATOM     12 CL   UNL     1      -2.041  13.538  20.182  0.00  0.00    +0.000 Cl
ATOM     13  C   UNL     1      -1.504  11.193  18.961  0.00  0.00    +0.000 A 
ATOM     14  C   UNL     1      -0.653  10.172  18.535  0.00  0.00    +0.000 A 
ENDBRANCH   7   8
ENDBRANCH   1   7
BRANCH   4  15
ATOM     15  C   UNL     1       3.078   4.635  19.727  0.00  0.00    +0.000 C 
BRANCH  15  16
ATOM     16  N   UNL     1       3.983   4.708  18.598  0.00  0.00    +0.000 N 
ATOM     17  C   UNL     1       3.656   4.259  17.348  0.00  0.00    +0.000 C 
ATOM     18  O   UNL     1       2.599   3.831  16.931  0.00  0.00    +0.000 OA
ATOM     19  C   UNL     1       4.865   4.366  16.536  0.00  0.00    +0.000 A 
ATOM     20  C   UNL     1       5.094   3.969  15.233  0.00  0.00    +0.000 A 
ATOM     21  C   UNL     1       6.380   4.170  14.720  0.00  0.00    +0.000 A 
ATOM     22  C   UNL     1       7.387   4.755  15.515  0.00  0.00    +0.000 A 
ATOM     23  C   UNL     1       7.133   5.130  16.840  0.00  0.00    +0.000 A 
ATOM     24  C   UNL     1       5.856   4.916  17.327  0.00  0.00    +0.000 A 
ATOM     25  C   UNL     1       5.286   5.132  18.664  0.00  0.00    +0.000 C 
ATOM     26  O   UNL     1       5.904   5.574  19.609  0.00  0.00    +0.000 OA
ENDBRANCH  15  16
ENDBRANCH   4  15
TORSDOF 4
ENDMDL
MODEL 9
REMARK VINA RESULT:      -7.9      1.583      2.853
REMARK  Name = 
REMARK  4 active torsions:
REMARK  status: ('A' for Active; 'I' for Inactive)
REMARK    1  A    between atoms: C_2  and  C_3
REMARK    2  A    between atoms: C_2  and  C_10
REMARK    3  A    between atoms: C_13  and  C_14
REMARK    4  A    between atoms: C_14  and  N_15
REMARK                            x       y       z     vdW  Elec       q    Type
REMARK                         _______ _______ _______ _____ _____    ______ ____
ROOT
ATOM      1  C   UNL     1       2.824   6.831  19.258  0.00  0.00    +0.000 A 
ATOM      2  C   UNL     1       2.899   7.418  18.011  0.00  0.00    +0.000 A 
ATOM      3  C   UNL     1       4.061   6.914  17.390  0.00  0.00    +0.000 A 
ATOM      4  C   UNL     1       4.644   6.038  18.283  0.00  0.00    +0.000 A 
ATOM      5  O   UNL     1       3.897   5.994  19.434  0.00  0.00    +0.000 OA
ENDROOT
BRANCH   1   7
ATOM      6  O   UNL     1       1.270   6.004  20.817  0.00  0.00    +0.000 OA
ATOM      7  C   UNL     1       1.806   6.972  20.273  0.00  0.00    +0.000 C 
BRANCH   7   8
ATOM      8  C   UNL     1       1.311   8.322  20.642  0.00  0.00    +0.000 A 
ATOM      9  C   UNL     1       0.996   8.584  21.983  0.00  0.00    +0.000 A 
ATOM     10  C   UNL     1       0.482   9.829  22.350  0.00  0.00    +0.000 A 
ATOM     11  C   UNL     1       0.263  10.801  21.374  0.00  0.00    +0.000 A 
ATOM     12 CL   UNL     1      -0.365  12.338  21.825  0.00  0.00    +0.000 Cl
ATOM     13  C   UNL     1       0.539  10.534  20.033  0.00  0.00    +0.000 A 
ATOM     14  C   UNL     1       1.064   9.295  19.664  0.00  0.00    +0.000 A 
ENDBRANCH   7   8
ENDBRANCH   1   7
BRANCH   4  15
ATOM     15  C   UNL     1       5.876   5.190  18.218  0.00  0.00    +0.000 C 
BRANCH  15  16
ATOM     16  N   UNL     1       6.157   4.843  16.840  0.00  0.00    +0.000 N 
ATOM     17  C   UNL     1       7.084   5.499  16.079  0.00  0.00    +0.000 C 
ATOM     18  O   UNL     1       7.871   6.368  16.395  0.00  0.00    +0.000 OA
ATOM     19  C   UNL     1       6.967   4.965  14.725  0.00  0.00    +0.000 A 
ATOM     20  C   UNL     1       7.614   5.343  13.565  0.00  0.00    +0.000 A 
ATOM     21  C   UNL     1       7.270   4.665  12.391  0.00  0.00    +0.000 A 
ATOM     22  C   UNL     1       6.301   3.641  12.410  0.00  0.00    +0.000 A 
ATOM     23  C   UNL     1       5.646   3.291  13.597  0.00  0.00    +0.000 A 
ATOM     24  C   UNL     1       5.998   3.980  14.743  0.00  0.00    +0.000 A 
ATOM     25  C   UNL     1       5.469   3.905  16.112  0.00  0.00    +0.000 C 
ATOM     26  O   UNL     1       4.579   3.161  16.463  0.00  0.00    +0.000 OA
ENDBRANCH  15  16
ENDBRANCH   4  15
TORSDOF 4
ENDMDL
