MODEL 1
REMARK VINA RESULT:      -6.8      0.000      0.000
REMARK  Name = 
REMARK  13 active torsions:
REMARK  status: ('A' for Active; 'I' for Inactive)
REMARK    1  A    between atoms: O_1  and  C_2
REMARK    2  A    between atoms: C_2  and  C_3
REMARK    3  A    between atoms: C_4  and  O_5
REMARK    4  A    between atoms: C_6  and  O_7
REMARK    5  A    between atoms: C_8  and  O_9
REMARK    6  A    between atoms: N_11  and  C_12
REMARK    7  A    between atoms: C_12  and  C_13
REMARK    8  A    between atoms: C_13  and  C_14
REMARK    9  A    between atoms: C_14  and  C_15
REMARK   10  A    between atoms: C_15  and  C_16
REMARK   11  A    between atoms: C_16  and  O_17
REMARK   12  A    between atoms: O_17  and  C_18
REMARK   13  A    between atoms: C_18  and  C_19
REMARK                            x       y       z     vdW  Elec       q    Type
REMARK                         _______ _______ _______ _____ _____    ______ ____
ROOT
ATOM      1  C   UNL     1       3.465   3.343  18.068  0.00  0.00    +0.000 C 
ATOM      2  C   UNL     1       1.982   3.199  18.511  0.00  0.00    +0.000 C 
ATOM      3  C   UNL     1       1.736   3.927  19.844  0.00  0.00    +0.000 C 
ATOM      4  C   UNL     1       2.172   5.398  19.729  0.00  0.00    +0.000 C 
ATOM      5  C   UNL     1       3.605   5.520  19.200  0.00  0.00    +0.000 C 
ATOM      6  N   UNL     1       3.811   4.787  17.944  0.00  0.00    +0.000 NA
ENDROOT
BRANCH   2   7
ATOM      7  O   UNL     1       1.553   1.833  18.594  0.00  0.00    +0.000 OA
ATOM      8  H   UNL     1       2.067   1.321  17.938  0.00  0.00    +0.000 HD
ENDBRANCH   2   7
BRANCH   3   9
ATOM      9  O   UNL     1       0.356   3.872  20.234  0.00  0.00    +0.000 OA
ATOM     10  H   UNL     1       0.140   4.713  20.675  0.00  0.00    +0.000 HD
ENDBRANCH   3   9
BRANCH   4  11
ATOM     11  O   UNL     1       2.094   6.077  20.987  0.00  0.00    +0.000 OA
ATOM     12  H   UNL     1       1.561   5.534  21.593  0.00  0.00    +0.000 HD
ENDBRANCH   4  11
BRANCH   1  13
ATOM     13  C   UNL     1       4.442   2.514  18.953  0.00  0.00    +0.000 C 
BRANCH  13  14
ATOM     14  O   UNL     1       4.302   1.118  18.696  0.00  0.00    +0.000 OA
ATOM     15  H   UNL     1       4.392   0.664  19.556  0.00  0.00    +0.000 HD
ENDBRANCH  13  14
ENDBRANCH   1  13
BRANCH   6  16
ATOM     16  C   UNL     1       5.154   4.966  17.383  0.00  0.00    +0.000 C 
BRANCH  16  17
ATOM     17  C   UNL     1       6.148   5.705  18.286  0.00  0.00    +0.000 C 
BRANCH  17  18
ATOM     18  C   UNL     1       7.071   6.608  17.464  0.00  0.00    +0.000 C 
BRANCH  18  19
ATOM     19  C   UNL     1       8.041   7.461  18.296  0.00  0.00    +0.000 C 
BRANCH  19  20
ATOM     20  C   UNL     1       8.101   8.921  17.842  0.00  0.00    +0.000 C 
BRANCH  20  21
ATOM     21  O   UNL     1       9.056   9.551  18.681  0.00  0.00    +0.000 OA
BRANCH  21  22
ATOM     22  C   UNL     1       8.992  10.968  18.676  0.00  0.00    +0.000 C 
BRANCH  22  23
ATOM     23  C   UNL     1      10.304  11.461  18.044  0.00  0.00    +0.000 C 
ATOM     24  C   UNL     1      10.180  12.878  17.476  0.00  0.00    +0.000 C 
ATOM     25  C   UNL     1      10.139  13.959  18.555  0.00  0.00    +0.000 C 
ATOM     26  C   UNL     1      11.276  13.827  19.567  0.00  0.00    +0.000 C 
ATOM     27  C   UNL     1      11.400  12.418  20.135  0.00  0.00    +0.000 C 
ATOM     28  C   UNL     1      11.490  11.377  19.024  0.00  0.00    +0.000 C 
ENDBRANCH  22  23
ENDBRANCH  21  22
ENDBRANCH  20  21
ENDBRANCH  19  20
ENDBRANCH  18  19
ENDBRANCH  17  18
ENDBRANCH  16  17
ENDBRANCH   6  16
TORSDOF 13
ENDMDL
MODEL 2
REMARK VINA RESULT:      -6.6      0.844      1.095
REMARK  Name = 
REMARK  13 active torsions:
REMARK  status: ('A' for Active; 'I' for Inactive)
REMARK    1  A    between atoms: O_1  and  C_2
REMARK    2  A    between atoms: C_2  and  C_3
REMARK    3  A    between atoms: C_4  and  O_5
REMARK    4  A    between atoms: C_6  and  O_7
REMARK    5  A    between atoms: C_8  and  O_9
REMARK    6  A    between atoms: N_11  and  C_12
REMARK    7  A    between atoms: C_12  and  C_13
REMARK    8  A    between atoms: C_13  and  C_14
REMARK    9  A    between atoms: C_14  and  C_15
REMARK   10  A    between atoms: C_15  and  C_16
REMARK   11  A    between atoms: C_16  and  O_17
REMARK   12  A    between atoms: O_17  and  C_18
REMARK   13  A    between atoms: C_18  and  C_19
REMARK                            x       y       z     vdW  Elec       q    Type
REMARK                         _______ _______ _______ _____ _____    ______ ____
ROOT
ATOM      1  C   UNL     1       3.645   2.981  18.375  0.00  0.00    +0.000 C 
ATOM      2  C   UNL     1       2.111   2.981  18.625  0.00  0.00    +0.000 C 
ATOM      3  C   UNL     1       1.772   3.683  19.951  0.00  0.00    +0.000 C 
ATOM      4  C   UNL     1       2.366   5.103  19.962  0.00  0.00    +0.000 C 
ATOM      5  C   UNL     1       3.860   5.089  19.621  0.00  0.00    +0.000 C 
ATOM      6  N   UNL     1       4.150   4.383  18.366  0.00  0.00    +0.000 NA
ENDROOT
BRANCH   2   7
ATOM      7  O   UNL     1       1.538   1.667  18.587  0.00  0.00    +0.000 OA
ATOM      8  H   UNL     1       2.270   1.023  18.665  0.00  0.00    +0.000 HD
ENDBRANCH   2   7
BRANCH   3   9
ATOM      9  O   UNL     1       0.354   3.764  20.164  0.00  0.00    +0.000 OA
ATOM     10  H   UNL     1       0.146   3.246  20.963  0.00  0.00    +0.000 HD
ENDBRANCH   3   9
BRANCH   4  11
ATOM     11  O   UNL     1       2.197   5.742  21.233  0.00  0.00    +0.000 OA
ATOM     12  H   UNL     1       1.925   6.662  21.076  0.00  0.00    +0.000 HD
ENDBRANCH   4  11
BRANCH   1  13
ATOM     13  C   UNL     1       4.412   2.022  19.333  0.00  0.00    +0.000 C 
BRANCH  13  14
ATOM     14  O   UNL     1       4.414   0.689  18.824  0.00  0.00    +0.000 OA
ATOM     15  H   UNL     1       4.126   0.743  17.892  0.00  0.00    +0.000 HD
ENDBRANCH  13  14
ENDBRANCH   1  13
BRANCH   6  16
ATOM     16  C   UNL     1       5.564   4.437  17.984  0.00  0.00    +0.000 C 
BRANCH  16  17
ATOM     17  C   UNL     1       6.489   5.128  18.993  0.00  0.00    +0.000 C 
BRANCH  17  18
ATOM     18  C   UNL     1       7.535   5.988  18.280  0.00  0.00    +0.000 C 
BRANCH  18  19
ATOM     19  C   UNL     1       7.007   7.329  17.746  0.00  0.00    +0.000 C 
BRANCH  19  20
ATOM     20  C   UNL     1       8.119   8.290  17.323  0.00  0.00    +0.000 C 
BRANCH  20  21
ATOM     21  O   UNL     1       8.610   8.870  18.520  0.00  0.00    +0.000 OA
BRANCH  21  22
ATOM     22  C   UNL     1       8.546  10.286  18.552  0.00  0.00    +0.000 C 
BRANCH  22  23
ATOM     23  C   UNL     1       9.863  10.768  19.182  0.00  0.00    +0.000 C 
ATOM     24  C   UNL     1      10.789  11.433  18.159  0.00  0.00    +0.000 C 
ATOM     25  C   UNL     1      10.324  12.827  17.742  0.00  0.00    +0.000 C 
ATOM     26  C   UNL     1      10.020  13.731  18.935  0.00  0.00    +0.000 C 
ATOM     27  C   UNL     1       9.097  13.072  19.954  0.00  0.00    +0.000 C 
ATOM     28  C   UNL     1       9.625  11.707  20.380  0.00  0.00    +0.000 C 
ENDBRANCH  22  23
ENDBRANCH  21  22
ENDBRANCH  20  21
ENDBRANCH  19  20
ENDBRANCH  18  19
ENDBRANCH  17  18
ENDBRANCH  16  17
ENDBRANCH   6  16
TORSDOF 13
ENDMDL
MODEL 3
REMARK VINA RESULT:      -6.6      5.248      8.947
REMARK  Name = 
REMARK  13 active torsions:
REMARK  status: ('A' for Active; 'I' for Inactive)
REMARK    1  A    between atoms: O_1  and  C_2
REMARK    2  A    between atoms: C_2  and  C_3
REMARK    3  A    between atoms: C_4  and  O_5
REMARK    4  A    between atoms: C_6  and  O_7
REMARK    5  A    between atoms: C_8  and  O_9
REMARK    6  A    between atoms: N_11  and  C_12
REMARK    7  A    between atoms: C_12  and  C_13
REMARK    8  A    between atoms: C_13  and  C_14
REMARK    9  A    between atoms: C_14  and  C_15
REMARK   10  A    between atoms: C_15  and  C_16
REMARK   11  A    between atoms: C_16  and  O_17
REMARK   12  A    between atoms: O_17  and  C_18
REMARK   13  A    between atoms: C_18  and  C_19
REMARK                            x       y       z     vdW  Elec       q    Type
REMARK                         _______ _______ _______ _____ _____    ______ ____
ROOT
ATOM      1  C   UNL     1       4.013   5.091  18.612  0.00  0.00    +0.000 C 
ATOM      2  C   UNL     1       5.431   4.581  18.989  0.00  0.00    +0.000 C 
ATOM      3  C   UNL     1       6.384   4.673  17.784  0.00  0.00    +0.000 C 
ATOM      4  C   UNL     1       6.405   6.113  17.239  0.00  0.00    +0.000 C 
ATOM      5  C   UNL     1       4.990   6.629  16.962  0.00  0.00    +0.000 C 
ATOM      6  N   UNL     1       4.100   6.496  18.123  0.00  0.00    +0.000 NA
ENDROOT
BRANCH   2   7
ATOM      7  O   UNL     1       5.424   3.252  19.527  0.00  0.00    +0.000 OA
ATOM      8  H   UNL     1       4.518   3.067  19.845  0.00  0.00    +0.000 HD
ENDBRANCH   2   7
BRANCH   3   9
ATOM      9  O   UNL     1       7.721   4.280  18.131  0.00  0.00    +0.000 OA
ATOM     10  H   UNL     1       7.665   3.435  18.611  0.00  0.00    +0.000 HD
ENDBRANCH   3   9
BRANCH   4  11
ATOM     11  O   UNL     1       7.168   6.213  16.030  0.00  0.00    +0.000 OA
ATOM     12  H   UNL     1       8.109   6.115  16.256  0.00  0.00    +0.000 HD
ENDBRANCH   4  11
BRANCH   1  13
ATOM     13  C   UNL     1       3.256   4.118  17.660  0.00  0.00    +0.000 C 
BRANCH  13  14
ATOM     14  O   UNL     1       2.865   2.932  18.349  0.00  0.00    +0.000 OA
ATOM     15  H   UNL     1       3.182   3.024  19.269  0.00  0.00    +0.000 HD
ENDBRANCH  13  14
ENDBRANCH   1  13
BRANCH   6  16
ATOM     16  C   UNL     1       2.767   7.065  17.900  0.00  0.00    +0.000 C 
BRANCH  16  17
ATOM     17  C   UNL     1       2.725   8.589  17.737  0.00  0.00    +0.000 C 
BRANCH  17  18
ATOM     18  C   UNL     1       1.427   9.167  18.307  0.00  0.00    +0.000 C 
BRANCH  18  19
ATOM     19  C   UNL     1       1.469  10.676  18.595  0.00  0.00    +0.000 C 
BRANCH  19  20
ATOM     20  C   UNL     1       0.356  11.142  19.535  0.00  0.00    +0.000 C 
BRANCH  20  21
ATOM     21  O   UNL     1      -0.787  10.371  19.198  0.00  0.00    +0.000 OA
BRANCH  21  22
ATOM     22  C   UNL     1      -1.764  11.074  18.447  0.00  0.00    +0.000 C 
BRANCH  22  23
ATOM     23  C   UNL     1      -2.767  10.023  17.944  0.00  0.00    +0.000 C 
ATOM     24  C   UNL     1      -4.213  10.523  17.999  0.00  0.00    +0.000 C 
ATOM     25  C   UNL     1      -4.539  11.548  16.914  0.00  0.00    +0.000 C 
ATOM     26  C   UNL     1      -4.131  11.079  15.518  0.00  0.00    +0.000 C 
ATOM     27  C   UNL     1      -2.691  10.583  15.459  0.00  0.00    +0.000 C 
ATOM     28  C   UNL     1      -2.425   9.526  16.526  0.00  0.00    +0.000 C 
ENDBRANCH  22  23
ENDBRANCH  21  22
ENDBRANCH  20  21
ENDBRANCH  19  20
ENDBRANCH  18  19
ENDBRANCH  17  18
ENDBRANCH  16  17
ENDBRANCH   6  16
TORSDOF 13
ENDMDL
MODEL 4
REMARK VINA RESULT:      -6.5      1.330      2.196
REMARK  Name = 
REMARK  13 active torsions:
REMARK  status: ('A' for Active; 'I' for Inactive)
REMARK    1  A    between atoms: O_1  and  C_2
REMARK    2  A    between atoms: C_2  and  C_3
REMARK    3  A    between atoms: C_4  and  O_5
REMARK    4  A    between atoms: C_6  and  O_7
REMARK    5  A    between atoms: C_8  and  O_9
REMARK    6  A    between atoms: N_11  and  C_12
REMARK    7  A    between atoms: C_12  and  C_13
REMARK    8  A    between atoms: C_13  and  C_14
REMARK    9  A    between atoms: C_14  and  C_15
REMARK   10  A    between atoms: C_15  and  C_16
REMARK   11  A    between atoms: C_16  and  O_17
REMARK   12  A    between atoms: O_17  and  C_18
REMARK   13  A    between atoms: C_18  and  C_19
REMARK                            x       y       z     vdW  Elec       q    Type
REMARK                         _______ _______ _______ _____ _____    ______ ____
ROOT
ATOM      1  C   UNL     1       2.802   4.694  18.700  0.00  0.00    +0.000 C 
ATOM      2  C   UNL     1       2.277   4.233  20.088  0.00  0.00    +0.000 C 
ATOM      3  C   UNL     1       2.895   2.881  20.485  0.00  0.00    +0.000 C 
ATOM      4  C   UNL     1       4.431   2.971  20.441  0.00  0.00    +0.000 C 
ATOM      5  C   UNL     1       4.923   3.516  19.096  0.00  0.00    +0.000 C 
ATOM      6  N   UNL     1       4.289   4.791  18.734  0.00  0.00    +0.000 NA
ENDROOT
BRANCH   2   7
ATOM      7  O   UNL     1       0.847   4.174  20.154  0.00  0.00    +0.000 OA
ATOM      8  H   UNL     1       0.608   3.434  20.748  0.00  0.00    +0.000 HD
ENDBRANCH   2   7
BRANCH   3   9
ATOM      9  O   UNL     1       2.484   2.473  21.799  0.00  0.00    +0.000 OA
ATOM     10  H   UNL     1       1.529   2.288  21.765  0.00  0.00    +0.000 HD
ENDBRANCH   3   9
BRANCH   4  11
ATOM     11  O   UNL     1       5.046   1.696  20.665  0.00  0.00    +0.000 OA
ATOM     12  H   UNL     1       5.279   1.315  19.801  0.00  0.00    +0.000 HD
ENDBRANCH   4  11
BRANCH   1  13
ATOM     13  C   UNL     1       2.234   3.841  17.527  0.00  0.00    +0.000 C 
BRANCH  13  14
ATOM     14  O   UNL     1       0.825   4.023  17.400  0.00  0.00    +0.000 OA
ATOM     15  H   UNL     1       0.500   4.317  18.273  0.00  0.00    +0.000 HD
ENDBRANCH  13  14
ENDBRANCH   1  13
BRANCH   6  16
ATOM     16  C   UNL     1       4.813   5.366  17.492  0.00  0.00    +0.000 C 
BRANCH  16  17
ATOM     17  C   UNL     1       5.272   6.826  17.589  0.00  0.00    +0.000 C 
BRANCH  17  18
ATOM     18  C   UNL     1       6.620   7.026  16.892  0.00  0.00    +0.000 C 
BRANCH  18  19
ATOM     19  C   UNL     1       7.775   7.410  17.830  0.00  0.00    +0.000 C 
BRANCH  19  20
ATOM     20  C   UNL     1       8.054   8.914  17.859  0.00  0.00    +0.000 C 
BRANCH  20  21
ATOM     21  O   UNL     1       8.904   9.132  18.974  0.00  0.00    +0.000 OA
BRANCH  21  22
ATOM     22  C   UNL     1       9.093  10.498  19.305  0.00  0.00    +0.000 C 
BRANCH  22  23
ATOM     23  C   UNL     1       9.561  11.198  18.019  0.00  0.00    +0.000 C 
ATOM     24  C   UNL     1       8.773  12.479  17.733  0.00  0.00    +0.000 C 
ATOM     25  C   UNL     1       9.148  13.637  18.657  0.00  0.00    +0.000 C 
ATOM     26  C   UNL     1      10.655  13.876  18.724  0.00  0.00    +0.000 C 
ATOM     27  C   UNL     1      11.442  12.602  19.010  0.00  0.00    +0.000 C 
ATOM     28  C   UNL     1      11.073  11.490  18.033  0.00  0.00    +0.000 C 
ENDBRANCH  22  23
ENDBRANCH  21  22
ENDBRANCH  20  21
ENDBRANCH  19  20
ENDBRANCH  18  19
ENDBRANCH  17  18
ENDBRANCH  16  17
ENDBRANCH   6  16
TORSDOF 13
ENDMDL
MODEL 5
REMARK VINA RESULT:      -6.4      0.790      1.337
REMARK  Name = 
REMARK  13 active torsions:
REMARK  status: ('A' for Active; 'I' for Inactive)
REMARK    1  A    between atoms: O_1  and  C_2
REMARK    2  A    between atoms: C_2  and  C_3
REMARK    3  A    between atoms: C_4  and  O_5
REMARK    4  A    between atoms: C_6  and  O_7
REMARK    5  A    between atoms: C_8  and  O_9
REMARK    6  A    between atoms: N_11  and  C_12
REMARK    7  A    between atoms: C_12  and  C_13
REMARK    8  A    between atoms: C_13  and  C_14
REMARK    9  A    between atoms: C_14  and  C_15
REMARK   10  A    between atoms: C_15  and  C_16
REMARK   11  A    between atoms: C_16  and  O_17
REMARK   12  A    between atoms: O_17  and  C_18
REMARK   13  A    between atoms: C_18  and  C_19
REMARK                            x       y       z     vdW  Elec       q    Type
REMARK                         _______ _______ _______ _____ _____    ______ ____
ROOT
ATOM      1  C   UNL     1       3.721   3.180  18.516  0.00  0.00    +0.000 C 
ATOM      2  C   UNL     1       2.207   3.027  18.833  0.00  0.00    +0.000 C 
ATOM      3  C   UNL     1       1.810   3.897  20.038  0.00  0.00    +0.000 C 
ATOM      4  C   UNL     1       2.211   5.362  19.786  0.00  0.00    +0.000 C 
ATOM      5  C   UNL     1       3.685   5.479  19.384  0.00  0.00    +0.000 C 
ATOM      6  N   UNL     1       4.035   4.612  18.251  0.00  0.00    +0.000 NA
ENDROOT
BRANCH   2   7
ATOM      7  O   UNL     1       1.813   1.665  19.040  0.00  0.00    +0.000 OA
ATOM      8  H   UNL     1       0.838   1.647  19.120  0.00  0.00    +0.000 HD
ENDBRANCH   2   7
BRANCH   3   9
ATOM      9  O   UNL     1       0.400   3.832  20.300  0.00  0.00    +0.000 OA
ATOM     10  H   UNL     1       0.187   4.528  20.947  0.00  0.00    +0.000 HD
ENDBRANCH   3   9
BRANCH   4  11
ATOM     11  O   UNL     1       1.989   6.181  20.939  0.00  0.00    +0.000 OA
ATOM     12  H   UNL     1       2.846   6.337  21.371  0.00  0.00    +0.000 HD
ENDBRANCH   4  11
BRANCH   1  13
ATOM     13  C   UNL     1       4.631   2.503  19.584  0.00  0.00    +0.000 C 
BRANCH  13  14
ATOM     14  O   UNL     1       4.734   1.100  19.349  0.00  0.00    +0.000 OA
ATOM     15  H   UNL     1       5.292   0.987  18.555  0.00  0.00    +0.000 HD
ENDBRANCH  13  14
ENDBRANCH   1  13
BRANCH   6  16
ATOM     16  C   UNL     1       5.420   4.778  17.801  0.00  0.00    +0.000 C 
BRANCH  16  17
ATOM     17  C   UNL     1       5.814   6.207  17.405  0.00  0.00    +0.000 C 
BRANCH  17  18
ATOM     18  C   UNL     1       7.082   6.651  18.138  0.00  0.00    +0.000 C 
BRANCH  18  19
ATOM     19  C   UNL     1       7.683   7.972  17.634  0.00  0.00    +0.000 C 
BRANCH  19  20
ATOM     20  C   UNL     1       8.772   8.528  18.555  0.00  0.00    +0.000 C 
BRANCH  20  21
ATOM     21  O   UNL     1       8.454   9.897  18.752  0.00  0.00    +0.000 OA
BRANCH  21  22
ATOM     22  C   UNL     1       9.144  10.787  17.890  0.00  0.00    +0.000 C 
BRANCH  22  23
ATOM     23  C   UNL     1       9.408  12.064  18.703  0.00  0.00    +0.000 C 
ATOM     24  C   UNL     1      10.272  11.800  19.939  0.00  0.00    +0.000 C 
ATOM     25  C   UNL     1      11.741  11.550  19.606  0.00  0.00    +0.000 C 
ATOM     26  C   UNL     1      12.332  12.624  18.695  0.00  0.00    +0.000 C 
ATOM     27  C   UNL     1      11.475  12.888  17.462  0.00  0.00    +0.000 C 
ATOM     28  C   UNL     1      10.028  13.183  17.844  0.00  0.00    +0.000 C 
ENDBRANCH  22  23
ENDBRANCH  21  22
ENDBRANCH  20  21
ENDBRANCH  19  20
ENDBRANCH  18  19
ENDBRANCH  17  18
ENDBRANCH  16  17
ENDBRANCH   6  16
TORSDOF 13
ENDMDL
MODEL 6
REMARK VINA RESULT:      -6.4      4.967      8.642
REMARK  Name = 
REMARK  13 active torsions:
REMARK  status: ('A' for Active; 'I' for Inactive)
REMARK    1  A    between atoms: O_1  and  C_2
REMARK    2  A    between atoms: C_2  and  C_3
REMARK    3  A    between atoms: C_4  and  O_5
REMARK    4  A    between atoms: C_6  and  O_7
REMARK    5  A    between atoms: C_8  and  O_9
REMARK    6  A    between atoms: N_11  and  C_12
REMARK    7  A    between atoms: C_12  and  C_13
REMARK    8  A    between atoms: C_13  and  C_14
REMARK    9  A    between atoms: C_14  and  C_15
REMARK   10  A    between atoms: C_15  and  C_16
REMARK   11  A    between atoms: C_16  and  O_17
REMARK   12  A    between atoms: O_17  and  C_18
REMARK   13  A    between atoms: C_18  and  C_19
REMARK                            x       y       z     vdW  Elec       q    Type
REMARK                         _______ _______ _______ _____ _____    ______ ____
ROOT
ATOM      1  C   UNL     1       5.661   5.964  17.816  0.00  0.00    +0.000 C 
ATOM      2  C   UNL     1       6.580   6.369  16.631  0.00  0.00    +0.000 C 
ATOM      3  C   UNL     1       6.934   5.145  15.769  0.00  0.00    +0.000 C 
ATOM      4  C   UNL     1       5.648   4.441  15.299  0.00  0.00    +0.000 C 
ATOM      5  C   UNL     1       4.714   4.135  16.475  0.00  0.00    +0.000 C 
ATOM      6  N   UNL     1       4.424   5.320  17.293  0.00  0.00    +0.000 NA
ENDROOT
BRANCH   2   7
ATOM      7  O   UNL     1       7.768   7.053  17.051  0.00  0.00    +0.000 OA
ATOM      8  H   UNL     1       8.182   7.444  16.256  0.00  0.00    +0.000 HD
ENDBRANCH   2   7
BRANCH   3   9
ATOM      9  O   UNL     1       7.719   5.508  14.624  0.00  0.00    +0.000 OA
ATOM     10  H   UNL     1       8.568   5.859  14.946  0.00  0.00    +0.000 HD
ENDBRANCH   3   9
BRANCH   4  11
ATOM     11  O   UNL     1       5.932   3.216  14.614  0.00  0.00    +0.000 OA
ATOM     12  H   UNL     1       5.494   2.492  15.093  0.00  0.00    +0.000 HD
ENDBRANCH   4  11
BRANCH   1  13
ATOM     13  C   UNL     1       6.410   5.141  18.906  0.00  0.00    +0.000 C 
BRANCH  13  14
ATOM     14  O   UNL     1       7.465   5.905  19.486  0.00  0.00    +0.000 OA
ATOM     15  H   UNL     1       7.684   6.612  18.849  0.00  0.00    +0.000 HD
ENDBRANCH  13  14
ENDBRANCH   1  13
BRANCH   6  16
ATOM     16  C   UNL     1       3.463   5.059  18.369  0.00  0.00    +0.000 C 
BRANCH  16  17
ATOM     17  C   UNL     1       2.839   6.306  19.006  0.00  0.00    +0.000 C 
BRANCH  17  18
ATOM     18  C   UNL     1       2.225   7.219  17.942  0.00  0.00    +0.000 C 
BRANCH  18  19
ATOM     19  C   UNL     1       2.044   8.681  18.378  0.00  0.00    +0.000 C 
BRANCH  19  20
ATOM     20  C   UNL     1       1.392   8.823  19.755  0.00  0.00    +0.000 C 
BRANCH  20  21
ATOM     21  O   UNL     1       0.755  10.090  19.756  0.00  0.00    +0.000 OA
BRANCH  21  22
ATOM     22  C   UNL     1      -0.650  10.038  19.566  0.00  0.00    +0.000 C 
BRANCH  22  23
ATOM     23  C   UNL     1      -0.943  10.799  18.263  0.00  0.00    +0.000 C 
ATOM     24  C   UNL     1      -1.690   9.938  17.241  0.00  0.00    +0.000 C 
ATOM     25  C   UNL     1      -3.159   9.717  17.598  0.00  0.00    +0.000 C 
ATOM     26  C   UNL     1      -3.892  11.018  17.918  0.00  0.00    +0.000 C 
ATOM     27  C   UNL     1      -3.151  11.876  18.937  0.00  0.00    +0.000 C 
ATOM     28  C   UNL     1      -1.704  12.114  18.516  0.00  0.00    +0.000 C 
ENDBRANCH  22  23
ENDBRANCH  21  22
ENDBRANCH  20  21
ENDBRANCH  19  20
ENDBRANCH  18  19
ENDBRANCH  17  18
ENDBRANCH  16  17
ENDBRANCH   6  16
TORSDOF 13
ENDMDL
MODEL 7
REMARK VINA RESULT:      -6.4      1.268      2.578
REMARK  Name = 
REMARK  13 active torsions:
REMARK  status: ('A' for Active; 'I' for Inactive)
REMARK    1  A    between atoms: O_1  and  C_2
REMARK    2  A    between atoms: C_2  and  C_3
REMARK    3  A    between atoms: C_4  and  O_5
REMARK    4  A    between atoms: C_6  and  O_7
REMARK    5  A    between atoms: C_8  and  O_9
REMARK    6  A    between atoms: N_11  and  C_12
REMARK    7  A    between atoms: C_12  and  C_13
REMARK    8  A    between atoms: C_13  and  C_14
REMARK    9  A    between atoms: C_14  and  C_15
REMARK   10  A    between atoms: C_15  and  C_16
REMARK   11  A    between atoms: C_16  and  O_17
REMARK   12  A    between atoms: O_17  and  C_18
REMARK   13  A    between atoms: C_18  and  C_19
REMARK                            x       y       z     vdW  Elec       q    Type
REMARK                         _______ _______ _______ _____ _____    ______ ____
ROOT
ATOM      1  C   UNL     1       3.565   4.830  19.909  0.00  0.00    +0.000 C 
ATOM      2  C   UNL     1       2.384   3.930  20.366  0.00  0.00    +0.000 C 
ATOM      3  C   UNL     1       1.724   3.238  19.161  0.00  0.00    +0.000 C 
ATOM      4  C   UNL     1       2.780   2.455  18.361  0.00  0.00    +0.000 C 
ATOM      5  C   UNL     1       3.980   3.337  18.000  0.00  0.00    +0.000 C 
ATOM      6  N   UNL     1       4.564   4.007  19.170  0.00  0.00    +0.000 NA
ENDROOT
BRANCH   2   7
ATOM      7  O   UNL     1       1.407   4.640  21.139  0.00  0.00    +0.000 OA
ATOM      8  H   UNL     1       0.885   3.978  21.636  0.00  0.00    +0.000 HD
ENDBRANCH   2   7
BRANCH   3   9
ATOM      9  O   UNL     1       0.679   2.341  19.567  0.00  0.00    +0.000 OA
ATOM     10  H   UNL     1       0.846   1.481  19.142  0.00  0.00    +0.000 HD
ENDBRANCH   3   9
BRANCH   4  11
ATOM     11  O   UNL     1       2.238   1.912  17.151  0.00  0.00    +0.000 OA
ATOM     12  H   UNL     1       2.449   2.521  16.423  0.00  0.00    +0.000 HD
ENDBRANCH   4  11
BRANCH   1  13
ATOM     13  C   UNL     1       3.093   6.108  19.154  0.00  0.00    +0.000 C 
BRANCH  13  14
ATOM     14  O   UNL     1       2.539   7.059  20.062  0.00  0.00    +0.000 OA
ATOM     15  H   UNL     1       2.401   6.593  20.909  0.00  0.00    +0.000 HD
ENDBRANCH  13  14
ENDBRANCH   1  13
BRANCH   6  16
ATOM     16  C   UNL     1       5.765   4.786  18.853  0.00  0.00    +0.000 C 
BRANCH  16  17
ATOM     17  C   UNL     1       6.347   4.550  17.454  0.00  0.00    +0.000 C 
BRANCH  17  18
ATOM     18  C   UNL     1       7.399   5.609  17.111  0.00  0.00    +0.000 C 
BRANCH  18  19
ATOM     19  C   UNL     1       7.523   6.745  18.138  0.00  0.00    +0.000 C 
BRANCH  19  20
ATOM     20  C   UNL     1       7.827   8.102  17.502  0.00  0.00    +0.000 C 
BRANCH  20  21
ATOM     21  O   UNL     1       8.549   8.837  18.477  0.00  0.00    +0.000 OA
BRANCH  21  22
ATOM     22  C   UNL     1       8.599  10.234  18.236  0.00  0.00    +0.000 C 
BRANCH  22  23
ATOM     23  C   UNL     1       9.964  10.717  18.754  0.00  0.00    +0.000 C 
ATOM     24  C   UNL     1      10.607  11.750  17.825  0.00  0.00    +0.000 C 
ATOM     25  C   UNL     1       9.944  13.124  17.899  0.00  0.00    +0.000 C 
ATOM     26  C   UNL     1       9.797  13.633  19.332  0.00  0.00    +0.000 C 
ATOM     27  C   UNL     1       9.154  12.607  20.258  0.00  0.00    +0.000 C 
ATOM     28  C   UNL     1       9.879  11.267  20.190  0.00  0.00    +0.000 C 
ENDBRANCH  22  23
ENDBRANCH  21  22
ENDBRANCH  20  21
ENDBRANCH  19  20
ENDBRANCH  18  19
ENDBRANCH  17  18
ENDBRANCH  16  17
ENDBRANCH   6  16
TORSDOF 13
ENDMDL
MODEL 8
REMARK VINA RESULT:      -6.4      1.219      2.674
REMARK  Name = 
REMARK  13 active torsions:
REMARK  status: ('A' for Active; 'I' for Inactive)
REMARK    1  A    between atoms: O_1  and  C_2
REMARK    2  A    between atoms: C_2  and  C_3
REMARK    3  A    between atoms: C_4  and  O_5
REMARK    4  A    between atoms: C_6  and  O_7
REMARK    5  A    between atoms: C_8  and  O_9
REMARK    6  A    between atoms: N_11  and  C_12
REMARK    7  A    between atoms: C_12  and  C_13
REMARK    8  A    between atoms: C_13  and  C_14
REMARK    9  A    between atoms: C_14  and  C_15
REMARK   10  A    between atoms: C_15  and  C_16
REMARK   11  A    between atoms: C_16  and  O_17
REMARK   12  A    between atoms: O_17  and  C_18
REMARK   13  A    between atoms: C_18  and  C_19
REMARK                            x       y       z     vdW  Elec       q    Type
REMARK                         _______ _______ _______ _____ _____    ______ ____
ROOT
ATOM      1  C   UNL     1       3.633   5.447  19.480  0.00  0.00    +0.000 C 
ATOM      2  C   UNL     1       2.455   4.886  20.324  0.00  0.00    +0.000 C 
ATOM      3  C   UNL     1       1.702   3.789  19.551  0.00  0.00    +0.000 C 
ATOM      4  C   UNL     1       2.683   2.688  19.111  0.00  0.00    +0.000 C 
ATOM      5  C   UNL     1       3.885   3.273  18.362  0.00  0.00    +0.000 C 
ATOM      6  N   UNL     1       4.559   4.339  19.115  0.00  0.00    +0.000 NA
ENDROOT
BRANCH   2   7
ATOM      7  O   UNL     1       1.549   5.905  20.767  0.00  0.00    +0.000 OA
ATOM      8  H   UNL     1       1.788   6.735  20.309  0.00  0.00    +0.000 HD
ENDBRANCH   2   7
BRANCH   3   9
ATOM      9  O   UNL     1       0.657   3.202  20.342  0.00  0.00    +0.000 OA
ATOM     10  H   UNL     1       0.478   3.802  21.088  0.00  0.00    +0.000 HD
ENDBRANCH   3   9
BRANCH   4  11
ATOM     11  O   UNL     1       2.051   1.718  18.266  0.00  0.00    +0.000 OA
ATOM     12  H   UNL     1       1.475   1.164  18.819  0.00  0.00    +0.000 HD
ENDBRANCH   4  11
BRANCH   1  13
ATOM     13  C   UNL     1       3.154   6.315  18.279  0.00  0.00    +0.000 C 
BRANCH  13  14
ATOM     14  O   UNL     1       2.683   7.586  18.725  0.00  0.00    +0.000 OA
ATOM     15  H   UNL     1       1.777   7.448  19.062  0.00  0.00    +0.000 HD
ENDBRANCH  13  14
ENDBRANCH   1  13
BRANCH   6  16
ATOM     16  C   UNL     1       5.761   4.848  18.448  0.00  0.00    +0.000 C 
BRANCH  16  17
ATOM     17  C   UNL     1       6.780   5.533  19.367  0.00  0.00    +0.000 C 
BRANCH  17  18
ATOM     18  C   UNL     1       7.916   6.162  18.556  0.00  0.00    +0.000 C 
BRANCH  18  19
ATOM     19  C   UNL     1       7.528   7.440  17.796  0.00  0.00    +0.000 C 
BRANCH  19  20
ATOM     20  C   UNL     1       8.505   8.596  18.023  0.00  0.00    +0.000 C 
BRANCH  20  21
ATOM     21  O   UNL     1       7.768   9.783  17.780  0.00  0.00    +0.000 OA
BRANCH  21  22
ATOM     22  C   UNL     1       8.430  10.973  18.177  0.00  0.00    +0.000 C 
BRANCH  22  23
ATOM     23  C   UNL     1       9.611  10.541  19.061  0.00  0.00    +0.000 C 
ATOM     24  C   UNL     1      10.918  11.233  18.667  0.00  0.00    +0.000 C 
ATOM     25  C   UNL     1      10.973  12.702  19.082  0.00  0.00    +0.000 C 
ATOM     26  C   UNL     1      10.615  12.914  20.552  0.00  0.00    +0.000 C 
ATOM     27  C   UNL     1       9.312  12.228  20.947  0.00  0.00    +0.000 C 
ATOM     28  C   UNL     1       9.322  10.753  20.560  0.00  0.00    +0.000 C 
ENDBRANCH  22  23
ENDBRANCH  21  22
ENDBRANCH  20  21
ENDBRANCH  19  20
ENDBRANCH  18  19
ENDBRANCH  17  18
ENDBRANCH  16  17
ENDBRANCH   6  16
TORSDOF 13
ENDMDL
MODEL 9
REMARK VINA RESULT:      -6.3      5.443      7.235
REMARK  Name = 
REMARK  13 active torsions:
REMARK  status: ('A' for Active; 'I' for Inactive)
REMARK    1  A    between atoms: O_1  and  C_2
REMARK    2  A    between atoms: C_2  and  C_3
REMARK    3  A    between atoms: C_4  and  O_5
REMARK    4  A    between atoms: C_6  and  O_7
REMARK    5  A    between atoms: C_8  and  O_9
REMARK    6  A    between atoms: N_11  and  C_12
REMARK    7  A    between atoms: C_12  and  C_13
REMARK    8  A    between atoms: C_13  and  C_14
REMARK    9  A    between atoms: C_14  and  C_15
REMARK   10  A    between atoms: C_15  and  C_16
REMARK   11  A    between atoms: C_16  and  O_17
REMARK   12  A    between atoms: O_17  and  C_18
REMARK   13  A    between atoms: C_18  and  C_19
REMARK                            x       y       z     vdW  Elec       q    Type
REMARK                         _______ _______ _______ _____ _____    ______ ____
ROOT
ATOM      1  C   UNL     1       3.706   4.744  18.314  0.00  0.00    +0.000 C 
ATOM      2  C   UNL     1       3.170   3.340  17.918  0.00  0.00    +0.000 C 
ATOM      3  C   UNL     1       2.397   2.700  19.084  0.00  0.00    +0.000 C 
ATOM      4  C   UNL     1       1.275   3.643  19.553  0.00  0.00    +0.000 C 
ATOM      5  C   UNL     1       1.809   5.048  19.848  0.00  0.00    +0.000 C 
ATOM      6  N   UNL     1       2.569   5.615  18.726  0.00  0.00    +0.000 NA
ENDROOT
BRANCH   2   7
ATOM      7  O   UNL     1       4.200   2.459  17.450  0.00  0.00    +0.000 OA
ATOM      8  H   UNL     1       4.527   2.811  16.598  0.00  0.00    +0.000 HD
ENDBRANCH   2   7
BRANCH   3   9
ATOM      9  O   UNL     1       1.826   1.435  18.715  0.00  0.00    +0.000 OA
ATOM     10  H   UNL     1       0.917   1.409  19.061  0.00  0.00    +0.000 HD
ENDBRANCH   3   9
BRANCH   4  11
ATOM     11  O   UNL     1       0.621   3.151  20.728  0.00  0.00    +0.000 OA
ATOM     12  H   UNL     1       0.093   2.373  20.479  0.00  0.00    +0.000 HD
ENDBRANCH   4  11
BRANCH   1  13
ATOM     13  C   UNL     1       4.875   4.675  19.341  0.00  0.00    +0.000 C 
BRANCH  13  14
ATOM     14  O   UNL     1       5.994   3.980  18.792  0.00  0.00    +0.000 OA
ATOM     15  H   UNL     1       6.424   3.510  19.533  0.00  0.00    +0.000 HD
ENDBRANCH  13  14
ENDBRANCH   1  13
BRANCH   6  16
ATOM     16  C   UNL     1       3.013   6.991  18.963  0.00  0.00    +0.000 C 
BRANCH  16  17
ATOM     17  C   UNL     1       2.841   7.949  17.777  0.00  0.00    +0.000 C 
BRANCH  17  18
ATOM     18  C   UNL     1       1.913   9.111  18.139  0.00  0.00    +0.000 C 
BRANCH  18  19
ATOM     19  C   UNL     1       0.450   8.922  17.709  0.00  0.00    +0.000 C 
BRANCH  19  20
ATOM     20  C   UNL     1      -0.421  10.151  17.976  0.00  0.00    +0.000 C 
BRANCH  20  21
ATOM     21  O   UNL     1       0.368  11.022  18.771  0.00  0.00    +0.000 OA
BRANCH  21  22
ATOM     22  C   UNL     1      -0.374  11.792  19.704  0.00  0.00    +0.000 C 
BRANCH  22  23
ATOM     23  C   UNL     1       0.455  11.825  20.998  0.00  0.00    +0.000 C 
ATOM     24  C   UNL     1      -0.303  12.475  22.159  0.00  0.00    +0.000 C 
ATOM     25  C   UNL     1      -1.407  11.587  22.731  0.00  0.00    +0.000 C 
ATOM     26  C   UNL     1      -0.919  10.178  23.063  0.00  0.00    +0.000 C 
ATOM     27  C   UNL     1      -0.165   9.528  21.908  0.00  0.00    +0.000 C 
ATOM     28  C   UNL     1       0.958  10.426  21.402  0.00  0.00    +0.000 C 
ENDBRANCH  22  23
ENDBRANCH  21  22
ENDBRANCH  20  21
ENDBRANCH  19  20
ENDBRANCH  18  19
ENDBRANCH  17  18
ENDBRANCH  16  17
ENDBRANCH   6  16
TORSDOF 13
ENDMDL
