MODEL 1
REMARK VINA RESULT:      -9.2      0.000      0.000
REMARK  Name = 
REMARK  9 active torsions:
REMARK  status: ('A' for Active; 'I' for Inactive)
REMARK    1  A    between atoms: C_1  and  C_2
REMARK    2  A    between atoms: C_2  and  C_3
REMARK    3  A    between atoms: C_2  and  C_4
REMARK    4  A    between atoms: C_4  and  N_5
REMARK    5  A    between atoms: C_6  and  C_8
REMARK    6  A    between atoms: C_9  and  C_10
REMARK    7  A    between atoms: C_13  and  C_14
REMARK    8  A    between atoms: C_14  and  C_15
REMARK    9  A    between atoms: C_17  and  C_18
REMARK                            x       y       z     vdW  Elec       q    Type
REMARK                         _______ _______ _______ _____ _____    ______ ____
ROOT
ATOM      1  C   UNL     1       3.625   4.907  17.390  0.00  0.00    +0.000 A 
ATOM      2  C   UNL     1       3.593   6.257  17.715  0.00  0.00    +0.000 A 
ATOM      3  O   UNL     1       4.670   6.902  17.177  0.00  0.00    +0.000 OA
ATOM      4  C   UNL     1       5.397   5.971  16.496  0.00  0.00    +0.000 A 
ATOM      5  C   UNL     1       6.555   6.223  15.762  0.00  0.00    +0.000 A 
ATOM      6  C   UNL     1       7.131   5.131  15.102  0.00  0.00    +0.000 A 
ATOM      7  C   UNL     1       6.566   3.858  15.184  0.00  0.00    +0.000 A 
ATOM      8  C   UNL     1       5.401   3.636  15.929  0.00  0.00    +0.000 A 
ATOM      9  C   UNL     1       4.802   4.718  16.605  0.00  0.00    +0.000 A 
ENDROOT
BRANCH   2  10
ATOM     10  C   UNL     1       2.635   7.076  18.454  0.00  0.00    +0.000 A 
ATOM     11  C   UNL     1       2.101   8.227  17.862  0.00  0.00    +0.000 A 
ATOM     12  C   UNL     1       1.416   9.176  18.621  0.00  0.00    +0.000 A 
ATOM     13  C   UNL     1       1.199   8.977  19.987  0.00  0.00    +0.000 A 
ATOM     14  C   UNL     1       1.643   7.770  20.556  0.00  0.00    +0.000 A 
ATOM     15  C   UNL     1       2.348   6.825  19.797  0.00  0.00    +0.000 A 
BRANCH  13  16
ATOM     16  C   UNL     1       0.519  10.029  20.772  0.00  0.00    +0.000 C 
ATOM     17  C   UNL     1       0.118  11.190  20.201  0.00  0.00    +0.000 C 
BRANCH  17  18
ATOM     18  C   UNL     1      -0.392  12.357  20.943  0.00  0.00    +0.000 A 
ATOM     19  C   UNL     1      -1.775  12.504  21.116  0.00  0.00    +0.000 A 
ATOM     20  C   UNL     1      -2.301  13.601  21.801  0.00  0.00    +0.000 A 
ATOM     21  C   UNL     1      -1.437  14.562  22.320  0.00  0.00    +0.000 A 
ATOM     22 BR   UNL     1      -2.143  16.047  23.252  0.00  0.00    +0.000 Br
ATOM     23  C   UNL     1      -0.058  14.433  22.158  0.00  0.00    +0.000 A 
ATOM     24  C   UNL     1       0.464  13.332  21.466  0.00  0.00    +0.000 A 
ENDBRANCH  17  18
BRANCH  16  25
ATOM     25  C   UNL     1       0.374   9.908  22.280  0.00  0.00    +0.000 C 
ATOM     26  N   UNL     1       0.255   9.807  23.532  0.00  0.00    +0.000 NA
ENDBRANCH  16  25
ENDBRANCH  13  16
ENDBRANCH   2  10
BRANCH   1  28
ATOM     27  N   UNL     1       2.910   3.097  18.765  0.00  0.00    +0.000 N 
ATOM     28  C   UNL     1       2.588   3.953  17.738  0.00  0.00    +0.000 C 
ATOM     29  O   UNL     1       1.491   3.933  17.190  0.00  0.00    +0.000 OA
ATOM     30  H   UNL     1       3.809   3.181  19.220  0.00  0.00    +0.000 HD
BRANCH  27  31
ATOM     31  C   UNL     1       1.958   2.123  19.254  0.00  0.00    +0.000 C 
BRANCH  31  33
ATOM     32  C   UNL     1       2.434   2.606  21.691  0.00  0.00    +0.000 C 
ATOM     33  C   UNL     1       1.356   2.517  20.611  0.00  0.00    +0.000 C 
ATOM     34  C   UNL     1       0.624   3.852  20.489  0.00  0.00    +0.000 C 
ENDBRANCH  31  33
ENDBRANCH  27  31
ENDBRANCH   1  28
TORSDOF 7
ENDMDL
MODEL 2
REMARK VINA RESULT:      -9.2      1.325      1.638
REMARK  Name = 
REMARK  9 active torsions:
REMARK  status: ('A' for Active; 'I' for Inactive)
REMARK    1  A    between atoms: C_1  and  C_2
REMARK    2  A    between atoms: C_2  and  C_3
REMARK    3  A    between atoms: C_2  and  C_4
REMARK    4  A    between atoms: C_4  and  N_5
REMARK    5  A    between atoms: C_6  and  C_8
REMARK    6  A    between atoms: C_9  and  C_10
REMARK    7  A    between atoms: C_13  and  C_14
REMARK    8  A    between atoms: C_14  and  C_15
REMARK    9  A    between atoms: C_17  and  C_18
REMARK                            x       y       z     vdW  Elec       q    Type
REMARK                         _______ _______ _______ _____ _____    ______ ____
ROOT
ATOM      1  C   UNL     1       3.518   5.198  17.516  0.00  0.00    +0.000 A 
ATOM      2  C   UNL     1       3.478   6.566  17.754  0.00  0.00    +0.000 A 
ATOM      3  O   UNL     1       4.612   7.164  17.283  0.00  0.00    +0.000 OA
ATOM      4  C   UNL     1       5.383   6.185  16.730  0.00  0.00    +0.000 A 
ATOM      5  C   UNL     1       6.609   6.377  16.096  0.00  0.00    +0.000 A 
ATOM      6  C   UNL     1       7.226   5.241  15.561  0.00  0.00    +0.000 A 
ATOM      7  C   UNL     1       6.634   3.982  15.665  0.00  0.00    +0.000 A 
ATOM      8  C   UNL     1       5.400   3.819  16.309  0.00  0.00    +0.000 A 
ATOM      9  C   UNL     1       4.760   4.948  16.858  0.00  0.00    +0.000 A 
ENDROOT
BRANCH   2  10
ATOM     10  C   UNL     1       2.470   7.440  18.348  0.00  0.00    +0.000 A 
ATOM     11  C   UNL     1       1.883   8.451  17.577  0.00  0.00    +0.000 A 
ATOM     12  C   UNL     1       1.140   9.471  18.171  0.00  0.00    +0.000 A 
ATOM     13  C   UNL     1       0.916   9.482  19.550  0.00  0.00    +0.000 A 
ATOM     14  C   UNL     1       1.416   8.407  20.308  0.00  0.00    +0.000 A 
ATOM     15  C   UNL     1       2.178   7.392  19.713  0.00  0.00    +0.000 A 
BRANCH  13  16
ATOM     16  C   UNL     1       0.172  10.608  20.154  0.00  0.00    +0.000 C 
ATOM     17  C   UNL     1       0.279  10.900  21.472  0.00  0.00    +0.000 C 
BRANCH  17  18
ATOM     18  C   UNL     1      -0.563  11.877  22.186  0.00  0.00    +0.000 A 
ATOM     19  C   UNL     1      -0.202  13.230  22.168  0.00  0.00    +0.000 A 
ATOM     20  C   UNL     1      -0.964  14.187  22.842  0.00  0.00    +0.000 A 
ATOM     21  C   UNL     1      -2.101  13.787  23.540  0.00  0.00    +0.000 A 
ATOM     22 BR   UNL     1      -3.140  15.078  24.450  0.00  0.00    +0.000 Br
ATOM     23  C   UNL     1      -2.478  12.445  23.568  0.00  0.00    +0.000 A 
ATOM     24  C   UNL     1      -1.705  11.489  22.895  0.00  0.00    +0.000 A 
ENDBRANCH  17  18
BRANCH  16  25
ATOM     25  C   UNL     1      -0.851  11.390  19.348  0.00  0.00    +0.000 C 
ATOM     26  N   UNL     1      -1.702  12.038  18.678  0.00  0.00    +0.000 NA
ENDBRANCH  16  25
ENDBRANCH  13  16
ENDBRANCH   2  10
BRANCH   1  28
ATOM     27  N   UNL     1       2.731   3.337  18.779  0.00  0.00    +0.000 N 
ATOM     28  C   UNL     1       2.436   4.280  17.822  0.00  0.00    +0.000 C 
ATOM     29  O   UNL     1       1.329   4.358  17.299  0.00  0.00    +0.000 OA
ATOM     30  H   UNL     1       3.641   3.340  19.217  0.00  0.00    +0.000 HD
BRANCH  27  31
ATOM     31  C   UNL     1       1.735   2.385  19.221  0.00  0.00    +0.000 C 
BRANCH  31  33
ATOM     32  C   UNL     1       2.202   2.452  21.706  0.00  0.00    +0.000 C 
ATOM     33  C   UNL     1       1.172   2.722  20.609  0.00  0.00    +0.000 C 
ATOM     34  C   UNL     1       0.730   4.184  20.652  0.00  0.00    +0.000 C 
ENDBRANCH  31  33
ENDBRANCH  27  31
ENDBRANCH   1  28
TORSDOF 7
ENDMDL
MODEL 3
REMARK VINA RESULT:      -9.1      1.208      1.380
REMARK  Name = 
REMARK  9 active torsions:
REMARK  status: ('A' for Active; 'I' for Inactive)
REMARK    1  A    between atoms: C_1  and  C_2
REMARK    2  A    between atoms: C_2  and  C_3
REMARK    3  A    between atoms: C_2  and  C_4
REMARK    4  A    between atoms: C_4  and  N_5
REMARK    5  A    between atoms: C_6  and  C_8
REMARK    6  A    between atoms: C_9  and  C_10
REMARK    7  A    between atoms: C_13  and  C_14
REMARK    8  A    between atoms: C_14  and  C_15
REMARK    9  A    between atoms: C_17  and  C_18
REMARK                            x       y       z     vdW  Elec       q    Type
REMARK                         _______ _______ _______ _____ _____    ______ ____
ROOT
ATOM      1  C   UNL     1       3.530   5.054  17.407  0.00  0.00    +0.000 A 
ATOM      2  C   UNL     1       3.555   6.416  17.677  0.00  0.00    +0.000 A 
ATOM      3  O   UNL     1       4.673   6.987  17.138  0.00  0.00    +0.000 OA
ATOM      4  C   UNL     1       5.369   5.996  16.510  0.00  0.00    +0.000 A 
ATOM      5  C   UNL     1       6.552   6.162  15.794  0.00  0.00    +0.000 A 
ATOM      6  C   UNL     1       7.089   5.018  15.191  0.00  0.00    +0.000 A 
ATOM      7  C   UNL     1       6.462   3.778  15.310  0.00  0.00    +0.000 A 
ATOM      8  C   UNL     1       5.271   3.641  16.038  0.00  0.00    +0.000 A 
ATOM      9  C   UNL     1       4.712   4.777  16.656  0.00  0.00    +0.000 A 
ENDROOT
BRANCH   2  10
ATOM     10  C   UNL     1       2.624   7.309  18.361  0.00  0.00    +0.000 A 
ATOM     11  C   UNL     1       2.131   8.441  17.699  0.00  0.00    +0.000 A 
ATOM     12  C   UNL     1       1.476   9.455  18.397  0.00  0.00    +0.000 A 
ATOM     13  C   UNL     1       1.247   9.344  19.771  0.00  0.00    +0.000 A 
ATOM     14  C   UNL     1       1.647   8.158  20.413  0.00  0.00    +0.000 A 
ATOM     15  C   UNL     1       2.322   7.147  19.714  0.00  0.00    +0.000 A 
BRANCH  13  16
ATOM     16  C   UNL     1       0.600  10.463  20.490  0.00  0.00    +0.000 C 
ATOM     17  C   UNL     1      -0.701  10.406  20.860  0.00  0.00    +0.000 C 
BRANCH  17  18
ATOM     18  C   UNL     1      -1.468  11.541  21.408  0.00  0.00    +0.000 A 
ATOM     19  C   UNL     1      -1.594  11.671  22.797  0.00  0.00    +0.000 A 
ATOM     20  C   UNL     1      -2.322  12.723  23.356  0.00  0.00    +0.000 A 
ATOM     21  C   UNL     1      -2.929  13.656  22.519  0.00  0.00    +0.000 A 
ATOM     22 BR   UNL     1      -3.911  15.086  23.271  0.00  0.00    +0.000 Br
ATOM     23  C   UNL     1      -2.813  13.544  21.134  0.00  0.00    +0.000 A 
ATOM     24  C   UNL     1      -2.086  12.483  20.578  0.00  0.00    +0.000 A 
ENDBRANCH  17  18
BRANCH  16  25
ATOM     25  C   UNL     1       1.331  11.776  20.711  0.00  0.00    +0.000 C 
ATOM     26  N   UNL     1       1.939  12.866  20.893  0.00  0.00    +0.000 NA
ENDBRANCH  16  25
ENDBRANCH  13  16
ENDBRANCH   2  10
BRANCH   1  28
ATOM     27  N   UNL     1       2.741   3.254  18.755  0.00  0.00    +0.000 N 
ATOM     28  C   UNL     1       2.441   4.165  17.769  0.00  0.00    +0.000 C 
ATOM     29  O   UNL     1       1.324   4.241  17.267  0.00  0.00    +0.000 OA
ATOM     30  H   UNL     1       3.661   3.259  19.174  0.00  0.00    +0.000 HD
BRANCH  27  31
ATOM     31  C   UNL     1       1.741   2.335  19.254  0.00  0.00    +0.000 C 
BRANCH  31  33
ATOM     32  C   UNL     1       2.306   2.562  21.709  0.00  0.00    +0.000 C 
ATOM     33  C   UNL     1       1.221   2.727  20.644  0.00  0.00    +0.000 C 
ATOM     34  C   UNL     1       0.718   4.170  20.626  0.00  0.00    +0.000 C 
ENDBRANCH  31  33
ENDBRANCH  27  31
ENDBRANCH   1  28
TORSDOF 7
ENDMDL
MODEL 4
REMARK VINA RESULT:      -8.6      1.491      1.852
REMARK  Name = 
REMARK  9 active torsions:
REMARK  status: ('A' for Active; 'I' for Inactive)
REMARK    1  A    between atoms: C_1  and  C_2
REMARK    2  A    between atoms: C_2  and  C_3
REMARK    3  A    between atoms: C_2  and  C_4
REMARK    4  A    between atoms: C_4  and  N_5
REMARK    5  A    between atoms: C_6  and  C_8
REMARK    6  A    between atoms: C_9  and  C_10
REMARK    7  A    between atoms: C_13  and  C_14
REMARK    8  A    between atoms: C_14  and  C_15
REMARK    9  A    between atoms: C_17  and  C_18
REMARK                            x       y       z     vdW  Elec       q    Type
REMARK                         _______ _______ _______ _____ _____    ______ ____
ROOT
ATOM      1  C   UNL     1       3.099   5.656  17.818  0.00  0.00    +0.000 A 
ATOM      2  C   UNL     1       3.132   7.033  18.003  0.00  0.00    +0.000 A 
ATOM      3  O   UNL     1       4.278   7.556  17.475  0.00  0.00    +0.000 OA
ATOM      4  C   UNL     1       4.984   6.521  16.939  0.00  0.00    +0.000 A 
ATOM      5  C   UNL     1       6.197   6.628  16.262  0.00  0.00    +0.000 A 
ATOM      6  C   UNL     1       6.742   5.443  15.754  0.00  0.00    +0.000 A 
ATOM      7  C   UNL     1       6.094   4.219  15.925  0.00  0.00    +0.000 A 
ATOM      8  C   UNL     1       4.874   4.142  16.611  0.00  0.00    +0.000 A 
ATOM      9  C   UNL     1       4.306   5.321  17.134  0.00  0.00    +0.000 A 
ENDROOT
BRANCH   2  10
ATOM     10  C   UNL     1       2.186   7.977  18.592  0.00  0.00    +0.000 A 
ATOM     11  C   UNL     1       1.680   9.029  17.819  0.00  0.00    +0.000 A 
ATOM     12  C   UNL     1       1.009  10.100  18.410  0.00  0.00    +0.000 A 
ATOM     13  C   UNL     1       0.777  10.125  19.787  0.00  0.00    +0.000 A 
ATOM     14  C   UNL     1       1.191   9.015  20.546  0.00  0.00    +0.000 A 
ATOM     15  C   UNL     1       1.882   7.948  19.954  0.00  0.00    +0.000 A 
BRANCH  13  16
ATOM     16  C   UNL     1       0.112  11.301  20.388  0.00  0.00    +0.000 C 
ATOM     17  C   UNL     1      -0.493  11.229  21.597  0.00  0.00    +0.000 C 
BRANCH  17  18
ATOM     18  C   UNL     1      -1.333  12.292  22.179  0.00  0.00    +0.000 A 
ATOM     19  C   UNL     1      -2.713  12.280  21.939  0.00  0.00    +0.000 A 
ATOM     20  C   UNL     1      -3.542  13.275  22.461  0.00  0.00    +0.000 A 
ATOM     21  C   UNL     1      -2.987  14.293  23.232  0.00  0.00    +0.000 A 
ATOM     22 BR   UNL     1      -4.105  15.640  23.946  0.00  0.00    +0.000 Br
ATOM     23  C   UNL     1      -1.616  14.322  23.483  0.00  0.00    +0.000 A 
ATOM     24  C   UNL     1      -0.788  13.323  22.953  0.00  0.00    +0.000 A 
ENDBRANCH  17  18
BRANCH  16  25
ATOM     25  C   UNL     1      -0.041  12.595  19.607  0.00  0.00    +0.000 C 
ATOM     26  N   UNL     1      -0.167  13.670  18.959  0.00  0.00    +0.000 NA
ENDBRANCH  16  25
ENDBRANCH  13  16
ENDBRANCH   2  10
BRANCH   1  28
ATOM     27  N   UNL     1       1.845   4.594  19.543  0.00  0.00    +0.000 N 
ATOM     28  C   UNL     1       1.985   4.805  18.191  0.00  0.00    +0.000 C 
ATOM     29  O   UNL     1       1.200   4.337  17.372  0.00  0.00    +0.000 OA
ATOM     30  H   UNL     1       2.487   5.038  20.185  0.00  0.00    +0.000 HD
BRANCH  27  31
ATOM     31  C   UNL     1       0.752   3.805  20.069  0.00  0.00    +0.000 C 
BRANCH  31  33
ATOM     32  C   UNL     1       1.993   1.660  19.563  0.00  0.00    +0.000 C 
ATOM     33  C   UNL     1       1.214   2.447  20.617  0.00  0.00    +0.000 C 
ATOM     34  C   UNL     1       2.077   2.654  21.861  0.00  0.00    +0.000 C 
ENDBRANCH  31  33
ENDBRANCH  27  31
ENDBRANCH   1  28
TORSDOF 7
ENDMDL
MODEL 5
REMARK VINA RESULT:      -8.5      1.578      2.131
REMARK  Name = 
REMARK  9 active torsions:
REMARK  status: ('A' for Active; 'I' for Inactive)
REMARK    1  A    between atoms: C_1  and  C_2
REMARK    2  A    between atoms: C_2  and  C_3
REMARK    3  A    between atoms: C_2  and  C_4
REMARK    4  A    between atoms: C_4  and  N_5
REMARK    5  A    between atoms: C_6  and  C_8
REMARK    6  A    between atoms: C_9  and  C_10
REMARK    7  A    between atoms: C_13  and  C_14
REMARK    8  A    between atoms: C_14  and  C_15
REMARK    9  A    between atoms: C_17  and  C_18
REMARK                            x       y       z     vdW  Elec       q    Type
REMARK                         _______ _______ _______ _____ _____    ______ ____
ROOT
ATOM      1  C   UNL     1       3.264   5.538  17.707  0.00  0.00    +0.000 A 
ATOM      2  C   UNL     1       3.484   6.908  17.789  0.00  0.00    +0.000 A 
ATOM      3  O   UNL     1       4.651   7.240  17.162  0.00  0.00    +0.000 OA
ATOM      4  C   UNL     1       5.183   6.088  16.664  0.00  0.00    +0.000 A 
ATOM      5  C   UNL     1       6.354   5.991  15.915  0.00  0.00    +0.000 A 
ATOM      6  C   UNL     1       6.709   4.714  15.465  0.00  0.00    +0.000 A 
ATOM      7  C   UNL     1       5.924   3.600  15.761  0.00  0.00    +0.000 A 
ATOM      8  C   UNL     1       4.751   3.728  16.518  0.00  0.00    +0.000 A 
ATOM      9  C   UNL     1       4.373   5.003  16.984  0.00  0.00    +0.000 A 
ENDROOT
BRANCH   2  10
ATOM     10  C   UNL     1       2.706   8.004  18.359  0.00  0.00    +0.000 A 
ATOM     11  C   UNL     1       2.155   7.875  19.640  0.00  0.00    +0.000 A 
ATOM     12  C   UNL     1       1.185   8.765  20.100  0.00  0.00    +0.000 A 
ATOM     13  C   UNL     1       0.773   9.844  19.313  0.00  0.00    +0.000 A 
ATOM     14  C   UNL     1       1.406  10.033  18.071  0.00  0.00    +0.000 A 
ATOM     15  C   UNL     1       2.368   9.127  17.601  0.00  0.00    +0.000 A 
BRANCH  13  16
ATOM     16  C   UNL     1      -0.298  10.735  19.808  0.00  0.00    +0.000 C 
ATOM     17  C   UNL     1      -0.204  11.352  21.009  0.00  0.00    +0.000 C 
BRANCH  17  18
ATOM     18  C   UNL     1      -1.298  12.100  21.655  0.00  0.00    +0.000 A 
ATOM     19  C   UNL     1      -1.934  11.547  22.774  0.00  0.00    +0.000 A 
ATOM     20  C   UNL     1      -2.983  12.216  23.409  0.00  0.00    +0.000 A 
ATOM     21  C   UNL     1      -3.400  13.452  22.921  0.00  0.00    +0.000 A 
ATOM     22 BR   UNL     1      -4.816  14.365  23.778  0.00  0.00    +0.000 Br
ATOM     23  C   UNL     1      -2.778  14.019  21.809  0.00  0.00    +0.000 A 
ATOM     24  C   UNL     1      -1.730  13.341  21.174  0.00  0.00    +0.000 A 
ENDBRANCH  17  18
BRANCH  16  25
ATOM     25  C   UNL     1      -1.608  10.876  19.051  0.00  0.00    +0.000 C 
ATOM     26  N   UNL     1      -2.695  10.993  18.422  0.00  0.00    +0.000 NA
ENDBRANCH  16  25
ENDBRANCH  13  16
ENDBRANCH   2  10
BRANCH   1  28
ATOM     27  N   UNL     1       2.024   4.719  19.570  0.00  0.00    +0.000 N 
ATOM     28  C   UNL     1       2.077   4.867  18.203  0.00  0.00    +0.000 C 
ATOM     29  O   UNL     1       1.169   4.492  17.469  0.00  0.00    +0.000 OA
ATOM     30  H   UNL     1       2.774   5.086  20.140  0.00  0.00    +0.000 HD
BRANCH  27  31
ATOM     31  C   UNL     1       0.879   4.111  20.213  0.00  0.00    +0.000 C 
BRANCH  31  33
ATOM     32  C   UNL     1       1.478   1.734  19.589  0.00  0.00    +0.000 C 
ATOM     33  C   UNL     1       1.178   2.699  20.736  0.00  0.00    +0.000 C 
ATOM     34  C   UNL     1       2.356   2.741  21.709  0.00  0.00    +0.000 C 
ENDBRANCH  31  33
ENDBRANCH  27  31
ENDBRANCH   1  28
TORSDOF 7
ENDMDL
MODEL 6
REMARK VINA RESULT:      -8.5      1.282      2.009
REMARK  Name = 
REMARK  9 active torsions:
REMARK  status: ('A' for Active; 'I' for Inactive)
REMARK    1  A    between atoms: C_1  and  C_2
REMARK    2  A    between atoms: C_2  and  C_3
REMARK    3  A    between atoms: C_2  and  C_4
REMARK    4  A    between atoms: C_4  and  N_5
REMARK    5  A    between atoms: C_6  and  C_8
REMARK    6  A    between atoms: C_9  and  C_10
REMARK    7  A    between atoms: C_13  and  C_14
REMARK    8  A    between atoms: C_14  and  C_15
REMARK    9  A    between atoms: C_17  and  C_18
REMARK                            x       y       z     vdW  Elec       q    Type
REMARK                         _______ _______ _______ _____ _____    ______ ____
ROOT
ATOM      1  C   UNL     1       3.178   5.576  17.731  0.00  0.00    +0.000 A 
ATOM      2  C   UNL     1       3.397   6.940  17.873  0.00  0.00    +0.000 A 
ATOM      3  O   UNL     1       4.557   7.302  17.250  0.00  0.00    +0.000 OA
ATOM      4  C   UNL     1       5.086   6.174  16.695  0.00  0.00    +0.000 A 
ATOM      5  C   UNL     1       6.249   6.113  15.930  0.00  0.00    +0.000 A 
ATOM      6  C   UNL     1       6.601   4.858  15.419  0.00  0.00    +0.000 A 
ATOM      7  C   UNL     1       5.819   3.731  15.672  0.00  0.00    +0.000 A 
ATOM      8  C   UNL     1       4.654   3.823  16.446  0.00  0.00    +0.000 A 
ATOM      9  C   UNL     1       4.279   5.075  16.973  0.00  0.00    +0.000 A 
ENDROOT
BRANCH   2  10
ATOM     10  C   UNL     1       2.624   8.009  18.500  0.00  0.00    +0.000 A 
ATOM     11  C   UNL     1       2.215   7.882  19.833  0.00  0.00    +0.000 A 
ATOM     12  C   UNL     1       1.251   8.732  20.375  0.00  0.00    +0.000 A 
ATOM     13  C   UNL     1       0.704   9.769  19.615  0.00  0.00    +0.000 A 
ATOM     14  C   UNL     1       1.194   9.960  18.310  0.00  0.00    +0.000 A 
ATOM     15  C   UNL     1       2.150   9.094  17.760  0.00  0.00    +0.000 A 
BRANCH  13  16
ATOM     16  C   UNL     1      -0.357  10.615  20.202  0.00  0.00    +0.000 C 
ATOM     17  C   UNL     1      -1.176  11.362  19.424  0.00  0.00    +0.000 C 
BRANCH  17  18
ATOM     18  C   UNL     1      -2.127  12.368  19.931  0.00  0.00    +0.000 A 
ATOM     19  C   UNL     1      -1.640  13.602  20.381  0.00  0.00    +0.000 A 
ATOM     20  C   UNL     1      -2.504  14.577  20.881  0.00  0.00    +0.000 A 
ATOM     21  C   UNL     1      -3.871  14.318  20.931  0.00  0.00    +0.000 A 
ATOM     22 BR   UNL     1      -5.048  15.637  21.602  0.00  0.00    +0.000 Br
ATOM     23  C   UNL     1      -4.376  13.097  20.486  0.00  0.00    +0.000 A 
ATOM     24  C   UNL     1      -3.503  12.120  19.991  0.00  0.00    +0.000 A 
ENDBRANCH  17  18
BRANCH  16  25
ATOM     25  C   UNL     1      -0.473  10.790  21.706  0.00  0.00    +0.000 C 
ATOM     26  N   UNL     1      -0.570  10.937  22.955  0.00  0.00    +0.000 NA
ENDBRANCH  16  25
ENDBRANCH  13  16
ENDBRANCH   2  10
BRANCH   1  28
ATOM     27  N   UNL     1       1.954   4.676  19.567  0.00  0.00    +0.000 N 
ATOM     28  C   UNL     1       1.996   4.881  18.207  0.00  0.00    +0.000 C 
ATOM     29  O   UNL     1       1.083   4.535  17.465  0.00  0.00    +0.000 OA
ATOM     30  H   UNL     1       2.708   5.020  20.146  0.00  0.00    +0.000 HD
BRANCH  27  31
ATOM     31  C   UNL     1       0.816   4.038  20.192  0.00  0.00    +0.000 C 
BRANCH  31  33
ATOM     32  C   UNL     1       1.887   1.842  19.540  0.00  0.00    +0.000 C 
ATOM     33  C   UNL     1       1.110   2.594  20.621  0.00  0.00    +0.000 C 
ATOM     34  C   UNL     1       1.896   2.588  21.932  0.00  0.00    +0.000 C 
ENDBRANCH  31  33
ENDBRANCH  27  31
ENDBRANCH   1  28
TORSDOF 7
ENDMDL
MODEL 7
REMARK VINA RESULT:      -8.4      0.895      1.440
REMARK  Name = 
REMARK  9 active torsions:
REMARK  status: ('A' for Active; 'I' for Inactive)
REMARK    1  A    between atoms: C_1  and  C_2
REMARK    2  A    between atoms: C_2  and  C_3
REMARK    3  A    between atoms: C_2  and  C_4
REMARK    4  A    between atoms: C_4  and  N_5
REMARK    5  A    between atoms: C_6  and  C_8
REMARK    6  A    between atoms: C_9  and  C_10
REMARK    7  A    between atoms: C_13  and  C_14
REMARK    8  A    between atoms: C_14  and  C_15
REMARK    9  A    between atoms: C_17  and  C_18
REMARK                            x       y       z     vdW  Elec       q    Type
REMARK                         _______ _______ _______ _____ _____    ______ ____
ROOT
ATOM      1  C   UNL     1       3.614   5.042  17.261  0.00  0.00    +0.000 A 
ATOM      2  C   UNL     1       3.830   6.380  17.566  0.00  0.00    +0.000 A 
ATOM      3  O   UNL     1       4.958   6.834  16.943  0.00  0.00    +0.000 OA
ATOM      4  C   UNL     1       5.469   5.793  16.227  0.00  0.00    +0.000 A 
ATOM      5  C   UNL     1       6.596   5.844  15.410  0.00  0.00    +0.000 A 
ATOM      6  C   UNL     1       6.934   4.669  14.728  0.00  0.00    +0.000 A 
ATOM      7  C   UNL     1       6.173   3.508  14.870  0.00  0.00    +0.000 A 
ATOM      8  C   UNL     1       5.044   3.487  15.699  0.00  0.00    +0.000 A 
ATOM      9  C   UNL     1       4.684   4.656  16.398  0.00  0.00    +0.000 A 
ENDROOT
BRANCH   2  10
ATOM     10  C   UNL     1       3.078   7.350  18.357  0.00  0.00    +0.000 A 
ATOM     11  C   UNL     1       2.748   7.058  19.687  0.00  0.00    +0.000 A 
ATOM     12  C   UNL     1       1.803   7.817  20.378  0.00  0.00    +0.000 A 
ATOM     13  C   UNL     1       1.198   8.924  19.778  0.00  0.00    +0.000 A 
ATOM     14  C   UNL     1       1.611   9.279  18.481  0.00  0.00    +0.000 A 
ATOM     15  C   UNL     1       2.547   8.505  17.780  0.00  0.00    +0.000 A 
BRANCH  13  16
ATOM     16  C   UNL     1       0.160   9.672  20.519  0.00  0.00    +0.000 C 
ATOM     17  C   UNL     1      -0.232  10.909  20.131  0.00  0.00    +0.000 C 
BRANCH  17  18
ATOM     18  C   UNL     1      -1.116  11.792  20.913  0.00  0.00    +0.000 A 
ATOM     19  C   UNL     1      -0.691  12.243  22.170  0.00  0.00    +0.000 A 
ATOM     20  C   UNL     1      -1.502  13.071  22.948  0.00  0.00    +0.000 A 
ATOM     21  C   UNL     1      -2.751  13.454  22.466  0.00  0.00    +0.000 A 
ATOM     22 BR   UNL     1      -3.852  14.578  23.513  0.00  0.00    +0.000 Br
ATOM     23  C   UNL     1      -3.191  13.016  21.217  0.00  0.00    +0.000 A 
ATOM     24  C   UNL     1      -2.375  12.182  20.443  0.00  0.00    +0.000 A 
ENDBRANCH  17  18
BRANCH  16  25
ATOM     25  C   UNL     1      -0.401   9.141  21.827  0.00  0.00    +0.000 C 
ATOM     26  N   UNL     1      -0.867   8.701  22.914  0.00  0.00    +0.000 NA
ENDBRANCH  16  25
ENDBRANCH  13  16
ENDBRANCH   2  10
BRANCH   1  28
ATOM     27  N   UNL     1       2.741   3.263  18.583  0.00  0.00    +0.000 N 
ATOM     28  C   UNL     1       2.461   4.276  17.697  0.00  0.00    +0.000 C 
ATOM     29  O   UNL     1       1.317   4.533  17.337  0.00  0.00    +0.000 OA
ATOM     30  H   UNL     1       3.693   3.117  18.889  0.00  0.00    +0.000 HD
BRANCH  27  31
ATOM     31  C   UNL     1       1.685   2.445  19.141  0.00  0.00    +0.000 C 
BRANCH  31  33
ATOM     32  C   UNL     1       2.606   2.616  21.491  0.00  0.00    +0.000 C 
ATOM     33  C   UNL     1       1.376   2.799  20.603  0.00  0.00    +0.000 C 
ATOM     34  C   UNL     1       0.870   4.238  20.695  0.00  0.00    +0.000 C 
ENDBRANCH  31  33
ENDBRANCH  27  31
ENDBRANCH   1  28
TORSDOF 7
ENDMDL
MODEL 8
REMARK VINA RESULT:      -8.3      1.109      1.375
REMARK  Name = 
REMARK  9 active torsions:
REMARK  status: ('A' for Active; 'I' for Inactive)
REMARK    1  A    between atoms: C_1  and  C_2
REMARK    2  A    between atoms: C_2  and  C_3
REMARK    3  A    between atoms: C_2  and  C_4
REMARK    4  A    between atoms: C_4  and  N_5
REMARK    5  A    between atoms: C_6  and  C_8
REMARK    6  A    between atoms: C_9  and  C_10
REMARK    7  A    between atoms: C_13  and  C_14
REMARK    8  A    between atoms: C_14  and  C_15
REMARK    9  A    between atoms: C_17  and  C_18
REMARK                            x       y       z     vdW  Elec       q    Type
REMARK                         _______ _______ _______ _____ _____    ______ ____
ROOT
ATOM      1  C   UNL     1       3.143   5.574  17.780  0.00  0.00    +0.000 A 
ATOM      2  C   UNL     1       3.206   6.952  17.952  0.00  0.00    +0.000 A 
ATOM      3  O   UNL     1       4.357   7.447  17.408  0.00  0.00    +0.000 OA
ATOM      4  C   UNL     1       5.037   6.392  16.875  0.00  0.00    +0.000 A 
ATOM      5  C   UNL     1       6.245   6.469  16.185  0.00  0.00    +0.000 A 
ATOM      6  C   UNL     1       6.761   5.268  15.683  0.00  0.00    +0.000 A 
ATOM      7  C   UNL     1       6.090   4.059  15.872  0.00  0.00    +0.000 A 
ATOM      8  C   UNL     1       4.876   4.013  16.570  0.00  0.00    +0.000 A 
ATOM      9  C   UNL     1       4.337   5.208  17.088  0.00  0.00    +0.000 A 
ENDROOT
BRANCH   2  10
ATOM     10  C   UNL     1       2.285   7.920  18.540  0.00  0.00    +0.000 A 
ATOM     11  C   UNL     1       1.884   9.039  17.799  0.00  0.00    +0.000 A 
ATOM     12  C   UNL     1       1.244  10.117  18.411  0.00  0.00    +0.000 A 
ATOM     13  C   UNL     1       0.938  10.086  19.774  0.00  0.00    +0.000 A 
ATOM     14  C   UNL     1       1.245   8.916  20.493  0.00  0.00    +0.000 A 
ATOM     15  C   UNL     1       1.905   7.841  19.881  0.00  0.00    +0.000 A 
BRANCH  13  16
ATOM     16  C   UNL     1       0.311  11.268  20.403  0.00  0.00    +0.000 C 
ATOM     17  C   UNL     1       0.266  12.464  19.770  0.00  0.00    +0.000 C 
BRANCH  17  18
ATOM     18  C   UNL     1      -0.168  13.728  20.393  0.00  0.00    +0.000 A 
ATOM     19  C   UNL     1      -1.521  14.086  20.339  0.00  0.00    +0.000 A 
ATOM     20  C   UNL     1      -1.973  15.279  20.905  0.00  0.00    +0.000 A 
ATOM     21  C   UNL     1      -1.063  16.124  21.535  0.00  0.00    +0.000 A 
ATOM     22 BR   UNL     1      -1.668  17.740  22.308  0.00  0.00    +0.000 Br
ATOM     23  C   UNL     1       0.288  15.785  21.600  0.00  0.00    +0.000 A 
ATOM     24  C   UNL     1       0.736  14.589  21.025  0.00  0.00    +0.000 A 
ENDBRANCH  17  18
BRANCH  16  25
ATOM     25  C   UNL     1      -0.179  11.222  21.840  0.00  0.00    +0.000 C 
ATOM     26  N   UNL     1      -0.585  11.181  23.034  0.00  0.00    +0.000 NA
ENDBRANCH  16  25
ENDBRANCH  13  16
ENDBRANCH   2  10
BRANCH   1  28
ATOM     27  N   UNL     1       1.884   4.555  19.527  0.00  0.00    +0.000 N 
ATOM     28  C   UNL     1       2.016   4.749  18.172  0.00  0.00    +0.000 C 
ATOM     29  O   UNL     1       1.215   4.289  17.364  0.00  0.00    +0.000 OA
ATOM     30  H   UNL     1       2.541   4.993  20.159  0.00  0.00    +0.000 HD
BRANCH  27  31
ATOM     31  C   UNL     1       0.780   3.794  20.070  0.00  0.00    +0.000 C 
BRANCH  31  33
ATOM     32  C   UNL     1       1.970   1.618  19.570  0.00  0.00    +0.000 C 
ATOM     33  C   UNL     1       1.220   2.431  20.625  0.00  0.00    +0.000 C 
ATOM     34  C   UNL     1       2.100   2.630  21.858  0.00  0.00    +0.000 C 
ENDBRANCH  31  33
ENDBRANCH  27  31
ENDBRANCH   1  28
TORSDOF 7
ENDMDL
MODEL 9
REMARK VINA RESULT:      -8.3      2.047      4.305
REMARK  Name = 
REMARK  9 active torsions:
REMARK  status: ('A' for Active; 'I' for Inactive)
REMARK    1  A    between atoms: C_1  and  C_2
REMARK    2  A    between atoms: C_2  and  C_3
REMARK    3  A    between atoms: C_2  and  C_4
REMARK    4  A    between atoms: C_4  and  N_5
REMARK    5  A    between atoms: C_6  and  C_8
REMARK    6  A    between atoms: C_9  and  C_10
REMARK    7  A    between atoms: C_13  and  C_14
REMARK    8  A    between atoms: C_14  and  C_15
REMARK    9  A    between atoms: C_17  and  C_18
REMARK                            x       y       z     vdW  Elec       q    Type
REMARK                         _______ _______ _______ _____ _____    ______ ____
ROOT
ATOM      1  C   UNL     1       3.277   5.723  18.267  0.00  0.00    +0.000 A 
ATOM      2  C   UNL     1       2.294   6.143  19.155  0.00  0.00    +0.000 A 
ATOM      3  O   UNL     1       1.653   5.066  19.698  0.00  0.00    +0.000 OA
ATOM      4  C   UNL     1       2.226   3.947  19.169  0.00  0.00    +0.000 A 
ATOM      5  C   UNL     1       1.893   2.634  19.493  0.00  0.00    +0.000 A 
ATOM      6  C   UNL     1       2.630   1.624  18.862  0.00  0.00    +0.000 A 
ATOM      7  C   UNL     1       3.644   1.930  17.955  0.00  0.00    +0.000 A 
ATOM      8  C   UNL     1       3.957   3.262  17.649  0.00  0.00    +0.000 A 
ATOM      9  C   UNL     1       3.228   4.296  18.269  0.00  0.00    +0.000 A 
ENDROOT
BRANCH   2  10
ATOM     10  C   UNL     1       1.878   7.463  19.621  0.00  0.00    +0.000 A 
ATOM     11  C   UNL     1       1.542   7.651  20.968  0.00  0.00    +0.000 A 
ATOM     12  C   UNL     1       0.878   8.803  21.390  0.00  0.00    +0.000 A 
ATOM     13  C   UNL     1       0.575   9.825  20.487  0.00  0.00    +0.000 A 
ATOM     14  C   UNL     1       1.008   9.680  19.156  0.00  0.00    +0.000 A 
ATOM     15  C   UNL     1       1.660   8.514  18.729  0.00  0.00    +0.000 A 
BRANCH  13  16
ATOM     16  C   UNL     1      -0.180  11.007  20.957  0.00  0.00    +0.000 C 
ATOM     17  C   UNL     1      -0.373  11.243  22.276  0.00  0.00    +0.000 C 
BRANCH  17  18
ATOM     18  C   UNL     1      -1.264  12.283  22.820  0.00  0.00    +0.000 A 
ATOM     19  C   UNL     1      -0.760  13.575  23.022  0.00  0.00    +0.000 A 
ATOM     20  C   UNL     1      -1.567  14.587  23.548  0.00  0.00    +0.000 A 
ATOM     21  C   UNL     1      -2.891  14.306  23.874  0.00  0.00    +0.000 A 
ATOM     22 BR   UNL     1      -3.989  15.672  24.581  0.00  0.00    +0.000 Br
ATOM     23  C   UNL     1      -3.410  13.027  23.679  0.00  0.00    +0.000 A 
ATOM     24  C   UNL     1      -2.595  12.014  23.156  0.00  0.00    +0.000 A 
ENDBRANCH  17  18
BRANCH  16  25
ATOM     25  C   UNL     1      -0.891  11.921  19.973  0.00  0.00    +0.000 C 
ATOM     26  N   UNL     1      -1.480  12.680  19.157  0.00  0.00    +0.000 NA
ENDBRANCH  16  25
ENDBRANCH  13  16
ENDBRANCH   2  10
BRANCH   1  28
ATOM     27  N   UNL     1       5.514   6.227  17.620  0.00  0.00    +0.000 N 
ATOM     28  C   UNL     1       4.194   6.612  17.578  0.00  0.00    +0.000 C 
ATOM     29  O   UNL     1       3.824   7.611  16.970  0.00  0.00    +0.000 OA
ATOM     30  H   UNL     1       5.768   5.371  18.093  0.00  0.00    +0.000 HD
BRANCH  27  31
ATOM     31  C   UNL     1       6.538   6.989  16.937  0.00  0.00    +0.000 C 
BRANCH  31  33
ATOM     32  C   UNL     1       8.211   8.467  18.125  0.00  0.00    +0.000 C 
ATOM     33  C   UNL     1       7.858   7.036  17.720  0.00  0.00    +0.000 C 
ATOM     34  C   UNL     1       7.762   6.148  18.960  0.00  0.00    +0.000 C 
ENDBRANCH  31  33
ENDBRANCH  27  31
ENDBRANCH   1  28
TORSDOF 7
ENDMDL
