MODEL 1
REMARK VINA RESULT:      -6.8      0.000      0.000
REMARK  Name = 
REMARK  7 active torsions:
REMARK  status: ('A' for Active; 'I' for Inactive)
REMARK    1  A    between atoms: N_1  and  C_2
REMARK    2  A    between atoms: C_6  and  N_7
REMARK    3  A    between atoms: N_7  and  C_24
REMARK    4  A    between atoms: C_8  and  C_10
REMARK    5  A    between atoms: C_15  and  O_16
REMARK    6  A    between atoms: O_16  and  C_17
REMARK    7  A    between atoms: C_17  and  C_18
REMARK                            x       y       z     vdW  Elec       q    Type
REMARK                         _______ _______ _______ _____ _____    ______ ____
ROOT
ATOM      1  N   UNL     1       8.532  15.318  18.458  0.00  0.00    +0.000 N 
ATOM      2  C   UNL     1       8.538  13.914  18.080  0.00  0.00    +0.000 C 
ATOM      3  O   UNL     1       7.655  13.424  17.382  0.00  0.00    +0.000 OA
ENDROOT
BRANCH   1   8
ATOM      4  C   UNL     1      11.414  16.622  17.207  0.00  0.00    +0.000 C 
ATOM      5  C   UNL     1      11.128  18.116  17.283  0.00  0.00    +0.000 C 
ATOM      6  C   UNL     1       9.737  18.404  17.848  0.00  0.00    +0.000 C 
ATOM      7  C   UNL     1       9.485  17.680  19.181  0.00  0.00    +0.000 C 
ATOM      8  C   UNL     1       9.663  16.136  19.113  0.00  0.00    +0.000 C 
ATOM      9  C   UNL     1      11.140  16.007  18.576  0.00  0.00    +0.000 C 
BRANCH   4  10
ATOM     10  N   UNL     1      10.656  15.940  16.170  0.00  0.00    +0.000 NA
ATOM     11  H   UNL     1      11.197  15.169  15.782  0.00  0.00    +0.000 HD
ATOM     12  H   UNL     1      10.469  16.572  15.397  0.00  0.00    +0.000 HD
ENDBRANCH   4  10
ENDBRANCH   1   8
BRANCH   2  13
ATOM     13  C   UNL     1       9.584  12.980  18.612  0.00  0.00    +0.000 A 
ATOM     14  C   UNL     1      10.486  12.449  17.703  0.00  0.00    +0.000 A 
ATOM     15  C   UNL     1      11.690  11.876  18.069  0.00  0.00    +0.000 A 
ATOM     16  C   UNL     1      11.910  11.626  19.406  0.00  0.00    +0.000 A 
ATOM     17  C   UNL     1      10.901  11.900  20.332  0.00  0.00    +0.000 A 
ATOM     18  C   UNL     1       9.712  12.559  19.958  0.00  0.00    +0.000 A 
BRANCH  18  19
ATOM     19  O   UNL     1       8.714  12.814  20.857  0.00  0.00    +0.000 OA
BRANCH  19  20
ATOM     20  C   UNL     1       9.166  13.194  22.179  0.00  0.00    +0.000 C 
BRANCH  20  21
ATOM     21  C   UNL     1       8.240  12.699  23.269  0.00  0.00    +0.000 A 
ATOM     22  C   UNL     1       7.005  12.115  22.968  0.00  0.00    +0.000 A 
ATOM     23  C   UNL     1       6.185  11.621  23.986  0.00  0.00    +0.000 A 
ATOM     24  C   UNL     1       6.598  11.689  25.314  0.00  0.00    +0.000 A 
ATOM     25  C   UNL     1       7.834  12.247  25.631  0.00  0.00    +0.000 A 
ATOM     26  C   UNL     1       8.651  12.746  24.614  0.00  0.00    +0.000 A 
ENDBRANCH  20  21
ENDBRANCH  19  20
ENDBRANCH  18  19
ENDBRANCH   2  13
BRANCH   1  27
ATOM     27  C   UNL     1       7.189  15.945  18.369  0.00  0.00    +0.000 C 
ATOM     28  C   UNL     1       6.048  15.511  19.279  0.00  0.00    +0.000 C 
ATOM     29  C   UNL     1       6.628  16.867  19.435  0.00  0.00    +0.000 C 
ENDBRANCH   1  27
TORSDOF 7
ENDMDL
MODEL 2
REMARK VINA RESULT:      -6.7      8.838     11.019
REMARK  Name = 
REMARK  7 active torsions:
REMARK  status: ('A' for Active; 'I' for Inactive)
REMARK    1  A    between atoms: N_1  and  C_2
REMARK    2  A    between atoms: C_6  and  N_7
REMARK    3  A    between atoms: N_7  and  C_24
REMARK    4  A    between atoms: C_8  and  C_10
REMARK    5  A    between atoms: C_15  and  O_16
REMARK    6  A    between atoms: O_16  and  C_17
REMARK    7  A    between atoms: C_17  and  C_18
REMARK                            x       y       z     vdW  Elec       q    Type
REMARK                         _______ _______ _______ _____ _____    ______ ____
ROOT
ATOM      1  N   UNL     1       4.873   5.195  17.009  0.00  0.00    +0.000 N 
ATOM      2  C   UNL     1       3.928   4.094  17.095  0.00  0.00    +0.000 C 
ATOM      3  O   UNL     1       3.841   3.242  16.215  0.00  0.00    +0.000 OA
ENDROOT
BRANCH   1   8
ATOM      4  C   UNL     1       7.602   5.373  19.033  0.00  0.00    +0.000 C 
ATOM      5  C   UNL     1       8.288   6.626  18.505  0.00  0.00    +0.000 C 
ATOM      6  C   UNL     1       7.521   7.251  17.340  0.00  0.00    +0.000 C 
ATOM      7  C   UNL     1       6.037   7.479  17.672  0.00  0.00    +0.000 C 
ATOM      8  C   UNL     1       5.276   6.195  18.111  0.00  0.00    +0.000 C 
ATOM      9  C   UNL     1       6.145   5.712  19.335  0.00  0.00    +0.000 C 
BRANCH   4  10
ATOM     10  N   UNL     1       7.696   4.238  18.129  0.00  0.00    +0.000 NA
ATOM     11  H   UNL     1       8.212   3.476  18.566  0.00  0.00    +0.000 HD
ATOM     12  H   UNL     1       8.218   4.493  17.296  0.00  0.00    +0.000 HD
ENDBRANCH   4  10
ENDBRANCH   1   8
BRANCH   2  13
ATOM     13  C   UNL     1       2.950   4.007  18.228  0.00  0.00    +0.000 A 
ATOM     14  C   UNL     1       2.733   2.758  18.789  0.00  0.00    +0.000 A 
ATOM     15  C   UNL     1       2.155   2.570  20.031  0.00  0.00    +0.000 A 
ATOM     16  C   UNL     1       1.572   3.656  20.646  0.00  0.00    +0.000 A 
ATOM     17  C   UNL     1       1.530   4.883  19.982  0.00  0.00    +0.000 A 
ATOM     18  C   UNL     1       2.195   5.082  18.754  0.00  0.00    +0.000 A 
BRANCH  18  19
ATOM     19  O   UNL     1       2.142   6.277  18.091  0.00  0.00    +0.000 OA
BRANCH  19  20
ATOM     20  C   UNL     1       2.643   7.412  18.837  0.00  0.00    +0.000 C 
BRANCH  20  21
ATOM     21  C   UNL     1       1.585   8.474  19.051  0.00  0.00    +0.000 A 
ATOM     22  C   UNL     1       1.022   9.169  17.976  0.00  0.00    +0.000 A 
ATOM     23  C   UNL     1       0.013  10.112  18.190  0.00  0.00    +0.000 A 
ATOM     24  C   UNL     1      -0.456  10.357  19.478  0.00  0.00    +0.000 A 
ATOM     25  C   UNL     1       0.078   9.659  20.558  0.00  0.00    +0.000 A 
ATOM     26  C   UNL     1       1.090   8.721  20.345  0.00  0.00    +0.000 A 
ENDBRANCH  20  21
ENDBRANCH  19  20
ENDBRANCH  18  19
ENDBRANCH   2  13
BRANCH   1  27
ATOM     27  C   UNL     1       5.325   5.476  15.623  0.00  0.00    +0.000 C 
ATOM     28  C   UNL     1       6.660   4.958  15.102  0.00  0.00    +0.000 C 
ATOM     29  C   UNL     1       5.399   4.416  14.540  0.00  0.00    +0.000 C 
ENDBRANCH   1  27
TORSDOF 7
ENDMDL
MODEL 3
REMARK VINA RESULT:      -6.5      8.633     10.927
REMARK  Name = 
REMARK  7 active torsions:
REMARK  status: ('A' for Active; 'I' for Inactive)
REMARK    1  A    between atoms: N_1  and  C_2
REMARK    2  A    between atoms: C_6  and  N_7
REMARK    3  A    between atoms: N_7  and  C_24
REMARK    4  A    between atoms: C_8  and  C_10
REMARK    5  A    between atoms: C_15  and  O_16
REMARK    6  A    between atoms: O_16  and  C_17
REMARK    7  A    between atoms: C_17  and  C_18
REMARK                            x       y       z     vdW  Elec       q    Type
REMARK                         _______ _______ _______ _____ _____    ______ ____
ROOT
ATOM      1  N   UNL     1       5.853   5.831  17.755  0.00  0.00    +0.000 N 
ATOM      2  C   UNL     1       5.623   5.338  19.104  0.00  0.00    +0.000 C 
ATOM      3  O   UNL     1       6.364   5.632  20.038  0.00  0.00    +0.000 OA
ENDROOT
BRANCH   1   8
ATOM      4  C   UNL     1       6.425   5.193  14.462  0.00  0.00    +0.000 C 
ATOM      5  C   UNL     1       5.741   3.843  14.293  0.00  0.00    +0.000 C 
ATOM      6  C   UNL     1       5.121   3.347  15.600  0.00  0.00    +0.000 C 
ATOM      7  C   UNL     1       4.210   4.400  16.251  0.00  0.00    +0.000 C 
ATOM      8  C   UNL     1       4.907   5.760  16.540  0.00  0.00    +0.000 C 
ATOM      9  C   UNL     1       5.434   6.158  15.107  0.00  0.00    +0.000 C 
BRANCH   4  10
ATOM     10  N   UNL     1       7.658   5.125  15.229  0.00  0.00    +0.000 NA
ATOM     11  H   UNL     1       7.943   4.155  15.359  0.00  0.00    +0.000 HD
ATOM     12  H   UNL     1       7.516   5.505  16.161  0.00  0.00    +0.000 HD
ENDBRANCH   4  10
ENDBRANCH   1   8
BRANCH   2  13
ATOM     13  C   UNL     1       4.514   4.370  19.390  0.00  0.00    +0.000 A 
ATOM     14  C   UNL     1       4.854   3.034  19.528  0.00  0.00    +0.000 A 
ATOM     15  C   UNL     1       4.034   2.096  20.128  0.00  0.00    +0.000 A 
ATOM     16  C   UNL     1       2.734   2.455  20.407  0.00  0.00    +0.000 A 
ATOM     17  C   UNL     1       2.273   3.718  20.029  0.00  0.00    +0.000 A 
ATOM     18  C   UNL     1       3.140   4.693  19.495  0.00  0.00    +0.000 A 
BRANCH  18  19
ATOM     19  O   UNL     1       2.690   5.924  19.107  0.00  0.00    +0.000 OA
BRANCH  19  20
ATOM     20  C   UNL     1       2.151   6.741  20.174  0.00  0.00    +0.000 C 
BRANCH  20  21
ATOM     21  C   UNL     1       1.707   8.104  19.687  0.00  0.00    +0.000 A 
ATOM     22  C   UNL     1       1.027   8.993  20.527  0.00  0.00    +0.000 A 
ATOM     23  C   UNL     1       0.668  10.265  20.074  0.00  0.00    +0.000 A 
ATOM     24  C   UNL     1       0.998  10.669  18.783  0.00  0.00    +0.000 A 
ATOM     25  C   UNL     1       1.693   9.805  17.940  0.00  0.00    +0.000 A 
ATOM     26  C   UNL     1       2.048   8.532  18.391  0.00  0.00    +0.000 A 
ENDBRANCH  20  21
ENDBRANCH  19  20
ENDBRANCH  18  19
ENDBRANCH   2  13
BRANCH   1  27
ATOM     27  C   UNL     1       7.254   6.260  17.516  0.00  0.00    +0.000 C 
ATOM     28  C   UNL     1       7.636   7.733  17.472  0.00  0.00    +0.000 C 
ATOM     29  C   UNL     1       8.127   6.888  18.587  0.00  0.00    +0.000 C 
ENDBRANCH   1  27
TORSDOF 7
ENDMDL
MODEL 4
REMARK VINA RESULT:      -6.2      9.468     12.476
REMARK  Name = 
REMARK  7 active torsions:
REMARK  status: ('A' for Active; 'I' for Inactive)
REMARK    1  A    between atoms: N_1  and  C_2
REMARK    2  A    between atoms: C_6  and  N_7
REMARK    3  A    between atoms: N_7  and  C_24
REMARK    4  A    between atoms: C_8  and  C_10
REMARK    5  A    between atoms: C_15  and  O_16
REMARK    6  A    between atoms: O_16  and  C_17
REMARK    7  A    between atoms: C_17  and  C_18
REMARK                            x       y       z     vdW  Elec       q    Type
REMARK                         _______ _______ _______ _____ _____    ______ ____
ROOT
ATOM      1  N   UNL     1       2.949   6.243  19.122  0.00  0.00    +0.000 N 
ATOM      2  C   UNL     1       2.484   7.596  18.860  0.00  0.00    +0.000 C 
ATOM      3  O   UNL     1       2.845   8.228  17.871  0.00  0.00    +0.000 OA
ENDROOT
BRANCH   1   8
ATOM      4  C   UNL     1       0.999   3.472  18.824  0.00  0.00    +0.000 C 
ATOM      5  C   UNL     1       1.990   2.367  19.169  0.00  0.00    +0.000 C 
ATOM      6  C   UNL     1       3.380   2.922  19.480  0.00  0.00    +0.000 C 
ATOM      7  C   UNL     1       3.341   4.040  20.535  0.00  0.00    +0.000 C 
ATOM      8  C   UNL     1       2.421   5.238  20.164  0.00  0.00    +0.000 C 
ATOM      9  C   UNL     1       1.037   4.518  19.934  0.00  0.00    +0.000 C 
BRANCH   4  10
ATOM     10  N   UNL     1       1.242   4.081  17.526  0.00  0.00    +0.000 NA
ATOM     11  H   UNL     1       0.549   3.768  16.850  0.00  0.00    +0.000 HD
ATOM     12  H   UNL     1       2.145   3.790  17.163  0.00  0.00    +0.000 HD
ENDBRANCH   4  10
ENDBRANCH   1   8
BRANCH   2  13
ATOM     13  C   UNL     1       1.610   8.313  19.846  0.00  0.00    +0.000 A 
ATOM     14  C   UNL     1       1.652   7.887  21.164  0.00  0.00    +0.000 A 
ATOM     15  C   UNL     1       1.196   8.645  22.226  0.00  0.00    +0.000 A 
ATOM     16  C   UNL     1       0.470   9.782  21.946  0.00  0.00    +0.000 A 
ATOM     17  C   UNL     1       0.171  10.099  20.620  0.00  0.00    +0.000 A 
ATOM     18  C   UNL     1       0.712   9.364  19.544  0.00  0.00    +0.000 A 
BRANCH  18  19
ATOM     19  O   UNL     1       0.408   9.659  18.244  0.00  0.00    +0.000 OA
BRANCH  19  20
ATOM     20  C   UNL     1      -0.181  10.966  18.036  0.00  0.00    +0.000 C 
BRANCH  20  21
ATOM     21  C   UNL     1      -1.668  10.890  17.761  0.00  0.00    +0.000 A 
ATOM     22  C   UNL     1      -2.585  11.663  18.482  0.00  0.00    +0.000 A 
ATOM     23  C   UNL     1      -3.948  11.614  18.182  0.00  0.00    +0.000 A 
ATOM     24  C   UNL     1      -4.409  10.805  17.147  0.00  0.00    +0.000 A 
ATOM     25  C   UNL     1      -3.510  10.044  16.404  0.00  0.00    +0.000 A 
ATOM     26  C   UNL     1      -2.148  10.089  16.708  0.00  0.00    +0.000 A 
ENDBRANCH  20  21
ENDBRANCH  19  20
ENDBRANCH  18  19
ENDBRANCH   2  13
BRANCH   1  27
ATOM     27  C   UNL     1       4.213   5.910  18.419  0.00  0.00    +0.000 C 
ATOM     28  C   UNL     1       4.210   5.196  17.074  0.00  0.00    +0.000 C 
ATOM     29  C   UNL     1       4.669   6.604  17.150  0.00  0.00    +0.000 C 
ENDBRANCH   1  27
TORSDOF 7
ENDMDL
MODEL 5
REMARK VINA RESULT:      -6.2      8.809     10.992
REMARK  Name = 
REMARK  7 active torsions:
REMARK  status: ('A' for Active; 'I' for Inactive)
REMARK    1  A    between atoms: N_1  and  C_2
REMARK    2  A    between atoms: C_6  and  N_7
REMARK    3  A    between atoms: N_7  and  C_24
REMARK    4  A    between atoms: C_8  and  C_10
REMARK    5  A    between atoms: C_15  and  O_16
REMARK    6  A    between atoms: O_16  and  C_17
REMARK    7  A    between atoms: C_17  and  C_18
REMARK                            x       y       z     vdW  Elec       q    Type
REMARK                         _______ _______ _______ _____ _____    ______ ____
ROOT
ATOM      1  N   UNL     1       4.845   4.997  17.339  0.00  0.00    +0.000 N 
ATOM      2  C   UNL     1       4.166   3.725  17.531  0.00  0.00    +0.000 C 
ATOM      3  O   UNL     1       4.056   2.904  16.624  0.00  0.00    +0.000 OA
ENDROOT
BRANCH   1   8
ATOM      4  C   UNL     1       7.771   5.431  19.017  0.00  0.00    +0.000 C 
ATOM      5  C   UNL     1       8.255   6.756  18.442  0.00  0.00    +0.000 C 
ATOM      6  C   UNL     1       7.289   7.313  17.396  0.00  0.00    +0.000 C 
ATOM      7  C   UNL     1       5.843   7.380  17.913  0.00  0.00    +0.000 C 
ATOM      8  C   UNL     1       5.277   6.019  18.409  0.00  0.00    +0.000 C 
ATOM      9  C   UNL     1       6.336   5.612  19.504  0.00  0.00    +0.000 C 
BRANCH   4  10
ATOM     10  N   UNL     1       7.867   4.325  18.079  0.00  0.00    +0.000 NA
ATOM     11  H   UNL     1       6.945   4.078  17.724  0.00  0.00    +0.000 HD
ATOM     12  H   UNL     1       8.222   3.495  18.547  0.00  0.00    +0.000 HD
ENDBRANCH   4  10
ENDBRANCH   1   8
BRANCH   2  13
ATOM     13  C   UNL     1       3.489   3.404  18.829  0.00  0.00    +0.000 A 
ATOM     14  C   UNL     1       3.564   2.096  19.281  0.00  0.00    +0.000 A 
ATOM     15  C   UNL     1       3.310   1.725  20.589  0.00  0.00    +0.000 A 
ATOM     16  C   UNL     1       2.749   2.660  21.432  0.00  0.00    +0.000 A 
ATOM     17  C   UNL     1       2.404   3.917  20.932  0.00  0.00    +0.000 A 
ATOM     18  C   UNL     1       2.743   4.310  19.621  0.00  0.00    +0.000 A 
BRANCH  18  19
ATOM     19  O   UNL     1       2.391   5.533  19.121  0.00  0.00    +0.000 OA
BRANCH  19  20
ATOM     20  C   UNL     1       2.174   6.560  20.118  0.00  0.00    +0.000 C 
BRANCH  20  21
ATOM     21  C   UNL     1       1.889   7.913  19.499  0.00  0.00    +0.000 A 
ATOM     22  C   UNL     1       2.257   8.205  18.182  0.00  0.00    +0.000 A 
ATOM     23  C   UNL     1       1.943   9.442  17.614  0.00  0.00    +0.000 A 
ATOM     24  C   UNL     1       1.242  10.394  18.350  0.00  0.00    +0.000 A 
ATOM     25  C   UNL     1       0.848  10.113  19.655  0.00  0.00    +0.000 A 
ATOM     26  C   UNL     1       1.167   8.879  20.225  0.00  0.00    +0.000 A 
ENDBRANCH  20  21
ENDBRANCH  19  20
ENDBRANCH  18  19
ENDBRANCH   2  13
BRANCH   1  27
ATOM     27  C   UNL     1       4.927   5.411  15.916  0.00  0.00    +0.000 C 
ATOM     28  C   UNL     1       6.233   5.325  15.138  0.00  0.00    +0.000 C 
ATOM     29  C   UNL     1       5.109   4.430  14.772  0.00  0.00    +0.000 C 
ENDBRANCH   1  27
TORSDOF 7
ENDMDL
MODEL 6
REMARK VINA RESULT:      -6.0      8.032     10.792
REMARK  Name = 
REMARK  7 active torsions:
REMARK  status: ('A' for Active; 'I' for Inactive)
REMARK    1  A    between atoms: N_1  and  C_2
REMARK    2  A    between atoms: C_6  and  N_7
REMARK    3  A    between atoms: N_7  and  C_24
REMARK    4  A    between atoms: C_8  and  C_10
REMARK    5  A    between atoms: C_15  and  O_16
REMARK    6  A    between atoms: O_16  and  C_17
REMARK    7  A    between atoms: C_17  and  C_18
REMARK                            x       y       z     vdW  Elec       q    Type
REMARK                         _______ _______ _______ _____ _____    ______ ____
ROOT
ATOM      1  N   UNL     1      -0.065  14.123  20.802  0.00  0.00    +0.000 N 
ATOM      2  C   UNL     1      -1.020  13.028  20.720  0.00  0.00    +0.000 C 
ATOM      3  O   UNL     1      -2.187  13.208  20.384  0.00  0.00    +0.000 OA
ENDROOT
BRANCH   1   8
ATOM      4  C   UNL     1       2.412  13.213  18.656  0.00  0.00    +0.000 C 
ATOM      5  C   UNL     1       3.124  14.542  18.436  0.00  0.00    +0.000 C 
ATOM      6  C   UNL     1       2.466  15.680  19.216  0.00  0.00    +0.000 C 
ATOM      7  C   UNL     1       2.283  15.340  20.704  0.00  0.00    +0.000 C 
ATOM      8  C   UNL     1       1.465  14.044  20.969  0.00  0.00    +0.000 C 
ATOM      9  C   UNL     1       2.292  12.973  20.158  0.00  0.00    +0.000 C 
BRANCH   4  10
ATOM     10  N   UNL     1       1.111  13.141  18.011  0.00  0.00    +0.000 NA
ATOM     11  H   UNL     1       0.895  14.021  17.545  0.00  0.00    +0.000 HD
ATOM     12  H   UNL     1       0.381  13.001  18.704  0.00  0.00    +0.000 HD
ENDBRANCH   4  10
ENDBRANCH   1   8
BRANCH   2  13
ATOM     13  C   UNL     1      -0.635  11.640  21.136  0.00  0.00    +0.000 A 
ATOM     14  C   UNL     1      -0.520  11.390  22.494  0.00  0.00    +0.000 A 
ATOM     15  C   UNL     1      -0.525  10.119  23.040  0.00  0.00    +0.000 A 
ATOM     16  C   UNL     1      -0.422   9.046  22.183  0.00  0.00    +0.000 A 
ATOM     17  C   UNL     1      -0.259   9.271  20.814  0.00  0.00    +0.000 A 
ATOM     18  C   UNL     1      -0.339  10.566  20.263  0.00  0.00    +0.000 A 
BRANCH  18  19
ATOM     19  O   UNL     1      -0.162  10.793  18.926  0.00  0.00    +0.000 OA
BRANCH  19  20
ATOM     20  C   UNL     1      -0.775   9.814  18.054  0.00  0.00    +0.000 C 
BRANCH  20  21
ATOM     21  C   UNL     1      -2.079  10.306  17.462  0.00  0.00    +0.000 A 
ATOM     22  C   UNL     1      -3.013  11.006  18.233  0.00  0.00    +0.000 A 
ATOM     23  C   UNL     1      -4.189  11.493  17.657  0.00  0.00    +0.000 A 
ATOM     24  C   UNL     1      -4.436  11.301  16.300  0.00  0.00    +0.000 A 
ATOM     25  C   UNL     1      -3.509  10.624  15.512  0.00  0.00    +0.000 A 
ATOM     26  C   UNL     1      -2.336  10.133  16.089  0.00  0.00    +0.000 A 
ENDBRANCH  20  21
ENDBRANCH  19  20
ENDBRANCH  18  19
ENDBRANCH   2  13
BRANCH   1  27
ATOM     27  C   UNL     1      -0.707  15.454  20.941  0.00  0.00    +0.000 C 
ATOM     28  C   UNL     1      -1.590  15.789  22.136  0.00  0.00    +0.000 C 
ATOM     29  C   UNL     1      -0.287  16.477  21.979  0.00  0.00    +0.000 C 
ENDBRANCH   1  27
TORSDOF 7
ENDMDL
MODEL 7
REMARK VINA RESULT:      -5.9      8.860     11.241
REMARK  Name = 
REMARK  7 active torsions:
REMARK  status: ('A' for Active; 'I' for Inactive)
REMARK    1  A    between atoms: N_1  and  C_2
REMARK    2  A    between atoms: C_6  and  N_7
REMARK    3  A    between atoms: N_7  and  C_24
REMARK    4  A    between atoms: C_8  and  C_10
REMARK    5  A    between atoms: C_15  and  O_16
REMARK    6  A    between atoms: O_16  and  C_17
REMARK    7  A    between atoms: C_17  and  C_18
REMARK                            x       y       z     vdW  Elec       q    Type
REMARK                         _______ _______ _______ _____ _____    ______ ____
ROOT
ATOM      1  N   UNL     1       5.891   4.596  17.903  0.00  0.00    +0.000 N 
ATOM      2  C   UNL     1       4.984   4.804  19.020  0.00  0.00    +0.000 C 
ATOM      3  O   UNL     1       5.271   5.536  19.963  0.00  0.00    +0.000 OA
ENDROOT
BRANCH   1   8
ATOM      4  C   UNL     1       5.044   5.861  14.861  0.00  0.00    +0.000 C 
ATOM      5  C   UNL     1       6.294   5.550  14.046  0.00  0.00    +0.000 C 
ATOM      6  C   UNL     1       7.363   4.847  14.883  0.00  0.00    +0.000 C 
ATOM      7  C   UNL     1       6.811   3.617  15.622  0.00  0.00    +0.000 C 
ATOM      8  C   UNL     1       5.599   3.917  16.550  0.00  0.00    +0.000 C 
ATOM      9  C   UNL     1       4.581   4.576  15.542  0.00  0.00    +0.000 C 
BRANCH   4  10
ATOM     10  N   UNL     1       5.237   6.924  15.833  0.00  0.00    +0.000 NA
ATOM     11  H   UNL     1       4.594   6.814  16.615  0.00  0.00    +0.000 HD
ATOM     12  H   UNL     1       5.025   7.826  15.416  0.00  0.00    +0.000 HD
ENDBRANCH   4  10
ENDBRANCH   1   8
BRANCH   2  13
ATOM     13  C   UNL     1       3.688   4.054  19.108  0.00  0.00    +0.000 A 
ATOM     14  C   UNL     1       3.753   2.670  19.138  0.00  0.00    +0.000 A 
ATOM     15  C   UNL     1       2.712   1.866  19.565  0.00  0.00    +0.000 A 
ATOM     16  C   UNL     1       1.481   2.451  19.765  0.00  0.00    +0.000 A 
ATOM     17  C   UNL     1       1.309   3.806  19.478  0.00  0.00    +0.000 A 
ATOM     18  C   UNL     1       2.396   4.632  19.124  0.00  0.00    +0.000 A 
BRANCH  18  19
ATOM     19  O   UNL     1       2.230   5.956  18.826  0.00  0.00    +0.000 OA
BRANCH  19  20
ATOM     20  C   UNL     1       2.029   6.819  19.971  0.00  0.00    +0.000 C 
BRANCH  20  21
ATOM     21  C   UNL     1       1.671   8.234  19.570  0.00  0.00    +0.000 A 
ATOM     22  C   UNL     1       1.031   9.105  20.458  0.00  0.00    +0.000 A 
ATOM     23  C   UNL     1       0.752  10.422  20.085  0.00  0.00    +0.000 A 
ATOM     24  C   UNL     1       1.123  10.888  18.827  0.00  0.00    +0.000 A 
ATOM     25  C   UNL     1       1.779  10.042  17.936  0.00  0.00    +0.000 A 
ATOM     26  C   UNL     1       2.054   8.724  18.307  0.00  0.00    +0.000 A 
ENDBRANCH  20  21
ENDBRANCH  19  20
ENDBRANCH  18  19
ENDBRANCH   2  13
BRANCH   1  27
ATOM     27  C   UNL     1       7.306   4.907  18.229  0.00  0.00    +0.000 C 
ATOM     28  C   UNL     1       7.847   6.328  18.142  0.00  0.00    +0.000 C 
ATOM     29  C   UNL     1       7.726   5.674  19.468  0.00  0.00    +0.000 C 
ENDBRANCH   1  27
TORSDOF 7
ENDMDL
MODEL 8
REMARK VINA RESULT:      -5.9      8.849     11.239
REMARK  Name = 
REMARK  7 active torsions:
REMARK  status: ('A' for Active; 'I' for Inactive)
REMARK    1  A    between atoms: N_1  and  C_2
REMARK    2  A    between atoms: C_6  and  N_7
REMARK    3  A    between atoms: N_7  and  C_24
REMARK    4  A    between atoms: C_8  and  C_10
REMARK    5  A    between atoms: C_15  and  O_16
REMARK    6  A    between atoms: O_16  and  C_17
REMARK    7  A    between atoms: C_17  and  C_18
REMARK                            x       y       z     vdW  Elec       q    Type
REMARK                         _______ _______ _______ _____ _____    ______ ____
ROOT
ATOM      1  N   UNL     1       5.782   4.656  17.980  0.00  0.00    +0.000 N 
ATOM      2  C   UNL     1       4.951   4.961  19.134  0.00  0.00    +0.000 C 
ATOM      3  O   UNL     1       5.327   5.720  20.023  0.00  0.00    +0.000 OA
ENDROOT
BRANCH   1   8
ATOM      4  C   UNL     1       5.063   5.811  14.862  0.00  0.00    +0.000 C 
ATOM      5  C   UNL     1       6.247   5.280  14.064  0.00  0.00    +0.000 C 
ATOM      6  C   UNL     1       7.226   4.499  14.941  0.00  0.00    +0.000 C 
ATOM      7  C   UNL     1       6.526   3.408  15.768  0.00  0.00    +0.000 C 
ATOM      8  C   UNL     1       5.380   3.931  16.680  0.00  0.00    +0.000 C 
ATOM      9  C   UNL     1       4.443   4.650  15.635  0.00  0.00    +0.000 C 
BRANCH   4  10
ATOM     10  N   UNL     1       5.412   6.903  15.756  0.00  0.00    +0.000 NA
ATOM     11  H   UNL     1       5.527   7.769  15.232  0.00  0.00    +0.000 HD
ATOM     12  H   UNL     1       6.306   6.722  16.203  0.00  0.00    +0.000 HD
ENDBRANCH   4  10
ENDBRANCH   1   8
BRANCH   2  13
ATOM     13  C   UNL     1       3.628   4.282  19.330  0.00  0.00    +0.000 A 
ATOM     14  C   UNL     1       3.625   3.073  20.007  0.00  0.00    +0.000 A 
ATOM     15  C   UNL     1       2.491   2.514  20.566  0.00  0.00    +0.000 A 
ATOM     16  C   UNL     1       1.271   3.073  20.253  0.00  0.00    +0.000 A 
ATOM     17  C   UNL     1       1.212   4.134  19.348  0.00  0.00    +0.000 A 
ATOM     18  C   UNL     1       2.380   4.747  18.850  0.00  0.00    +0.000 A 
BRANCH  18  19
ATOM     19  O   UNL     1       2.327   5.775  17.949  0.00  0.00    +0.000 OA
BRANCH  19  20
ATOM     20  C   UNL     1       3.027   6.976  18.353  0.00  0.00    +0.000 C 
BRANCH  20  21
ATOM     21  C   UNL     1       2.094   8.019  18.932  0.00  0.00    +0.000 A 
ATOM     22  C   UNL     1       1.522   9.012  18.130  0.00  0.00    +0.000 A 
ATOM     23  C   UNL     1       0.626   9.936  18.674  0.00  0.00    +0.000 A 
ATOM     24  C   UNL     1       0.280   9.868  20.021  0.00  0.00    +0.000 A 
ATOM     25  C   UNL     1       0.823   8.873  20.831  0.00  0.00    +0.000 A 
ATOM     26  C   UNL     1       1.722   7.953  20.288  0.00  0.00    +0.000 A 
ENDBRANCH  20  21
ENDBRANCH  19  20
ENDBRANCH  18  19
ENDBRANCH   2  13
BRANCH   1  27
ATOM     27  C   UNL     1       7.226   4.909  18.212  0.00  0.00    +0.000 C 
ATOM     28  C   UNL     1       7.824   6.301  18.052  0.00  0.00    +0.000 C 
ATOM     29  C   UNL     1       7.755   5.689  19.401  0.00  0.00    +0.000 C 
ENDBRANCH   1  27
TORSDOF 7
ENDMDL
MODEL 9
REMARK VINA RESULT:      -5.9      9.629     11.960
REMARK  Name = 
REMARK  7 active torsions:
REMARK  status: ('A' for Active; 'I' for Inactive)
REMARK    1  A    between atoms: N_1  and  C_2
REMARK    2  A    between atoms: C_6  and  N_7
REMARK    3  A    between atoms: N_7  and  C_24
REMARK    4  A    between atoms: C_8  and  C_10
REMARK    5  A    between atoms: C_15  and  O_16
REMARK    6  A    between atoms: O_16  and  C_17
REMARK    7  A    between atoms: C_17  and  C_18
REMARK                            x       y       z     vdW  Elec       q    Type
REMARK                         _______ _______ _______ _____ _____    ______ ____
ROOT
ATOM      1  N   UNL     1       3.531   4.582  19.381  0.00  0.00    +0.000 N 
ATOM      2  C   UNL     1       4.929   4.841  19.072  0.00  0.00    +0.000 C 
ATOM      3  O   UNL     1       5.799   4.828  19.938  0.00  0.00    +0.000 OA
ENDROOT
BRANCH   1   8
ATOM      4  C   UNL     1       2.696   1.869  17.505  0.00  0.00    +0.000 C 
ATOM      5  C   UNL     1       1.409   1.418  18.183  0.00  0.00    +0.000 C 
ATOM      6  C   UNL     1       1.044   2.310  19.370  0.00  0.00    +0.000 C 
ATOM      7  C   UNL     1       1.031   3.802  18.997  0.00  0.00    +0.000 C 
ATOM      8  C   UNL     1       2.369   4.324  18.401  0.00  0.00    +0.000 C 
ATOM      9  C   UNL     1       2.573   3.354  17.175  0.00  0.00    +0.000 C 
BRANCH   4  10
ATOM     10  N   UNL     1       3.888   1.610  18.296  0.00  0.00    +0.000 NA
ATOM     11  H   UNL     1       4.725   1.863  17.773  0.00  0.00    +0.000 HD
ATOM     12  H   UNL     1       3.969   0.617  18.497  0.00  0.00    +0.000 HD
ENDBRANCH   4  10
ENDBRANCH   1   8
BRANCH   2  13
ATOM     13  C   UNL     1       5.350   5.227  17.686  0.00  0.00    +0.000 A 
ATOM     14  C   UNL     1       6.238   4.388  17.032  0.00  0.00    +0.000 A 
ATOM     15  C   UNL     1       6.441   4.408  15.664  0.00  0.00    +0.000 A 
ATOM     16  C   UNL     1       5.900   5.450  14.944  0.00  0.00    +0.000 A 
ATOM     17  C   UNL     1       5.224   6.472  15.613  0.00  0.00    +0.000 A 
ATOM     18  C   UNL     1       4.953   6.397  16.995  0.00  0.00    +0.000 A 
BRANCH  18  19
ATOM     19  O   UNL     1       4.306   7.403  17.659  0.00  0.00    +0.000 OA
BRANCH  19  20
ATOM     20  C   UNL     1       2.994   7.730  17.142  0.00  0.00    +0.000 C 
BRANCH  20  21
ATOM     21  C   UNL     1       2.105   8.367  18.190  0.00  0.00    +0.000 A 
ATOM     22  C   UNL     1       2.115   7.930  19.519  0.00  0.00    +0.000 A 
ATOM     23  C   UNL     1       1.322   8.561  20.480  0.00  0.00    +0.000 A 
ATOM     24  C   UNL     1       0.524   9.647  20.128  0.00  0.00    +0.000 A 
ATOM     25  C   UNL     1       0.518  10.110  18.815  0.00  0.00    +0.000 A 
ATOM     26  C   UNL     1       1.306   9.475  17.853  0.00  0.00    +0.000 A 
ENDBRANCH  20  21
ENDBRANCH  19  20
ENDBRANCH  18  19
ENDBRANCH   2  13
BRANCH   1  27
ATOM     27  C   UNL     1       3.194   4.803  20.809  0.00  0.00    +0.000 C 
ATOM     28  C   UNL     1       1.752   4.985  21.266  0.00  0.00    +0.000 C 
ATOM     29  C   UNL     1       2.496   3.767  21.670  0.00  0.00    +0.000 C 
ENDBRANCH   1  27
TORSDOF 7
ENDMDL
