MODEL 1
REMARK VINA RESULT:      -7.0      0.000      0.000
REMARK  Name = 
REMARK  5 active torsions:
REMARK  status: ('A' for Active; 'I' for Inactive)
REMARK    1  A    between atoms: C_1  and  O_2
REMARK    2  A    between atoms: O_2  and  C_3
REMARK    3  A    between atoms: C_8  and  N_9
REMARK    4  A    between atoms: N_12  and  C_13
REMARK    5  A    between atoms: C_23  and  C_24
REMARK                            x       y       z     vdW  Elec       q    Type
REMARK                         _______ _______ _______ _____ _____    ______ ____
ROOT
ATOM      1  N   UNL     1       2.448   6.874  18.740  0.00  0.00    +0.000 N 
ATOM      2  C   UNL     1       2.793   7.819  17.654  0.00  0.00    +0.000 C 
ATOM      3  C   UNL     1       1.652   8.852  17.488  0.00  0.00    +0.000 C 
ATOM      4  N   UNL     1       1.506   9.576  18.769  0.00  0.00    +0.000 N 
ATOM      5  C   UNL     1       1.128   8.667  19.876  0.00  0.00    +0.000 C 
ATOM      6  C   UNL     1       2.175   7.534  20.036  0.00  0.00    +0.000 C 
ENDROOT
BRANCH   4   7
ATOM      7  C   UNL     1       1.238  10.946  18.818  0.00  0.00    +0.000 A 
ATOM      8  N   UNL     1       2.273  11.838  18.675  0.00  0.00    +0.000 NA
ATOM      9  C   UNL     1       2.017  13.108  18.675  0.00  0.00    +0.000 A 
ATOM     10  C   UNL     1       3.131  14.083  18.466  0.00  0.00    +0.000 A 
ATOM     11  C   UNL     1       2.883  15.399  18.478  0.00  0.00    +0.000 A 
ATOM     12  C   UNL     1       1.549  15.889  18.700  0.00  0.00    +0.000 A 
ATOM     13  C   UNL     1       0.548  15.021  18.881  0.00  0.00    +0.000 A 
ATOM     14  N   UNL     1       0.752  13.644  18.859  0.00  0.00    +0.000 N 
ATOM     15  C   UNL     1      -0.321  12.805  19.085  0.00  0.00    +0.000 A 
ATOM     16  O   UNL     1      -1.448  13.211  19.383  0.00  0.00    +0.000 OA
ATOM     17  C   UNL     1      -0.034  11.361  19.006  0.00  0.00    +0.000 A 
BRANCH  17  18
ATOM     18  C   UNL     1      -1.105  10.354  19.196  0.00  0.00    +0.000 C 
ATOM     19  O   UNL     1      -1.929  10.050  18.343  0.00  0.00    +0.000 OA
ENDBRANCH  17  18
ENDBRANCH   4   7
BRANCH   1  25
ATOM     20  C   UNL     1       3.929   4.906  19.033  0.00  0.00    +0.000 A 
ATOM     21  C   UNL     1       4.152   3.532  18.826  0.00  0.00    +0.000 A 
ATOM     22  C   UNL     1       3.172   2.724  18.255  0.00  0.00    +0.000 A 
ATOM     23  C   UNL     1       1.958   3.281  17.893  0.00  0.00    +0.000 A 
ATOM     24  C   UNL     1       1.730   4.646  18.096  0.00  0.00    +0.000 A 
ATOM     25  C   UNL     1       2.700   5.509  18.650  0.00  0.00    +0.000 A 
BRANCH  20  27
ATOM     26  C   UNL     1       6.265   5.332  19.167  0.00  0.00    +0.000 C 
ATOM     27  O   UNL     1       4.937   5.717  19.509  0.00  0.00    +0.000 OA
ENDBRANCH  20  27
ENDBRANCH   1  25
TORSDOF 4
ENDMDL
MODEL 2
REMARK VINA RESULT:      -7.0      2.644      8.080
REMARK  Name = 
REMARK  5 active torsions:
REMARK  status: ('A' for Active; 'I' for Inactive)
REMARK    1  A    between atoms: C_1  and  O_2
REMARK    2  A    between atoms: O_2  and  C_3
REMARK    3  A    between atoms: C_8  and  N_9
REMARK    4  A    between atoms: N_12  and  C_13
REMARK    5  A    between atoms: C_23  and  C_24
REMARK                            x       y       z     vdW  Elec       q    Type
REMARK                         _______ _______ _______ _____ _____    ______ ____
ROOT
ATOM      1  N   UNL     1       0.815   9.115  20.359  0.00  0.00    +0.000 N 
ATOM      2  C   UNL     1       0.841   9.110  18.879  0.00  0.00    +0.000 C 
ATOM      3  C   UNL     1       2.239   8.660  18.390  0.00  0.00    +0.000 C 
ATOM      4  N   UNL     1       2.484   7.298  18.911  0.00  0.00    +0.000 N 
ATOM      5  C   UNL     1       2.499   7.269  20.393  0.00  0.00    +0.000 C 
ATOM      6  C   UNL     1       1.162   7.811  20.963  0.00  0.00    +0.000 C 
ENDROOT
BRANCH   4   7
ATOM      7  C   UNL     1       3.128   6.320  18.150  0.00  0.00    +0.000 A 
ATOM      8  N   UNL     1       4.264   6.652  17.452  0.00  0.00    +0.000 NA
ATOM      9  C   UNL     1       4.886   5.732  16.784  0.00  0.00    +0.000 A 
ATOM     10  C   UNL     1       6.152   6.074  16.066  0.00  0.00    +0.000 A 
ATOM     11  C   UNL     1       6.798   5.138  15.359  0.00  0.00    +0.000 A 
ATOM     12  C   UNL     1       6.279   3.800  15.274  0.00  0.00    +0.000 A 
ATOM     13  C   UNL     1       5.150   3.487  15.920  0.00  0.00    +0.000 A 
ATOM     14  N   UNL     1       4.453   4.420  16.683  0.00  0.00    +0.000 N 
ATOM     15  C   UNL     1       3.277   4.038  17.296  0.00  0.00    +0.000 A 
ATOM     16  O   UNL     1       2.763   2.925  17.145  0.00  0.00    +0.000 OA
ATOM     17  C   UNL     1       2.617   5.068  18.118  0.00  0.00    +0.000 A 
BRANCH  17  18
ATOM     18  C   UNL     1       1.366   4.777  18.857  0.00  0.00    +0.000 C 
ATOM     19  O   UNL     1       1.294   4.045  19.837  0.00  0.00    +0.000 OA
ENDBRANCH  17  18
ENDBRANCH   4   7
BRANCH   1  25
ATOM     20  C   UNL     1       0.306  11.505  20.789  0.00  0.00    +0.000 A 
ATOM     21  C   UNL     1      -0.274  12.475  21.628  0.00  0.00    +0.000 A 
ATOM     22  C   UNL     1      -0.988  12.107  22.764  0.00  0.00    +0.000 A 
ATOM     23  C   UNL     1      -1.135  10.765  23.069  0.00  0.00    +0.000 A 
ATOM     24  C   UNL     1      -0.561   9.796  22.240  0.00  0.00    +0.000 A 
ATOM     25  C   UNL     1       0.191  10.121  21.091  0.00  0.00    +0.000 A 
BRANCH  20  27
ATOM     26  C   UNL     1       2.020  12.933  19.964  0.00  0.00    +0.000 C 
ATOM     27  O   UNL     1       1.093  11.880  19.720  0.00  0.00    +0.000 OA
ENDBRANCH  20  27
ENDBRANCH   1  25
TORSDOF 4
ENDMDL
MODEL 3
REMARK VINA RESULT:      -6.9      2.861      8.619
REMARK  Name = 
REMARK  5 active torsions:
REMARK  status: ('A' for Active; 'I' for Inactive)
REMARK    1  A    between atoms: C_1  and  O_2
REMARK    2  A    between atoms: O_2  and  C_3
REMARK    3  A    between atoms: C_8  and  N_9
REMARK    4  A    between atoms: N_12  and  C_13
REMARK    5  A    between atoms: C_23  and  C_24
REMARK                            x       y       z     vdW  Elec       q    Type
REMARK                         _______ _______ _______ _____ _____    ______ ____
ROOT
ATOM      1  N   UNL     1      -0.371  10.701  21.806  0.00  0.00    +0.000 N 
ATOM      2  C   UNL     1      -0.607  10.216  20.427  0.00  0.00    +0.000 C 
ATOM      3  C   UNL     1       0.710   9.637  19.854  0.00  0.00    +0.000 C 
ATOM      4  N   UNL     1       1.131   8.518  20.725  0.00  0.00    +0.000 N 
ATOM      5  C   UNL     1       1.408   8.972  22.107  0.00  0.00    +0.000 C 
ATOM      6  C   UNL     1       0.161   9.664  22.717  0.00  0.00    +0.000 C 
ENDROOT
BRANCH   4   7
ATOM      7  C   UNL     1       1.692   7.349  20.208  0.00  0.00    +0.000 A 
ATOM      8  N   UNL     1       1.555   6.173  20.905  0.00  0.00    +0.000 NA
ATOM      9  C   UNL     1       2.037   5.080  20.402  0.00  0.00    +0.000 A 
ATOM     10  C   UNL     1       1.845   3.789  21.129  0.00  0.00    +0.000 A 
ATOM     11  C   UNL     1       2.350   2.654  20.629  0.00  0.00    +0.000 A 
ATOM     12  C   UNL     1       3.088   2.665  19.395  0.00  0.00    +0.000 A 
ATOM     13  C   UNL     1       3.257   3.817  18.736  0.00  0.00    +0.000 A 
ATOM     14  N   UNL     1       2.736   5.019  19.206  0.00  0.00    +0.000 N 
ATOM     15  C   UNL     1       2.976   6.176  18.494  0.00  0.00    +0.000 A 
ATOM     16  O   UNL     1       3.697   6.219  17.492  0.00  0.00    +0.000 OA
ATOM     17  C   UNL     1       2.358   7.402  19.032  0.00  0.00    +0.000 A 
BRANCH  17  18
ATOM     18  C   UNL     1       2.510   8.706  18.344  0.00  0.00    +0.000 C 
ATOM     19  O   UNL     1       2.168   8.923  17.188  0.00  0.00    +0.000 OA
ENDBRANCH  17  18
ENDBRANCH   4   7
BRANCH   1  25
ATOM     20  C   UNL     1      -0.278  13.151  22.182  0.00  0.00    +0.000 A 
ATOM     21  C   UNL     1      -0.847  14.295  22.772  0.00  0.00    +0.000 A 
ATOM     22  C   UNL     1      -2.058  14.225  23.455  0.00  0.00    +0.000 A 
ATOM     23  C   UNL     1      -2.715  13.011  23.549  0.00  0.00    +0.000 A 
ATOM     24  C   UNL     1      -2.156  11.869  22.966  0.00  0.00    +0.000 A 
ATOM     25  C   UNL     1      -0.920  11.887  22.283  0.00  0.00    +0.000 A 
BRANCH  20  27
ATOM     26  C   UNL     1       1.558  14.502  21.505  0.00  0.00    +0.000 C 
ATOM     27  O   UNL     1       0.966  13.209  21.592  0.00  0.00    +0.000 OA
ENDBRANCH  20  27
ENDBRANCH   1  25
TORSDOF 4
ENDMDL
MODEL 4
REMARK VINA RESULT:      -6.8      2.308      8.041
REMARK  Name = 
REMARK  5 active torsions:
REMARK  status: ('A' for Active; 'I' for Inactive)
REMARK    1  A    between atoms: C_1  and  O_2
REMARK    2  A    between atoms: O_2  and  C_3
REMARK    3  A    between atoms: C_8  and  N_9
REMARK    4  A    between atoms: N_12  and  C_13
REMARK    5  A    between atoms: C_23  and  C_24
REMARK                            x       y       z     vdW  Elec       q    Type
REMARK                         _______ _______ _______ _____ _____    ______ ____
ROOT
ATOM      1  N   UNL     1       0.146  10.249  19.652  0.00  0.00    +0.000 N 
ATOM      2  C   UNL     1       0.402   9.903  18.235  0.00  0.00    +0.000 C 
ATOM      3  C   UNL     1       1.862   9.411  18.082  0.00  0.00    +0.000 C 
ATOM      4  N   UNL     1       2.032   8.218  18.939  0.00  0.00    +0.000 N 
ATOM      5  C   UNL     1       1.816   8.534  20.370  0.00  0.00    +0.000 C 
ATOM      6  C   UNL     1       0.403   9.135  20.591  0.00  0.00    +0.000 C 
ENDROOT
BRANCH   4   7
ATOM      7  C   UNL     1       2.792   7.119  18.534  0.00  0.00    +0.000 A 
ATOM      8  N   UNL     1       3.579   7.223  17.413  0.00  0.00    +0.000 NA
ATOM      9  C   UNL     1       4.319   6.218  17.065  0.00  0.00    +0.000 A 
ATOM     10  C   UNL     1       5.219   6.343  15.878  0.00  0.00    +0.000 A 
ATOM     11  C   UNL     1       5.977   5.307  15.498  0.00  0.00    +0.000 A 
ATOM     12  C   UNL     1       5.931   4.064  16.219  0.00  0.00    +0.000 A 
ATOM     13  C   UNL     1       5.133   3.948  17.286  0.00  0.00    +0.000 A 
ATOM     14  N   UNL     1       4.339   5.002  17.731  0.00  0.00    +0.000 N 
ATOM     15  C   UNL     1       3.514   4.804  18.820  0.00  0.00    +0.000 A 
ATOM     16  O   UNL     1       3.382   3.713  19.382  0.00  0.00    +0.000 OA
ATOM     17  C   UNL     1       2.734   5.977  19.256  0.00  0.00    +0.000 A 
BRANCH  17  18
ATOM     18  C   UNL     1       1.835   5.908  20.433  0.00  0.00    +0.000 C 
ATOM     19  O   UNL     1       0.966   5.061  20.592  0.00  0.00    +0.000 OA
ENDBRANCH  17  18
ENDBRANCH   4   7
BRANCH   1  25
ATOM     20  C   UNL     1      -0.075  12.421  20.831  0.00  0.00    +0.000 A 
ATOM     21  C   UNL     1      -0.905  13.477  21.250  0.00  0.00    +0.000 A 
ATOM     22  C   UNL     1      -2.244  13.531  20.876  0.00  0.00    +0.000 A 
ATOM     23  C   UNL     1      -2.765  12.532  20.072  0.00  0.00    +0.000 A 
ATOM     24  C   UNL     1      -1.947  11.479  19.652  0.00  0.00    +0.000 A 
ATOM     25  C   UNL     1      -0.590  11.369  20.024  0.00  0.00    +0.000 A 
BRANCH  20  27
ATOM     26  C   UNL     1       2.177  13.157  20.636  0.00  0.00    +0.000 C 
ATOM     27  O   UNL     1       1.223  12.323  21.285  0.00  0.00    +0.000 OA
ENDBRANCH  20  27
ENDBRANCH   1  25
TORSDOF 4
ENDMDL
MODEL 5
REMARK VINA RESULT:      -6.6      2.537      8.248
REMARK  Name = 
REMARK  5 active torsions:
REMARK  status: ('A' for Active; 'I' for Inactive)
REMARK    1  A    between atoms: C_1  and  O_2
REMARK    2  A    between atoms: O_2  and  C_3
REMARK    3  A    between atoms: C_8  and  N_9
REMARK    4  A    between atoms: N_12  and  C_13
REMARK    5  A    between atoms: C_23  and  C_24
REMARK                            x       y       z     vdW  Elec       q    Type
REMARK                         _______ _______ _______ _____ _____    ______ ____
ROOT
ATOM      1  N   UNL     1       0.228  10.076  19.864  0.00  0.00    +0.000 N 
ATOM      2  C   UNL     1       0.489   9.819  18.430  0.00  0.00    +0.000 C 
ATOM      3  C   UNL     1       1.939   9.307  18.255  0.00  0.00    +0.000 C 
ATOM      4  N   UNL     1       2.076   8.057  19.031  0.00  0.00    +0.000 N 
ATOM      5  C   UNL     1       1.854   8.281  20.479  0.00  0.00    +0.000 C 
ATOM      6  C   UNL     1       0.453   8.897  20.729  0.00  0.00    +0.000 C 
ENDROOT
BRANCH   4   7
ATOM      7  C   UNL     1       2.817   6.970  18.560  0.00  0.00    +0.000 A 
ATOM      8  N   UNL     1       3.599   7.126  17.441  0.00  0.00    +0.000 NA
ATOM      9  C   UNL     1       4.321   6.131  17.032  0.00  0.00    +0.000 A 
ATOM     10  C   UNL     1       5.216   6.309  15.848  0.00  0.00    +0.000 A 
ATOM     11  C   UNL     1       5.956   5.285  15.405  0.00  0.00    +0.000 A 
ATOM     12  C   UNL     1       5.894   4.004  16.054  0.00  0.00    +0.000 A 
ATOM     13  C   UNL     1       5.100   3.840  17.118  0.00  0.00    +0.000 A 
ATOM     14  N   UNL     1       4.325   4.879  17.628  0.00  0.00    +0.000 N 
ATOM     15  C   UNL     1       3.504   4.633  18.709  0.00  0.00    +0.000 A 
ATOM     16  O   UNL     1       3.358   3.513  19.209  0.00  0.00    +0.000 OA
ATOM     17  C   UNL     1       2.745   5.790  19.216  0.00  0.00    +0.000 A 
BRANCH  17  18
ATOM     18  C   UNL     1       1.852   5.669  20.393  0.00  0.00    +0.000 C 
ATOM     19  O   UNL     1       0.941   4.857  20.490  0.00  0.00    +0.000 OA
ENDBRANCH  17  18
ENDBRANCH   4   7
BRANCH   1  25
ATOM     20  C   UNL     1      -1.741  11.583  19.763  0.00  0.00    +0.000 A 
ATOM     21  C   UNL     1      -2.365  12.769  20.191  0.00  0.00    +0.000 A 
ATOM     22  C   UNL     1      -1.784  13.575  21.165  0.00  0.00    +0.000 A 
ATOM     23  C   UNL     1      -0.576  13.199  21.726  0.00  0.00    +0.000 A 
ATOM     24  C   UNL     1       0.051  12.021  21.306  0.00  0.00    +0.000 A 
ATOM     25  C   UNL     1      -0.488  11.184  20.306  0.00  0.00    +0.000 A 
BRANCH  20  27
ATOM     26  C   UNL     1      -2.718  11.577  17.595  0.00  0.00    +0.000 C 
ATOM     27  O   UNL     1      -2.273  10.841  18.730  0.00  0.00    +0.000 OA
ENDBRANCH  20  27
ENDBRANCH   1  25
TORSDOF 4
ENDMDL
MODEL 6
REMARK VINA RESULT:      -6.6      2.578      3.854
REMARK  Name = 
REMARK  5 active torsions:
REMARK  status: ('A' for Active; 'I' for Inactive)
REMARK    1  A    between atoms: C_1  and  O_2
REMARK    2  A    between atoms: O_2  and  C_3
REMARK    3  A    between atoms: C_8  and  N_9
REMARK    4  A    between atoms: N_12  and  C_13
REMARK    5  A    between atoms: C_23  and  C_24
REMARK                            x       y       z     vdW  Elec       q    Type
REMARK                         _______ _______ _______ _____ _____    ______ ____
ROOT
ATOM      1  N   UNL     1       1.940   8.368  18.925  0.00  0.00    +0.000 N 
ATOM      2  C   UNL     1       1.730   9.511  18.007  0.00  0.00    +0.000 C 
ATOM      3  C   UNL     1       0.283  10.040  18.167  0.00  0.00    +0.000 C 
ATOM      4  N   UNL     1       0.111  10.471  19.571  0.00  0.00    +0.000 N 
ATOM      5  C   UNL     1       0.281   9.345  20.518  0.00  0.00    +0.000 C 
ATOM      6  C   UNL     1       1.677   8.690  20.344  0.00  0.00    +0.000 C 
ENDROOT
BRANCH   4   7
ATOM      7  C   UNL     1      -0.618  11.613  19.909  0.00  0.00    +0.000 A 
ATOM      8  N   UNL     1      -1.991  11.575  19.853  0.00  0.00    +0.000 NA
ATOM      9  C   UNL     1      -2.668  12.620  20.212  0.00  0.00    +0.000 A 
ATOM     10  C   UNL     1      -4.161  12.567  20.204  0.00  0.00    +0.000 A 
ATOM     11  C   UNL     1      -4.874  13.644  20.557  0.00  0.00    +0.000 A 
ATOM     12  C   UNL     1      -4.214  14.864  20.938  0.00  0.00    +0.000 A 
ATOM     13  C   UNL     1      -2.877  14.915  20.953  0.00  0.00    +0.000 A 
ATOM     14  N   UNL     1      -2.093  13.816  20.612  0.00  0.00    +0.000 N 
ATOM     15  C   UNL     1      -0.719  13.948  20.617  0.00  0.00    +0.000 A 
ATOM     16  O   UNL     1      -0.140  15.016  20.837  0.00  0.00    +0.000 OA
ATOM     17  C   UNL     1       0.044  12.731  20.284  0.00  0.00    +0.000 A 
BRANCH  17  18
ATOM     18  C   UNL     1       1.526  12.728  20.286  0.00  0.00    +0.000 C 
ATOM     19  O   UNL     1       2.217  12.696  21.297  0.00  0.00    +0.000 OA
ENDBRANCH  17  18
ENDBRANCH   4   7
BRANCH   1  25
ATOM     20  C   UNL     1       2.484   5.960  19.166  0.00  0.00    +0.000 A 
ATOM     21  C   UNL     1       3.300   4.873  18.800  0.00  0.00    +0.000 A 
ATOM     22  C   UNL     1       4.275   5.006  17.816  0.00  0.00    +0.000 A 
ATOM     23  C   UNL     1       4.438   6.225  17.183  0.00  0.00    +0.000 A 
ATOM     24  C   UNL     1       3.632   7.310  17.541  0.00  0.00    +0.000 A 
ATOM     25  C   UNL     1       2.646   7.230  18.548  0.00  0.00    +0.000 A 
BRANCH  20  27
ATOM     26  C   UNL     1       1.271   4.521  20.620  0.00  0.00    +0.000 C 
ATOM     27  O   UNL     1       1.588   5.847  20.207  0.00  0.00    +0.000 OA
ENDBRANCH  20  27
ENDBRANCH   1  25
TORSDOF 4
ENDMDL
MODEL 7
REMARK VINA RESULT:      -6.6      6.213     10.338
REMARK  Name = 
REMARK  5 active torsions:
REMARK  status: ('A' for Active; 'I' for Inactive)
REMARK    1  A    between atoms: C_1  and  O_2
REMARK    2  A    between atoms: O_2  and  C_3
REMARK    3  A    between atoms: C_8  and  N_9
REMARK    4  A    between atoms: N_12  and  C_13
REMARK    5  A    between atoms: C_23  and  C_24
REMARK                            x       y       z     vdW  Elec       q    Type
REMARK                         _______ _______ _______ _____ _____    ______ ____
ROOT
ATOM      1  N   UNL     1       3.682  16.015  18.685  0.00  0.00    +0.000 N 
ATOM      2  C   UNL     1       4.539  16.572  19.756  0.00  0.00    +0.000 C 
ATOM      3  C   UNL     1       5.587  15.514  20.178  0.00  0.00    +0.000 C 
ATOM      4  N   UNL     1       6.402  15.184  18.990  0.00  0.00    +0.000 N 
ATOM      5  C   UNL     1       5.583  14.592  17.907  0.00  0.00    +0.000 C 
ATOM      6  C   UNL     1       4.437  15.555  17.499  0.00  0.00    +0.000 C 
ENDROOT
BRANCH   4   7
ATOM      7  C   UNL     1       7.778  14.963  19.075  0.00  0.00    +0.000 A 
ATOM      8  N   UNL     1       8.237  13.739  19.499  0.00  0.00    +0.000 NA
ATOM      9  C   UNL     1       9.514  13.520  19.534  0.00  0.00    +0.000 A 
ATOM     10  C   UNL     1      10.017  12.173  19.943  0.00  0.00    +0.000 A 
ATOM     11  C   UNL     1      11.334  11.937  19.999  0.00  0.00    +0.000 A 
ATOM     12  C   UNL     1      12.277  12.974  19.675  0.00  0.00    +0.000 A 
ATOM     13  C   UNL     1      11.831  14.179  19.302  0.00  0.00    +0.000 A 
ATOM     14  N   UNL     1      10.472  14.468  19.212  0.00  0.00    +0.000 N 
ATOM     15  C   UNL     1      10.082  15.741  18.852  0.00  0.00    +0.000 A 
ATOM     16  O   UNL     1      10.876  16.671  18.677  0.00  0.00    +0.000 OA
ATOM     17  C   UNL     1       8.628  15.959  18.739  0.00  0.00    +0.000 A 
BRANCH  17  18
ATOM     18  C   UNL     1       8.077  17.273  18.328  0.00  0.00    +0.000 C 
ATOM     19  O   UNL     1       7.910  18.222  19.084  0.00  0.00    +0.000 OA
ENDBRANCH  17  18
ENDBRANCH   4   7
BRANCH   1  25
ATOM     20  C   UNL     1       1.350  15.316  19.166  0.00  0.00    +0.000 A 
ATOM     21  C   UNL     1      -0.028  15.548  19.005  0.00  0.00    +0.000 A 
ATOM     22  C   UNL     1      -0.493  16.681  18.344  0.00  0.00    +0.000 A 
ATOM     23  C   UNL     1       0.417  17.597  17.844  0.00  0.00    +0.000 A 
ATOM     24  C   UNL     1       1.788  17.373  18.000  0.00  0.00    +0.000 A 
ATOM     25  C   UNL     1       2.307  16.228  18.643  0.00  0.00    +0.000 A 
BRANCH  20  27
ATOM     26  C   UNL     1       0.822  13.140  19.967  0.00  0.00    +0.000 C 
ATOM     27  O   UNL     1       1.804  14.145  19.736  0.00  0.00    +0.000 OA
ENDBRANCH  20  27
ENDBRANCH   1  25
TORSDOF 4
ENDMDL
MODEL 8
REMARK VINA RESULT:      -6.6      1.418      1.438
REMARK  Name = 
REMARK  5 active torsions:
REMARK  status: ('A' for Active; 'I' for Inactive)
REMARK    1  A    between atoms: C_1  and  O_2
REMARK    2  A    between atoms: O_2  and  C_3
REMARK    3  A    between atoms: C_8  and  N_9
REMARK    4  A    between atoms: N_12  and  C_13
REMARK    5  A    between atoms: C_23  and  C_24
REMARK                            x       y       z     vdW  Elec       q    Type
REMARK                         _______ _______ _______ _____ _____    ______ ____
ROOT
ATOM      1  N   UNL     1       2.404   7.176  18.609  0.00  0.00    +0.000 N 
ATOM      2  C   UNL     1       2.564   8.357  17.730  0.00  0.00    +0.000 C 
ATOM      3  C   UNL     1       1.314   9.262  17.853  0.00  0.00    +0.000 C 
ATOM      4  N   UNL     1       1.199   9.687  19.265  0.00  0.00    +0.000 N 
ATOM      5  C   UNL     1       1.004   8.533  20.173  0.00  0.00    +0.000 C 
ATOM      6  C   UNL     1       2.170   7.520  20.029  0.00  0.00    +0.000 C 
ENDROOT
BRANCH   4   7
ATOM      7  C   UNL     1       0.798  10.977  19.619  0.00  0.00    +0.000 A 
ATOM      8  N   UNL     1       1.718  11.840  20.165  0.00  0.00    +0.000 NA
ATOM      9  C   UNL     1       1.357  13.051  20.450  0.00  0.00    +0.000 A 
ATOM     10  C   UNL     1       2.365  14.011  20.993  0.00  0.00    +0.000 A 
ATOM     11  C   UNL     1       2.003  15.261  21.307  0.00  0.00    +0.000 A 
ATOM     12  C   UNL     1       0.642  15.692  21.134  0.00  0.00    +0.000 A 
ATOM     13  C   UNL     1      -0.264  14.839  20.642  0.00  0.00    +0.000 A 
ATOM     14  N   UNL     1       0.069  13.535  20.284  0.00  0.00    +0.000 N 
ATOM     15  C   UNL     1      -0.922  12.698  19.813  0.00  0.00    +0.000 A 
ATOM     16  O   UNL     1      -2.114  13.019  19.760  0.00  0.00    +0.000 OA
ATOM     17  C   UNL     1      -0.486  11.347  19.417  0.00  0.00    +0.000 A 
BRANCH  17  18
ATOM     18  C   UNL     1      -1.445  10.361  18.863  0.00  0.00    +0.000 C 
ATOM     19  O   UNL     1      -1.949  10.435  17.750  0.00  0.00    +0.000 OA
ENDBRANCH  17  18
ENDBRANCH   4   7
BRANCH   1  25
ATOM     20  C   UNL     1       4.131   5.518  17.959  0.00  0.00    +0.000 A 
ATOM     21  C   UNL     1       4.436   4.233  17.472  0.00  0.00    +0.000 A 
ATOM     22  C   UNL     1       3.433   3.295  17.245  0.00  0.00    +0.000 A 
ATOM     23  C   UNL     1       2.117   3.630  17.509  0.00  0.00    +0.000 A 
ATOM     24  C   UNL     1       1.806   4.905  17.992  0.00  0.00    +0.000 A 
ATOM     25  C   UNL     1       2.785   5.897  18.216  0.00  0.00    +0.000 A 
BRANCH  20  27
ATOM     26  C   UNL     1       5.858   6.772  16.910  0.00  0.00    +0.000 C 
ATOM     27  O   UNL     1       5.117   6.472  18.089  0.00  0.00    +0.000 OA
ENDBRANCH  20  27
ENDBRANCH   1  25
TORSDOF 4
ENDMDL
MODEL 9
REMARK VINA RESULT:      -6.6      3.454      4.619
REMARK  Name = 
REMARK  5 active torsions:
REMARK  status: ('A' for Active; 'I' for Inactive)
REMARK    1  A    between atoms: C_1  and  O_2
REMARK    2  A    between atoms: O_2  and  C_3
REMARK    3  A    between atoms: C_8  and  N_9
REMARK    4  A    between atoms: N_12  and  C_13
REMARK    5  A    between atoms: C_23  and  C_24
REMARK                            x       y       z     vdW  Elec       q    Type
REMARK                         _______ _______ _______ _____ _____    ______ ____
ROOT
ATOM      1  N   UNL     1       1.719   8.569  19.689  0.00  0.00    +0.000 N 
ATOM      2  C   UNL     1       1.229   9.786  19.004  0.00  0.00    +0.000 C 
ATOM      3  C   UNL     1      -0.121  10.218  19.627  0.00  0.00    +0.000 C 
ATOM      4  N   UNL     1       0.109  10.495  21.061  0.00  0.00    +0.000 N 
ATOM      5  C   UNL     1       0.570   9.289  21.788  0.00  0.00    +0.000 C 
ATOM      6  C   UNL     1       1.870   8.730  21.152  0.00  0.00    +0.000 C 
ENDROOT
BRANCH   4   7
ATOM      7  C   UNL     1      -0.516  11.556  21.719  0.00  0.00    +0.000 A 
ATOM      8  N   UNL     1      -1.678  11.324  22.415  0.00  0.00    +0.000 NA
ATOM      9  C   UNL     1      -2.232  12.299  23.063  0.00  0.00    +0.000 A 
ATOM     10  C   UNL     1      -3.465  12.041  23.867  0.00  0.00    +0.000 A 
ATOM     11  C   UNL     1      -4.058  13.043  24.529  0.00  0.00    +0.000 A 
ATOM     12  C   UNL     1      -3.522  14.376  24.469  0.00  0.00    +0.000 A 
ATOM     13  C   UNL     1      -2.414  14.611  23.757  0.00  0.00    +0.000 A 
ATOM     14  N   UNL     1      -1.752  13.600  23.066  0.00  0.00    +0.000 N 
ATOM     15  C   UNL     1      -0.633  13.918  22.325  0.00  0.00    +0.000 A 
ATOM     16  O   UNL     1      -0.223  15.074  22.176  0.00  0.00    +0.000 OA
ATOM     17  C   UNL     1       0.036  12.789  21.654  0.00  0.00    +0.000 A 
BRANCH  17  18
ATOM     18  C   UNL     1       1.268  12.989  20.854  0.00  0.00    +0.000 C 
ATOM     19  O   UNL     1       2.391  13.108  21.328  0.00  0.00    +0.000 OA
ENDBRANCH  17  18
ENDBRANCH   4   7
BRANCH   1  25
ATOM     20  C   UNL     1       2.234   6.157  19.419  0.00  0.00    +0.000 A 
ATOM     21  C   UNL     1       2.938   5.151  18.730  0.00  0.00    +0.000 A 
ATOM     22  C   UNL     1       3.713   5.453  17.614  0.00  0.00    +0.000 A 
ATOM     23  C   UNL     1       3.788   6.762  17.173  0.00  0.00    +0.000 A 
ATOM     24  C   UNL     1       3.092   7.767  17.853  0.00  0.00    +0.000 A 
ATOM     25  C   UNL     1       2.311   7.513  19.002  0.00  0.00    +0.000 A 
BRANCH  20  27
ATOM     26  C   UNL     1       1.489   4.490  20.943  0.00  0.00    +0.000 C 
ATOM     27  O   UNL     1       1.548   5.866  20.578  0.00  0.00    +0.000 OA
ENDBRANCH  20  27
ENDBRANCH   1  25
TORSDOF 4
ENDMDL
