MODEL 1
REMARK VINA RESULT:      -8.0      0.000      0.000
REMARK  Name = 
REMARK  9 active torsions:
REMARK  status: ('A' for Active; 'I' for Inactive)
REMARK    1  A    between atoms: C_1  and  C_2
REMARK    2  A    between atoms: C_2  and  O_3
REMARK    3  A    between atoms: O_3  and  C_4
REMARK    4  A    between atoms: C_4  and  C_6
REMARK    5  A    between atoms: C_14  and  O_15
REMARK    6  A    between atoms: O_15  and  C_16
REMARK    7  A    between atoms: C_16  and  C_17
REMARK    8  A    between atoms: C_26  and  C_27
REMARK    9  A    between atoms: C_27  and  C_28
REMARK                            x       y       z     vdW  Elec       q    Type
REMARK                         _______ _______ _______ _____ _____    ______ ____
ROOT
ATOM      1  C   UNL     1       5.586   4.404  17.644  0.00  0.00    +0.000 A 
ATOM      2  N   UNL     1       5.338   3.346  18.533  0.00  0.00    +0.000 N 
ATOM      3  C   UNL     1       4.354   3.382  19.491  0.00  0.00    +0.000 A 
ATOM      4  C   UNL     1       3.599   4.472  19.648  0.00  0.00    +0.000 A 
ATOM      5  N   UNL     1       2.614   4.706  20.559  0.00  0.00    +0.000 NA
ATOM      6  C   UNL     1       2.246   5.916  20.278  0.00  0.00    +0.000 A 
ATOM      7  C   UNL     1       1.198   6.681  20.976  0.00  0.00    +0.000 A 
ATOM      8  C   UNL     1       0.911   7.924  20.562  0.00  0.00    +0.000 A 
ATOM      9  C   UNL     1       1.603   8.564  19.450  0.00  0.00    +0.000 A 
ATOM     10  C   UNL     1       2.570   7.916  18.769  0.00  0.00    +0.000 A 
ATOM     11  C   UNL     1       2.947   6.581  19.147  0.00  0.00    +0.000 A 
ATOM     12  C   UNL     1       3.813   5.630  18.764  0.00  0.00    +0.000 A 
ATOM     13  C   UNL     1       4.843   5.562  17.693  0.00  0.00    +0.000 A 
ATOM     14  H   UNL     1       5.880   2.498  18.394  0.00  0.00    +0.000 HD
ENDROOT
BRANCH   1  15
ATOM     15  C   UNL     1       6.691   4.167  16.629  0.00  0.00    +0.000 C 
ATOM     16  O   UNL     1       7.875   4.417  16.776  0.00  0.00    +0.000 OA
BRANCH  15  17
ATOM     17  O   UNL     1       6.135   3.658  15.486  0.00  0.00    +0.000 OA
BRANCH  17  19
ATOM     18  C   UNL     1       5.913   3.613  13.050  0.00  0.00    +0.000 C 
ATOM     19  C   UNL     1       6.529   4.292  14.259  0.00  0.00    +0.000 C 
ENDBRANCH  17  19
ENDBRANCH  15  17
ENDBRANCH   1  15
BRANCH  13  20
ATOM     20  C   UNL     1       4.953   6.697  16.702  0.00  0.00    +0.000 C 
ATOM     21  C   UNL     1       6.127   7.628  16.977  0.00  0.00    +0.000 C 
ENDBRANCH  13  20
BRANCH   9  22
ATOM     22  O   UNL     1       1.195   9.817  19.021  0.00  0.00    +0.000 OA
BRANCH  22  23
ATOM     23  C   UNL     1       0.112  10.439  19.719  0.00  0.00    +0.000 C 
BRANCH  23  24
ATOM     24  C   UNL     1      -1.054  10.611  18.773  0.00  0.00    +0.000 A 
ATOM     25  C   UNL     1      -1.127   9.851  17.594  0.00  0.00    +0.000 A 
ATOM     26  C   UNL     1      -2.203   9.998  16.717  0.00  0.00    +0.000 A 
ATOM     27  C   UNL     1      -3.223  10.901  17.011  0.00  0.00    +0.000 A 
ATOM     28  C   UNL     1      -3.172  11.647  18.187  0.00  0.00    +0.000 A 
ATOM     29  C   UNL     1      -2.096  11.502  19.066  0.00  0.00    +0.000 A 
ENDBRANCH  23  24
ENDBRANCH  22  23
ENDBRANCH   9  22
TORSDOF 7
ENDMDL
MODEL 2
REMARK VINA RESULT:      -8.0      2.110      2.611
REMARK  Name = 
REMARK  9 active torsions:
REMARK  status: ('A' for Active; 'I' for Inactive)
REMARK    1  A    between atoms: C_1  and  C_2
REMARK    2  A    between atoms: C_2  and  O_3
REMARK    3  A    between atoms: O_3  and  C_4
REMARK    4  A    between atoms: C_4  and  C_6
REMARK    5  A    between atoms: C_14  and  O_15
REMARK    6  A    between atoms: O_15  and  C_16
REMARK    7  A    between atoms: C_16  and  C_17
REMARK    8  A    between atoms: C_26  and  C_27
REMARK    9  A    between atoms: C_27  and  C_28
REMARK                            x       y       z     vdW  Elec       q    Type
REMARK                         _______ _______ _______ _____ _____    ______ ____
ROOT
ATOM      1  C   UNL     1       5.371   4.233  16.224  0.00  0.00    +0.000 A 
ATOM      2  N   UNL     1       5.081   2.887  16.500  0.00  0.00    +0.000 N 
ATOM      3  C   UNL     1       4.167   2.492  17.445  0.00  0.00    +0.000 A 
ATOM      4  C   UNL     1       3.527   3.397  18.191  0.00  0.00    +0.000 A 
ATOM      5  N   UNL     1       2.626   3.196  19.193  0.00  0.00    +0.000 NA
ATOM      6  C   UNL     1       2.356   4.403  19.579  0.00  0.00    +0.000 A 
ATOM      7  C   UNL     1       1.429   4.772  20.663  0.00  0.00    +0.000 A 
ATOM      8  C   UNL     1       1.233   6.070  20.943  0.00  0.00    +0.000 A 
ATOM      9  C   UNL     1       1.911   7.142  20.224  0.00  0.00    +0.000 A 
ATOM     10  C   UNL     1       2.770   6.869  19.221  0.00  0.00    +0.000 A 
ATOM     11  C   UNL     1       3.044   5.506  18.856  0.00  0.00    +0.000 A 
ATOM     12  C   UNL     1       3.793   4.828  17.971  0.00  0.00    +0.000 A 
ATOM     13  C   UNL     1       4.744   5.249  16.908  0.00  0.00    +0.000 A 
ATOM     14  H   UNL     1       5.532   2.194  15.910  0.00  0.00    +0.000 HD
ENDROOT
BRANCH   1  15
ATOM     15  C   UNL     1       6.384   4.476  15.118  0.00  0.00    +0.000 C 
ATOM     16  O   UNL     1       7.573   4.702  15.263  0.00  0.00    +0.000 OA
BRANCH  15  17
ATOM     17  O   UNL     1       5.735   4.443  13.914  0.00  0.00    +0.000 OA
BRANCH  17  19
ATOM     18  C   UNL     1       5.244   3.168  11.884  0.00  0.00    +0.000 C 
ATOM     19  C   UNL     1       6.275   3.545  12.932  0.00  0.00    +0.000 C 
ENDBRANCH  17  19
ENDBRANCH  15  17
ENDBRANCH   1  15
BRANCH  13  20
ATOM     20  C   UNL     1       4.897   6.719  16.596  0.00  0.00    +0.000 C 
ATOM     21  C   UNL     1       6.122   7.351  17.244  0.00  0.00    +0.000 C 
ENDBRANCH  13  20
BRANCH   9  22
ATOM     22  O   UNL     1       1.596   8.460  20.508  0.00  0.00    +0.000 OA
BRANCH  22  23
ATOM     23  C   UNL     1       1.398   8.817  21.880  0.00  0.00    +0.000 C 
BRANCH  23  24
ATOM     24  C   UNL     1       0.370   9.922  21.962  0.00  0.00    +0.000 A 
ATOM     25  C   UNL     1       0.240  10.845  20.912  0.00  0.00    +0.000 A 
ATOM     26  C   UNL     1      -0.711  11.866  20.975  0.00  0.00    +0.000 A 
ATOM     27  C   UNL     1      -1.547  11.971  22.084  0.00  0.00    +0.000 A 
ATOM     28  C   UNL     1      -1.441  11.049  23.124  0.00  0.00    +0.000 A 
ATOM     29  C   UNL     1      -0.490  10.028  23.064  0.00  0.00    +0.000 A 
ENDBRANCH  23  24
ENDBRANCH  22  23
ENDBRANCH   9  22
TORSDOF 7
ENDMDL
MODEL 3
REMARK VINA RESULT:      -7.8      1.091      1.529
REMARK  Name = 
REMARK  9 active torsions:
REMARK  status: ('A' for Active; 'I' for Inactive)
REMARK    1  A    between atoms: C_1  and  C_2
REMARK    2  A    between atoms: C_2  and  O_3
REMARK    3  A    between atoms: O_3  and  C_4
REMARK    4  A    between atoms: C_4  and  C_6
REMARK    5  A    between atoms: C_14  and  O_15
REMARK    6  A    between atoms: O_15  and  C_16
REMARK    7  A    between atoms: C_16  and  C_17
REMARK    8  A    between atoms: C_26  and  C_27
REMARK    9  A    between atoms: C_27  and  C_28
REMARK                            x       y       z     vdW  Elec       q    Type
REMARK                         _______ _______ _______ _____ _____    ______ ____
ROOT
ATOM      1  C   UNL     1       5.392   4.133  16.410  0.00  0.00    +0.000 A 
ATOM      2  N   UNL     1       5.073   2.856  16.898  0.00  0.00    +0.000 N 
ATOM      3  C   UNL     1       4.134   2.635  17.876  0.00  0.00    +0.000 A 
ATOM      4  C   UNL     1       3.498   3.661  18.448  0.00  0.00    +0.000 A 
ATOM      5  N   UNL     1       2.575   3.641  19.450  0.00  0.00    +0.000 NA
ATOM      6  C   UNL     1       2.319   4.899  19.627  0.00  0.00    +0.000 A 
ATOM      7  C   UNL     1       1.379   5.456  20.615  0.00  0.00    +0.000 A 
ATOM      8  C   UNL     1       1.202   6.785  20.673  0.00  0.00    +0.000 A 
ATOM      9  C   UNL     1       1.912   7.713  19.802  0.00  0.00    +0.000 A 
ATOM     10  C   UNL     1       2.784   7.266  18.876  0.00  0.00    +0.000 A 
ATOM     11  C   UNL     1       3.040   5.857  18.747  0.00  0.00    +0.000 A 
ATOM     12  C   UNL     1       3.793   5.032  18.002  0.00  0.00    +0.000 A 
ATOM     13  C   UNL     1       4.771   5.257  16.904  0.00  0.00    +0.000 A 
ATOM     14  H   UNL     1       5.523   2.068  16.441  0.00  0.00    +0.000 HD
ENDROOT
BRANCH   1  15
ATOM     15  C   UNL     1       6.430   4.175  15.302  0.00  0.00    +0.000 C 
ATOM     16  O   UNL     1       7.445   4.851  15.284  0.00  0.00    +0.000 OA
BRANCH  15  17
ATOM     17  O   UNL     1       6.021   3.353  14.286  0.00  0.00    +0.000 OA
BRANCH  17  19
ATOM     18  C   UNL     1       5.268   3.297  11.959  0.00  0.00    +0.000 C 
ATOM     19  C   UNL     1       6.289   3.817  12.954  0.00  0.00    +0.000 C 
ENDBRANCH  17  19
ENDBRANCH  15  17
ENDBRANCH   1  15
BRANCH  13  20
ATOM     20  C   UNL     1       4.956   6.653  16.357  0.00  0.00    +0.000 C 
ATOM     21  C   UNL     1       6.037   7.448  17.079  0.00  0.00    +0.000 C 
ENDBRANCH  13  20
BRANCH   9  22
ATOM     22  O   UNL     1       1.616   9.065  19.858  0.00  0.00    +0.000 OA
BRANCH  22  23
ATOM     23  C   UNL     1       1.398   9.750  18.620  0.00  0.00    +0.000 C 
BRANCH  23  24
ATOM     24  C   UNL     1      -0.017  10.279  18.587  0.00  0.00    +0.000 A 
ATOM     25  C   UNL     1      -0.444  11.214  19.544  0.00  0.00    +0.000 A 
ATOM     26  C   UNL     1      -1.747  11.714  19.519  0.00  0.00    +0.000 A 
ATOM     27  C   UNL     1      -2.637  11.292  18.533  0.00  0.00    +0.000 A 
ATOM     28  C   UNL     1      -2.219  10.378  17.566  0.00  0.00    +0.000 A 
ATOM     29  C   UNL     1      -0.916   9.876  17.590  0.00  0.00    +0.000 A 
ENDBRANCH  23  24
ENDBRANCH  22  23
ENDBRANCH   9  22
TORSDOF 7
ENDMDL
MODEL 4
REMARK VINA RESULT:      -7.8      1.186      1.567
REMARK  Name = 
REMARK  9 active torsions:
REMARK  status: ('A' for Active; 'I' for Inactive)
REMARK    1  A    between atoms: C_1  and  C_2
REMARK    2  A    between atoms: C_2  and  O_3
REMARK    3  A    between atoms: O_3  and  C_4
REMARK    4  A    between atoms: C_4  and  C_6
REMARK    5  A    between atoms: C_14  and  O_15
REMARK    6  A    between atoms: O_15  and  C_16
REMARK    7  A    between atoms: C_16  and  C_17
REMARK    8  A    between atoms: C_26  and  C_27
REMARK    9  A    between atoms: C_27  and  C_28
REMARK                            x       y       z     vdW  Elec       q    Type
REMARK                         _______ _______ _______ _____ _____    ______ ____
ROOT
ATOM      1  C   UNL     1       5.278   4.201  16.302  0.00  0.00    +0.000 A 
ATOM      2  N   UNL     1       4.997   2.894  16.730  0.00  0.00    +0.000 N 
ATOM      3  C   UNL     1       4.096   2.604  17.725  0.00  0.00    +0.000 A 
ATOM      4  C   UNL     1       3.462   3.585  18.372  0.00  0.00    +0.000 A 
ATOM      5  N   UNL     1       2.573   3.495  19.401  0.00  0.00    +0.000 NA
ATOM      6  C   UNL     1       2.302   4.736  19.653  0.00  0.00    +0.000 A 
ATOM      7  C   UNL     1       1.386   5.221  20.701  0.00  0.00    +0.000 A 
ATOM      8  C   UNL     1       1.188   6.542  20.836  0.00  0.00    +0.000 A 
ATOM      9  C   UNL     1       1.854   7.528  19.994  0.00  0.00    +0.000 A 
ATOM     10  C   UNL     1       2.702   7.148  19.017  0.00  0.00    +0.000 A 
ATOM     11  C   UNL     1       2.977   5.753  18.803  0.00  0.00    +0.000 A 
ATOM     12  C   UNL     1       3.718   4.983  17.991  0.00  0.00    +0.000 A 
ATOM     13  C   UNL     1       4.655   5.285  16.876  0.00  0.00    +0.000 A 
ATOM     14  H   UNL     1       5.445   2.140  16.216  0.00  0.00    +0.000 HD
ENDROOT
BRANCH   1  15
ATOM     15  C   UNL     1       6.278   4.322  15.164  0.00  0.00    +0.000 C 
ATOM     16  O   UNL     1       7.466   4.573  15.267  0.00  0.00    +0.000 OA
BRANCH  15  17
ATOM     17  O   UNL     1       5.616   4.144  13.979  0.00  0.00    +0.000 OA
BRANCH  17  19
ATOM     18  C   UNL     1       5.560   2.887  11.880  0.00  0.00    +0.000 C 
ATOM     19  C   UNL     1       6.405   3.646  12.887  0.00  0.00    +0.000 C 
ENDBRANCH  17  19
ENDBRANCH  15  17
ENDBRANCH   1  15
BRANCH  13  20
ATOM     20  C   UNL     1       4.798   6.712  16.400  0.00  0.00    +0.000 C 
ATOM     21  C   UNL     1       5.957   7.455  17.053  0.00  0.00    +0.000 C 
ENDBRANCH  13  20
BRANCH   9  22
ATOM     22  O   UNL     1       1.536   8.870  20.133  0.00  0.00    +0.000 OA
BRANCH  22  23
ATOM     23  C   UNL     1       1.289   9.621  18.940  0.00  0.00    +0.000 C 
BRANCH  23  24
ATOM     24  C   UNL     1       0.018  10.421  19.112  0.00  0.00    +0.000 A 
ATOM     25  C   UNL     1      -0.958  10.422  18.102  0.00  0.00    +0.000 A 
ATOM     26  C   UNL     1      -2.139  11.152  18.254  0.00  0.00    +0.000 A 
ATOM     27  C   UNL     1      -2.361  11.883  19.419  0.00  0.00    +0.000 A 
ATOM     28  C   UNL     1      -1.408  11.874  20.437  0.00  0.00    +0.000 A 
ATOM     29  C   UNL     1      -0.226  11.145  20.287  0.00  0.00    +0.000 A 
ENDBRANCH  23  24
ENDBRANCH  22  23
ENDBRANCH   9  22
TORSDOF 7
ENDMDL
MODEL 5
REMARK VINA RESULT:      -7.7      1.793      2.383
REMARK  Name = 
REMARK  9 active torsions:
REMARK  status: ('A' for Active; 'I' for Inactive)
REMARK    1  A    between atoms: C_1  and  C_2
REMARK    2  A    between atoms: C_2  and  O_3
REMARK    3  A    between atoms: O_3  and  C_4
REMARK    4  A    between atoms: C_4  and  C_6
REMARK    5  A    between atoms: C_14  and  O_15
REMARK    6  A    between atoms: O_15  and  C_16
REMARK    7  A    between atoms: C_16  and  C_17
REMARK    8  A    between atoms: C_26  and  C_27
REMARK    9  A    between atoms: C_27  and  C_28
REMARK                            x       y       z     vdW  Elec       q    Type
REMARK                         _______ _______ _______ _____ _____    ______ ____
ROOT
ATOM      1  C   UNL     1       5.253   4.125  16.576  0.00  0.00    +0.000 A 
ATOM      2  N   UNL     1       4.876   2.858  17.049  0.00  0.00    +0.000 N 
ATOM      3  C   UNL     1       3.920   2.669  18.017  0.00  0.00    +0.000 A 
ATOM      4  C   UNL     1       3.323   3.714  18.595  0.00  0.00    +0.000 A 
ATOM      5  N   UNL     1       2.392   3.725  19.589  0.00  0.00    +0.000 NA
ATOM      6  C   UNL     1       2.189   4.991  19.776  0.00  0.00    +0.000 A 
ATOM      7  C   UNL     1       1.265   5.577  20.763  0.00  0.00    +0.000 A 
ATOM      8  C   UNL     1       1.144   6.912  20.832  0.00  0.00    +0.000 A 
ATOM      9  C   UNL     1       1.900   7.817  19.976  0.00  0.00    +0.000 A 
ATOM     10  C   UNL     1       2.760   7.342  19.052  0.00  0.00    +0.000 A 
ATOM     11  C   UNL     1       2.957   5.926  18.911  0.00  0.00    +0.000 A 
ATOM     12  C   UNL     1       3.680   5.076  18.164  0.00  0.00    +0.000 A 
ATOM     13  C   UNL     1       4.676   5.270  17.076  0.00  0.00    +0.000 A 
ATOM     14  H   UNL     1       5.295   2.056  16.587  0.00  0.00    +0.000 HD
ENDROOT
BRANCH   1  15
ATOM     15  C   UNL     1       6.300   4.133  15.476  0.00  0.00    +0.000 C 
ATOM     16  O   UNL     1       7.439   4.561  15.563  0.00  0.00    +0.000 OA
BRANCH  15  17
ATOM     17  O   UNL     1       5.744   3.616  14.337  0.00  0.00    +0.000 OA
BRANCH  17  19
ATOM     18  C   UNL     1       5.848   3.133  11.941  0.00  0.00    +0.000 C 
ATOM     19  C   UNL     1       6.452   3.880  13.115  0.00  0.00    +0.000 C 
ENDBRANCH  17  19
ENDBRANCH  15  17
ENDBRANCH   1  15
BRANCH  13  20
ATOM     20  C   UNL     1       4.925   6.662  16.544  0.00  0.00    +0.000 C 
ATOM     21  C   UNL     1       6.130   7.345  17.177  0.00  0.00    +0.000 C 
ENDBRANCH  13  20
BRANCH   9  22
ATOM     22  O   UNL     1       1.661   9.180  20.043  0.00  0.00    +0.000 OA
BRANCH  22  23
ATOM     23  C   UNL     1       0.357   9.645  19.678  0.00  0.00    +0.000 C 
BRANCH  23  24
ATOM     24  C   UNL     1      -0.223  10.443  20.823  0.00  0.00    +0.000 A 
ATOM     25  C   UNL     1      -0.465   9.829  22.062  0.00  0.00    +0.000 A 
ATOM     26  C   UNL     1      -0.995  10.559  23.128  0.00  0.00    +0.000 A 
ATOM     27  C   UNL     1      -1.281  11.913  22.970  0.00  0.00    +0.000 A 
ATOM     28  C   UNL     1      -1.028  12.539  21.751  0.00  0.00    +0.000 A 
ATOM     29  C   UNL     1      -0.498  11.811  20.683  0.00  0.00    +0.000 A 
ENDBRANCH  23  24
ENDBRANCH  22  23
ENDBRANCH   9  22
TORSDOF 7
ENDMDL
MODEL 6
REMARK VINA RESULT:      -7.3      0.812      1.586
REMARK  Name = 
REMARK  9 active torsions:
REMARK  status: ('A' for Active; 'I' for Inactive)
REMARK    1  A    between atoms: C_1  and  C_2
REMARK    2  A    between atoms: C_2  and  O_3
REMARK    3  A    between atoms: O_3  and  C_4
REMARK    4  A    between atoms: C_4  and  C_6
REMARK    5  A    between atoms: C_14  and  O_15
REMARK    6  A    between atoms: O_15  and  C_16
REMARK    7  A    between atoms: C_16  and  C_17
REMARK    8  A    between atoms: C_26  and  C_27
REMARK    9  A    between atoms: C_27  and  C_28
REMARK                            x       y       z     vdW  Elec       q    Type
REMARK                         _______ _______ _______ _____ _____    ______ ____
ROOT
ATOM      1  C   UNL     1       5.221   4.394  17.441  0.00  0.00    +0.000 A 
ATOM      2  N   UNL     1       4.987   3.376  18.380  0.00  0.00    +0.000 N 
ATOM      3  C   UNL     1       4.073   3.486  19.398  0.00  0.00    +0.000 A 
ATOM      4  C   UNL     1       3.379   4.615  19.568  0.00  0.00    +0.000 A 
ATOM      5  N   UNL     1       2.468   4.921  20.533  0.00  0.00    +0.000 NA
ATOM      6  C   UNL     1       2.136   6.137  20.237  0.00  0.00    +0.000 A 
ATOM      7  C   UNL     1       1.172   6.971  20.976  0.00  0.00    +0.000 A 
ATOM      8  C   UNL     1       0.912   8.214  20.541  0.00  0.00    +0.000 A 
ATOM      9  C   UNL     1       1.556   8.786  19.365  0.00  0.00    +0.000 A 
ATOM     10  C   UNL     1       2.446   8.074  18.645  0.00  0.00    +0.000 A 
ATOM     11  C   UNL     1       2.788   6.735  19.041  0.00  0.00    +0.000 A 
ATOM     12  C   UNL     1       3.584   5.733  18.633  0.00  0.00    +0.000 A 
ATOM     13  C   UNL     1       4.536   5.585  17.500  0.00  0.00    +0.000 A 
ATOM     14  H   UNL     1       5.481   2.500  18.234  0.00  0.00    +0.000 HD
ENDROOT
BRANCH   1  15
ATOM     15  C   UNL     1       6.244   4.075  16.365  0.00  0.00    +0.000 C 
ATOM     16  O   UNL     1       6.082   3.340  15.405  0.00  0.00    +0.000 OA
BRANCH  15  17
ATOM     17  O   UNL     1       7.414   4.718  16.667  0.00  0.00    +0.000 OA
BRANCH  17  19
ATOM     18  C   UNL     1       7.965   5.789  18.796  0.00  0.00    +0.000 C 
ATOM     19  C   UNL     1       7.927   4.504  17.991  0.00  0.00    +0.000 C 
ENDBRANCH  17  19
ENDBRANCH  15  17
ENDBRANCH   1  15
BRANCH  13  20
ATOM     20  C   UNL     1       4.629   6.684  16.468  0.00  0.00    +0.000 C 
ATOM     21  C   UNL     1       5.689   7.730  16.790  0.00  0.00    +0.000 C 
ENDBRANCH  13  20
BRANCH   9  22
ATOM     22  O   UNL     1       1.176  10.043  18.922  0.00  0.00    +0.000 OA
BRANCH  22  23
ATOM     23  C   UNL     1       0.099  10.692  19.606  0.00  0.00    +0.000 C 
BRANCH  23  24
ATOM     24  C   UNL     1      -1.115  10.720  18.707  0.00  0.00    +0.000 A 
ATOM     25  C   UNL     1      -1.164   9.911  17.560  0.00  0.00    +0.000 A 
ATOM     26  C   UNL     1      -2.283   9.924  16.726  0.00  0.00    +0.000 A 
ATOM     27  C   UNL     1      -3.370  10.740  17.032  0.00  0.00    +0.000 A 
ATOM     28  C   UNL     1      -3.342  11.534  18.178  0.00  0.00    +0.000 A 
ATOM     29  C   UNL     1      -2.222  11.522  19.013  0.00  0.00    +0.000 A 
ENDBRANCH  23  24
ENDBRANCH  22  23
ENDBRANCH   9  22
TORSDOF 7
ENDMDL
MODEL 7
REMARK VINA RESULT:      -7.2      2.575      4.132
REMARK  Name = 
REMARK  9 active torsions:
REMARK  status: ('A' for Active; 'I' for Inactive)
REMARK    1  A    between atoms: C_1  and  C_2
REMARK    2  A    between atoms: C_2  and  O_3
REMARK    3  A    between atoms: O_3  and  C_4
REMARK    4  A    between atoms: C_4  and  C_6
REMARK    5  A    between atoms: C_14  and  O_15
REMARK    6  A    between atoms: O_15  and  C_16
REMARK    7  A    between atoms: C_16  and  C_17
REMARK    8  A    between atoms: C_26  and  C_27
REMARK    9  A    between atoms: C_27  and  C_28
REMARK                            x       y       z     vdW  Elec       q    Type
REMARK                         _______ _______ _______ _____ _____    ______ ____
ROOT
ATOM      1  C   UNL     1       4.038   4.440  18.725  0.00  0.00    +0.000 A 
ATOM      2  N   UNL     1       4.624   4.857  17.519  0.00  0.00    +0.000 N 
ATOM      3  C   UNL     1       4.429   6.104  16.977  0.00  0.00    +0.000 A 
ATOM      4  C   UNL     1       3.617   6.982  17.572  0.00  0.00    +0.000 A 
ATOM      5  N   UNL     1       3.273   8.236  17.168  0.00  0.00    +0.000 NA
ATOM      6  C   UNL     1       2.449   8.618  18.092  0.00  0.00    +0.000 A 
ATOM      7  C   UNL     1       1.756   9.917  18.145  0.00  0.00    +0.000 A 
ATOM      8  C   UNL     1       0.941  10.182  19.177  0.00  0.00    +0.000 A 
ATOM      9  C   UNL     1       0.697   9.229  20.253  0.00  0.00    +0.000 A 
ATOM     10  C   UNL     1       1.302   8.024  20.263  0.00  0.00    +0.000 A 
ATOM     11  C   UNL     1       2.189   7.653  19.194  0.00  0.00    +0.000 A 
ATOM     12  C   UNL     1       2.952   6.610  18.831  0.00  0.00    +0.000 A 
ATOM     13  C   UNL     1       3.212   5.278  19.439  0.00  0.00    +0.000 A 
ATOM     14  H   UNL     1       5.275   4.210  17.082  0.00  0.00    +0.000 HD
ENDROOT
BRANCH   1  15
ATOM     15  C   UNL     1       4.400   3.038  19.184  0.00  0.00    +0.000 C 
ATOM     16  O   UNL     1       5.177   2.746  20.077  0.00  0.00    +0.000 OA
BRANCH  15  17
ATOM     17  O   UNL     1       3.739   2.134  18.396  0.00  0.00    +0.000 OA
BRANCH  17  19
ATOM     18  C   UNL     1       1.295   2.213  18.312  0.00  0.00    +0.000 C 
ATOM     19  C   UNL     1       2.527   1.591  18.943  0.00  0.00    +0.000 C 
ENDBRANCH  17  19
ENDBRANCH  15  17
ENDBRANCH   1  15
BRANCH  13  20
ATOM     20  C   UNL     1       2.638   4.965  20.801  0.00  0.00    +0.000 C 
ATOM     21  C   UNL     1       1.220   4.411  20.749  0.00  0.00    +0.000 C 
ENDBRANCH  13  20
BRANCH   9  22
ATOM     22  O   UNL     1      -0.089   9.603  21.331  0.00  0.00    +0.000 OA
BRANCH  22  23
ATOM     23  C   UNL     1       0.095  10.918  21.864  0.00  0.00    +0.000 C 
BRANCH  23  24
ATOM     24  C   UNL     1      -1.241  11.622  21.922  0.00  0.00    +0.000 A 
ATOM     25  C   UNL     1      -1.934  11.725  23.139  0.00  0.00    +0.000 A 
ATOM     26  C   UNL     1      -3.166  12.379  23.204  0.00  0.00    +0.000 A 
ATOM     27  C   UNL     1      -3.717  12.943  22.055  0.00  0.00    +0.000 A 
ATOM     28  C   UNL     1      -3.030  12.864  20.845  0.00  0.00    +0.000 A 
ATOM     29  C   UNL     1      -1.797  12.210  20.777  0.00  0.00    +0.000 A 
ENDBRANCH  23  24
ENDBRANCH  22  23
ENDBRANCH   9  22
TORSDOF 7
ENDMDL
MODEL 8
REMARK VINA RESULT:      -7.2      2.768      4.405
REMARK  Name = 
REMARK  9 active torsions:
REMARK  status: ('A' for Active; 'I' for Inactive)
REMARK    1  A    between atoms: C_1  and  C_2
REMARK    2  A    between atoms: C_2  and  O_3
REMARK    3  A    between atoms: O_3  and  C_4
REMARK    4  A    between atoms: C_4  and  C_6
REMARK    5  A    between atoms: C_14  and  O_15
REMARK    6  A    between atoms: O_15  and  C_16
REMARK    7  A    between atoms: C_16  and  C_17
REMARK    8  A    between atoms: C_26  and  C_27
REMARK    9  A    between atoms: C_27  and  C_28
REMARK                            x       y       z     vdW  Elec       q    Type
REMARK                         _______ _______ _______ _____ _____    ______ ____
ROOT
ATOM      1  C   UNL     1       3.902   5.097  18.523  0.00  0.00    +0.000 A 
ATOM      2  N   UNL     1       4.419   5.723  17.377  0.00  0.00    +0.000 N 
ATOM      3  C   UNL     1       4.087   7.002  17.003  0.00  0.00    +0.000 A 
ATOM      4  C   UNL     1       3.201   7.707  17.711  0.00  0.00    +0.000 A 
ATOM      5  N   UNL     1       2.723   8.961  17.475  0.00  0.00    +0.000 NA
ATOM      6  C   UNL     1       1.883   9.133  18.446  0.00  0.00    +0.000 A 
ATOM      7  C   UNL     1       1.062  10.336  18.671  0.00  0.00    +0.000 A 
ATOM      8  C   UNL     1       0.245  10.381  19.734  0.00  0.00    +0.000 A 
ATOM      9  C   UNL     1       0.121   9.278  20.680  0.00  0.00    +0.000 A 
ATOM     10  C   UNL     1       0.846   8.151  20.530  0.00  0.00    +0.000 A 
ATOM     11  C   UNL     1       1.745   8.014  19.416  0.00  0.00    +0.000 A 
ATOM     12  C   UNL     1       2.603   7.110  18.916  0.00  0.00    +0.000 A 
ATOM     13  C   UNL     1       3.009   5.745  19.344  0.00  0.00    +0.000 A 
ATOM     14  H   UNL     1       5.123   5.209  16.856  0.00  0.00    +0.000 HD
ENDROOT
BRANCH   1  15
ATOM     15  C   UNL     1       4.414   3.693  18.794  0.00  0.00    +0.000 C 
ATOM     16  O   UNL     1       5.100   3.342  19.739  0.00  0.00    +0.000 OA
BRANCH  15  17
ATOM     17  O   UNL     1       4.016   2.875  17.772  0.00  0.00    +0.000 OA
BRANCH  17  19
ATOM     18  C   UNL     1       2.189   1.816  19.008  0.00  0.00    +0.000 C 
ATOM     19  C   UNL     1       3.432   1.621  18.159  0.00  0.00    +0.000 C 
ENDBRANCH  17  19
ENDBRANCH  15  17
ENDBRANCH   1  15
BRANCH  13  20
ATOM     20  C   UNL     1       2.498   5.203  20.659  0.00  0.00    +0.000 C 
ATOM     21  C   UNL     1       1.140   4.522  20.546  0.00  0.00    +0.000 C 
ENDBRANCH  13  20
BRANCH   9  22
ATOM     22  O   UNL     1      -0.677   9.427  21.802  0.00  0.00    +0.000 OA
BRANCH  22  23
ATOM     23  C   UNL     1      -0.217  10.305  22.834  0.00  0.00    +0.000 C 
BRANCH  23  24
ATOM     24  C   UNL     1      -1.059  11.561  22.829  0.00  0.00    +0.000 A 
ATOM     25  C   UNL     1      -2.326  11.564  23.434  0.00  0.00    +0.000 A 
ATOM     26  C   UNL     1      -3.109  12.720  23.441  0.00  0.00    +0.000 A 
ATOM     27  C   UNL     1      -2.632  13.888  22.849  0.00  0.00    +0.000 A 
ATOM     28  C   UNL     1      -1.368  13.902  22.261  0.00  0.00    +0.000 A 
ATOM     29  C   UNL     1      -0.583  12.747  22.253  0.00  0.00    +0.000 A 
ENDBRANCH  23  24
ENDBRANCH  22  23
ENDBRANCH   9  22
TORSDOF 7
ENDMDL
MODEL 9
REMARK VINA RESULT:      -7.1      1.907      2.499
REMARK  Name = 
REMARK  9 active torsions:
REMARK  status: ('A' for Active; 'I' for Inactive)
REMARK    1  A    between atoms: C_1  and  C_2
REMARK    2  A    between atoms: C_2  and  O_3
REMARK    3  A    between atoms: O_3  and  C_4
REMARK    4  A    between atoms: C_4  and  C_6
REMARK    5  A    between atoms: C_14  and  O_15
REMARK    6  A    between atoms: O_15  and  C_16
REMARK    7  A    between atoms: C_16  and  C_17
REMARK    8  A    between atoms: C_26  and  C_27
REMARK    9  A    between atoms: C_27  and  C_28
REMARK                            x       y       z     vdW  Elec       q    Type
REMARK                         _______ _______ _______ _____ _____    ______ ____
ROOT
ATOM      1  C   UNL     1       5.517   4.322  16.261  0.00  0.00    +0.000 A 
ATOM      2  N   UNL     1       5.188   3.005  16.620  0.00  0.00    +0.000 N 
ATOM      3  C   UNL     1       4.233   2.696  17.558  0.00  0.00    +0.000 A 
ATOM      4  C   UNL     1       3.589   3.664  18.215  0.00  0.00    +0.000 A 
ATOM      5  N   UNL     1       2.651   3.553  19.196  0.00  0.00    +0.000 NA
ATOM      6  C   UNL     1       2.394   4.789  19.487  0.00  0.00    +0.000 A 
ATOM      7  C   UNL     1       1.439   5.252  20.508  0.00  0.00    +0.000 A 
ATOM      8  C   UNL     1       1.263   6.570  20.689  0.00  0.00    +0.000 A 
ATOM      9  C   UNL     1       1.989   7.574  19.922  0.00  0.00    +0.000 A 
ATOM     10  C   UNL     1       2.875   7.215  18.971  0.00  0.00    +0.000 A 
ATOM     11  C   UNL     1       3.131   5.824  18.713  0.00  0.00    +0.000 A 
ATOM     12  C   UNL     1       3.894   5.070  17.905  0.00  0.00    +0.000 A 
ATOM     13  C   UNL     1       4.890   5.396  16.849  0.00  0.00    +0.000 A 
ATOM     14  H   UNL     1       5.644   2.262  16.097  0.00  0.00    +0.000 HD
ENDROOT
BRANCH   1  15
ATOM     15  C   UNL     1       6.572   4.465  15.178  0.00  0.00    +0.000 C 
ATOM     16  O   UNL     1       7.485   5.274  15.158  0.00  0.00    +0.000 OA
BRANCH  15  17
ATOM     17  O   UNL     1       6.311   3.557  14.187  0.00  0.00    +0.000 OA
BRANCH  17  19
ATOM     18  C   UNL     1       5.445   3.038  11.959  0.00  0.00    +0.000 C 
ATOM     19  C   UNL     1       5.475   4.020  13.115  0.00  0.00    +0.000 C 
ENDBRANCH  17  19
ENDBRANCH  15  17
ENDBRANCH   1  15
BRANCH  13  20
ATOM     20  C   UNL     1       5.086   6.837  16.440  0.00  0.00    +0.000 C 
ATOM     21  C   UNL     1       6.212   7.532  17.195  0.00  0.00    +0.000 C 
ENDBRANCH  13  20
BRANCH   9  22
ATOM     22  O   UNL     1       1.694   8.916  20.101  0.00  0.00    +0.000 OA
BRANCH  22  23
ATOM     23  C   UNL     1       0.790   9.528  19.174  0.00  0.00    +0.000 C 
BRANCH  23  24
ATOM     24  C   UNL     1       1.116  10.999  19.061  0.00  0.00    +0.000 A 
ATOM     25  C   UNL     1       0.387  11.944  19.802  0.00  0.00    +0.000 A 
ATOM     26  C   UNL     1       0.685  13.305  19.710  0.00  0.00    +0.000 A 
ATOM     27  C   UNL     1       1.719  13.737  18.882  0.00  0.00    +0.000 A 
ATOM     28  C   UNL     1       2.462  12.808  18.156  0.00  0.00    +0.000 A 
ATOM     29  C   UNL     1       2.166  11.446  18.247  0.00  0.00    +0.000 A 
ENDBRANCH  23  24
ENDBRANCH  22  23
ENDBRANCH   9  22
TORSDOF 7
ENDMDL
