MODEL 1
REMARK VINA RESULT:      -8.1      0.000      0.000
REMARK  Name = 
REMARK  6 active torsions:
REMARK  status: ('A' for Active; 'I' for Inactive)
REMARK    1  A    between atoms: C_6  and  C_7
REMARK    2  A    between atoms: C_7  and  O_8
REMARK    3  A    between atoms: O_8  and  C_9
REMARK    4  A    between atoms: C_9  and  C_10
REMARK    5  A    between atoms: C_9  and  C_16
REMARK    6  A    between atoms: C_10  and  N_11
REMARK                            x       y       z     vdW  Elec       q    Type
REMARK                         _______ _______ _______ _____ _____    ______ ____
ROOT
ATOM      1  C   UNL     1       4.695   4.247  18.711  0.00  0.00    +0.000 C 
ENDROOT
BRANCH   1   2
ATOM      2  C   UNL     1       5.426   4.489  17.378  0.00  0.00    +0.000 A 
ATOM      3  C   UNL     1       4.854   4.027  16.172  0.00  0.00    +0.000 A 
ATOM      4  C   UNL     1       5.496   4.190  14.941  0.00  0.00    +0.000 A 
ATOM      5  C   UNL     1       6.736   4.809  14.886  0.00  0.00    +0.000 A 
ATOM      6 CL   UNL     1       7.539   4.993  13.376  0.00  0.00    +0.000 Cl
ATOM      7  C   UNL     1       7.323   5.294  16.048  0.00  0.00    +0.000 A 
ATOM      8  C   UNL     1       6.662   5.161  17.279  0.00  0.00    +0.000 A 
ATOM      9 CL   UNL     1       7.437   5.896  18.638  0.00  0.00    +0.000 Cl
ENDBRANCH   1   2
BRANCH   1  10
ATOM     10  O   UNL     1       3.929   5.428  19.032  0.00  0.00    +0.000 OA
BRANCH  10  11
ATOM     11  C   UNL     1       3.318   6.111  17.946  0.00  0.00    +0.000 C 
BRANCH  11  17
ATOM     12 CL   UNL     1       1.000   8.507  21.971  0.00  0.00    +0.000 Cl
ATOM     13  C   UNL     1       1.462   8.457  20.312  0.00  0.00    +0.000 A 
ATOM     14  C   UNL     1       1.117   9.511  19.470  0.00  0.00    +0.000 A 
ATOM     15  C   UNL     1       1.494   9.467  18.128  0.00  0.00    +0.000 A 
ATOM     16  C   UNL     1       2.217   8.374  17.640  0.00  0.00    +0.000 A 
ATOM     17  C   UNL     1       2.569   7.307  18.485  0.00  0.00    +0.000 A 
ATOM     18  C   UNL     1       2.177   7.358  19.830  0.00  0.00    +0.000 A 
ENDBRANCH  11  17
ENDBRANCH  10  11
ENDBRANCH   1  10
BRANCH   1  19
ATOM     19  C   UNL     1       3.799   2.981  18.719  0.00  0.00    +0.000 C 
BRANCH  19  20
ATOM     20  N   UNL     1       2.893   2.911  19.849  0.00  0.00    +0.000 N 
ATOM     21  C   UNL     1       1.545   3.127  19.828  0.00  0.00    +0.000 A 
ATOM     22  C   UNL     1       1.133   2.902  21.120  0.00  0.00    +0.000 A 
ATOM     23  N   UNL     1       2.203   2.628  21.933  0.00  0.00    +0.000 NA
ATOM     24  C   UNL     1       3.254   2.657  21.142  0.00  0.00    +0.000 A 
ENDBRANCH  19  20
ENDBRANCH   1  19
TORSDOF 6
ENDMDL
MODEL 2
REMARK VINA RESULT:      -8.0      1.077      1.594
REMARK  Name = 
REMARK  6 active torsions:
REMARK  status: ('A' for Active; 'I' for Inactive)
REMARK    1  A    between atoms: C_6  and  C_7
REMARK    2  A    between atoms: C_7  and  O_8
REMARK    3  A    between atoms: O_8  and  C_9
REMARK    4  A    between atoms: C_9  and  C_10
REMARK    5  A    between atoms: C_9  and  C_16
REMARK    6  A    between atoms: C_10  and  N_11
REMARK                            x       y       z     vdW  Elec       q    Type
REMARK                         _______ _______ _______ _____ _____    ______ ____
ROOT
ATOM      1  C   UNL     1       4.632   4.398  18.275  0.00  0.00    +0.000 C 
ENDROOT
BRANCH   1   2
ATOM      2  C   UNL     1       5.420   4.591  16.967  0.00  0.00    +0.000 A 
ATOM      3  C   UNL     1       4.805   4.294  15.730  0.00  0.00    +0.000 A 
ATOM      4  C   UNL     1       5.490   4.418  14.517  0.00  0.00    +0.000 A 
ATOM      5  C   UNL     1       6.815   4.831  14.511  0.00  0.00    +0.000 A 
ATOM      6 CL   UNL     1       7.666   4.964  13.023  0.00  0.00    +0.000 Cl
ATOM      7  C   UNL     1       7.448   5.149  15.706  0.00  0.00    +0.000 A 
ATOM      8  C   UNL     1       6.750   5.058  16.919  0.00  0.00    +0.000 A 
ATOM      9 CL   UNL     1       7.605   5.582  18.327  0.00  0.00    +0.000 Cl
ENDBRANCH   1   2
BRANCH   1  10
ATOM     10  O   UNL     1       4.238   5.697  18.766  0.00  0.00    +0.000 OA
BRANCH  10  11
ATOM     11  C   UNL     1       3.381   6.465  17.931  0.00  0.00    +0.000 C 
BRANCH  11  17
ATOM     12 CL   UNL     1       0.652  10.876  18.567  0.00  0.00    +0.000 Cl
ATOM     13  C   UNL     1       1.238   9.370  19.163  0.00  0.00    +0.000 A 
ATOM     14  C   UNL     1       0.922   8.972  20.459  0.00  0.00    +0.000 A 
ATOM     15  C   UNL     1       1.398   7.751  20.936  0.00  0.00    +0.000 A 
ATOM     16  C   UNL     1       2.180   6.936  20.113  0.00  0.00    +0.000 A 
ATOM     17  C   UNL     1       2.504   7.331  18.803  0.00  0.00    +0.000 A 
ATOM     18  C   UNL     1       2.027   8.564  18.337  0.00  0.00    +0.000 A 
ENDBRANCH  11  17
ENDBRANCH  10  11
ENDBRANCH   1  10
BRANCH   1  19
ATOM     19  C   UNL     1       3.409   3.455  18.142  0.00  0.00    +0.000 C 
BRANCH  19  20
ATOM     20  N   UNL     1       2.709   3.222  19.391  0.00  0.00    +0.000 N 
ATOM     21  C   UNL     1       3.256   2.780  20.562  0.00  0.00    +0.000 A 
ATOM     22  C   UNL     1       2.211   2.763  21.453  0.00  0.00    +0.000 A 
ATOM     23  N   UNL     1       1.036   3.112  20.836  0.00  0.00    +0.000 NA
ATOM     24  C   UNL     1       1.365   3.366  19.588  0.00  0.00    +0.000 A 
ENDBRANCH  19  20
ENDBRANCH   1  19
TORSDOF 6
ENDMDL
MODEL 3
REMARK VINA RESULT:      -7.7      2.764      5.306
REMARK  Name = 
REMARK  6 active torsions:
REMARK  status: ('A' for Active; 'I' for Inactive)
REMARK    1  A    between atoms: C_6  and  C_7
REMARK    2  A    between atoms: C_7  and  O_8
REMARK    3  A    between atoms: O_8  and  C_9
REMARK    4  A    between atoms: C_9  and  C_10
REMARK    5  A    between atoms: C_9  and  C_16
REMARK    6  A    between atoms: C_10  and  N_11
REMARK                            x       y       z     vdW  Elec       q    Type
REMARK                         _______ _______ _______ _____ _____    ______ ____
ROOT
ATOM      1  C   UNL     1       3.317   5.504  17.895  0.00  0.00    +0.000 C 
ENDROOT
BRANCH   1   2
ATOM      2  C   UNL     1       2.733   4.608  19.002  0.00  0.00    +0.000 A 
ATOM      3  C   UNL     1       2.496   5.147  20.286  0.00  0.00    +0.000 A 
ATOM      4  C   UNL     1       2.001   4.366  21.335  0.00  0.00    +0.000 A 
ATOM      5  C   UNL     1       1.742   3.018  21.129  0.00  0.00    +0.000 A 
ATOM      6 CL   UNL     1       1.153   2.049  22.422  0.00  0.00    +0.000 Cl
ATOM      7  C   UNL     1       1.945   2.456  19.875  0.00  0.00    +0.000 A 
ATOM      8  C   UNL     1       2.408   3.248  18.814  0.00  0.00    +0.000 A 
ATOM      9 CL   UNL     1       2.520   2.466  17.277  0.00  0.00    +0.000 Cl
ENDBRANCH   1   2
BRANCH   1  10
ATOM     10  O   UNL     1       2.406   6.600  17.666  0.00  0.00    +0.000 OA
BRANCH  10  11
ATOM     11  C   UNL     1       2.891   7.906  17.949  0.00  0.00    +0.000 C 
BRANCH  11  17
ATOM     12 CL   UNL     1       0.314   9.087  22.341  0.00  0.00    +0.000 Cl
ATOM     13  C   UNL     1       0.554   9.259  20.643  0.00  0.00    +0.000 A 
ATOM     14  C   UNL     1      -0.281  10.099  19.912  0.00  0.00    +0.000 A 
ATOM     15  C   UNL     1      -0.082  10.237  18.539  0.00  0.00    +0.000 A 
ATOM     16  C   UNL     1       0.951   9.538  17.909  0.00  0.00    +0.000 A 
ATOM     17  C   UNL     1       1.799   8.688  18.640  0.00  0.00    +0.000 A 
ATOM     18  C   UNL     1       1.584   8.551  20.019  0.00  0.00    +0.000 A 
ENDBRANCH  11  17
ENDBRANCH  10  11
ENDBRANCH   1  10
BRANCH   1  19
ATOM     19  C   UNL     1       4.749   6.020  18.190  0.00  0.00    +0.000 C 
BRANCH  19  20
ATOM     20  N   UNL     1       5.733   5.619  17.202  0.00  0.00    +0.000 N 
ATOM     21  C   UNL     1       5.828   4.400  16.594  0.00  0.00    +0.000 A 
ATOM     22  C   UNL     1       6.878   4.526  15.718  0.00  0.00    +0.000 A 
ATOM     23  N   UNL     1       7.465   5.761  15.832  0.00  0.00    +0.000 NA
ATOM     24  C   UNL     1       6.763   6.393  16.748  0.00  0.00    +0.000 A 
ENDBRANCH  19  20
ENDBRANCH   1  19
TORSDOF 6
ENDMDL
MODEL 4
REMARK VINA RESULT:      -7.7      2.687      5.018
REMARK  Name = 
REMARK  6 active torsions:
REMARK  status: ('A' for Active; 'I' for Inactive)
REMARK    1  A    between atoms: C_6  and  C_7
REMARK    2  A    between atoms: C_7  and  O_8
REMARK    3  A    between atoms: O_8  and  C_9
REMARK    4  A    between atoms: C_9  and  C_10
REMARK    5  A    between atoms: C_9  and  C_16
REMARK    6  A    between atoms: C_10  and  N_11
REMARK                            x       y       z     vdW  Elec       q    Type
REMARK                         _______ _______ _______ _____ _____    ______ ____
ROOT
ATOM      1  C   UNL     1       3.107   6.211  17.703  0.00  0.00    +0.000 C 
ENDROOT
BRANCH   1   2
ATOM      2  C   UNL     1       2.665   5.190  18.765  0.00  0.00    +0.000 A 
ATOM      3  C   UNL     1       2.344   5.630  20.068  0.00  0.00    +0.000 A 
ATOM      4  C   UNL     1       1.972   4.738  21.079  0.00  0.00    +0.000 A 
ATOM      5  C   UNL     1       1.923   3.376  20.813  0.00  0.00    +0.000 A 
ATOM      6 CL   UNL     1       1.487   2.274  22.059  0.00  0.00    +0.000 Cl
ATOM      7  C   UNL     1       2.214   2.906  19.538  0.00  0.00    +0.000 A 
ATOM      8  C   UNL     1       2.553   3.806  18.517  0.00  0.00    +0.000 A 
ATOM      9 CL   UNL     1       2.787   3.118  16.949  0.00  0.00    +0.000 Cl
ENDBRANCH   1   2
BRANCH   1  10
ATOM     10  O   UNL     1       2.093   7.234  17.602  0.00  0.00    +0.000 OA
BRANCH  10  11
ATOM     11  C   UNL     1       2.485   8.560  17.934  0.00  0.00    +0.000 C 
BRANCH  11  17
ATOM     12 CL   UNL     1       0.148   9.269  22.555  0.00  0.00    +0.000 Cl
ATOM     13  C   UNL     1       0.245   9.551  20.858  0.00  0.00    +0.000 A 
ATOM     14  C   UNL     1      -0.713  10.348  20.237  0.00  0.00    +0.000 A 
ATOM     15  C   UNL     1      -0.630  10.574  18.864  0.00  0.00    +0.000 A 
ATOM     16  C   UNL     1       0.412  10.007  18.124  0.00  0.00    +0.000 A 
ATOM     17  C   UNL     1       1.383   9.202  18.744  0.00  0.00    +0.000 A 
ATOM     18  C   UNL     1       1.284   8.974  20.124  0.00  0.00    +0.000 A 
ENDBRANCH  11  17
ENDBRANCH  10  11
ENDBRANCH   1  10
BRANCH   1  19
ATOM     19  C   UNL     1       4.503   6.832  17.967  0.00  0.00    +0.000 C 
BRANCH  19  20
ATOM     20  N   UNL     1       5.599   5.892  17.828  0.00  0.00    +0.000 N 
ATOM     21  C   UNL     1       6.036   5.313  16.671  0.00  0.00    +0.000 A 
ATOM     22  C   UNL     1       7.111   4.545  17.048  0.00  0.00    +0.000 A 
ATOM     23  N   UNL     1       7.291   4.587  18.407  0.00  0.00    +0.000 NA
ATOM     24  C   UNL     1       6.353   5.395  18.854  0.00  0.00    +0.000 A 
ENDBRANCH  19  20
ENDBRANCH   1  19
TORSDOF 6
ENDMDL
MODEL 5
REMARK VINA RESULT:      -7.6      2.943      5.183
REMARK  Name = 
REMARK  6 active torsions:
REMARK  status: ('A' for Active; 'I' for Inactive)
REMARK    1  A    between atoms: C_6  and  C_7
REMARK    2  A    between atoms: C_7  and  O_8
REMARK    3  A    between atoms: O_8  and  C_9
REMARK    4  A    between atoms: C_9  and  C_10
REMARK    5  A    between atoms: C_9  and  C_16
REMARK    6  A    between atoms: C_10  and  N_11
REMARK                            x       y       z     vdW  Elec       q    Type
REMARK                         _______ _______ _______ _____ _____    ______ ____
ROOT
ATOM      1  C   UNL     1       3.363   5.747  17.786  0.00  0.00    +0.000 C 
ENDROOT
BRANCH   1   2
ATOM      2  C   UNL     1       2.778   4.831  18.876  0.00  0.00    +0.000 A 
ATOM      3  C   UNL     1       2.576   5.336  20.179  0.00  0.00    +0.000 A 
ATOM      4  C   UNL     1       2.082   4.534  21.213  0.00  0.00    +0.000 A 
ATOM      5  C   UNL     1       1.788   3.199  20.971  0.00  0.00    +0.000 A 
ATOM      6 CL   UNL     1       1.199   2.205  22.244  0.00  0.00    +0.000 Cl
ATOM      7  C   UNL     1       1.956   2.671  19.697  0.00  0.00    +0.000 A 
ATOM      8  C   UNL     1       2.419   3.485  18.652  0.00  0.00    +0.000 A 
ATOM      9 CL   UNL     1       2.485   2.749  17.090  0.00  0.00    +0.000 Cl
ENDBRANCH   1   2
BRANCH   1  10
ATOM     10  O   UNL     1       3.516   7.072  18.337  0.00  0.00    +0.000 OA
BRANCH  10  11
ATOM     11  C   UNL     1       2.888   8.135  17.633  0.00  0.00    +0.000 C 
BRANCH  11  17
ATOM     12 CL   UNL     1      -1.269  11.264  18.139  0.00  0.00    +0.000 Cl
ATOM     13  C   UNL     1      -0.108  10.182  18.810  0.00  0.00    +0.000 A 
ATOM     14  C   UNL     1      -0.151   9.883  20.169  0.00  0.00    +0.000 A 
ATOM     15  C   UNL     1       0.789   9.006  20.708  0.00  0.00    +0.000 A 
ATOM     16  C   UNL     1       1.762   8.432  19.885  0.00  0.00    +0.000 A 
ATOM     17  C   UNL     1       1.812   8.729  18.512  0.00  0.00    +0.000 A 
ATOM     18  C   UNL     1       0.866   9.619  17.983  0.00  0.00    +0.000 A 
ENDBRANCH  11  17
ENDBRANCH  10  11
ENDBRANCH   1  10
BRANCH   1  19
ATOM     19  C   UNL     1       4.696   5.236  17.181  0.00  0.00    +0.000 C 
BRANCH  19  20
ATOM     20  N   UNL     1       5.859   5.516  18.002  0.00  0.00    +0.000 N 
ATOM     21  C   UNL     1       6.919   6.310  17.671  0.00  0.00    +0.000 A 
ATOM     22  C   UNL     1       7.729   6.294  18.780  0.00  0.00    +0.000 A 
ATOM     23  N   UNL     1       7.225   5.457  19.742  0.00  0.00    +0.000 NA
ATOM     24  C   UNL     1       6.104   4.988  19.238  0.00  0.00    +0.000 A 
ENDBRANCH  19  20
ENDBRANCH   1  19
TORSDOF 6
ENDMDL
MODEL 6
REMARK VINA RESULT:      -7.5      1.191      1.552
REMARK  Name = 
REMARK  6 active torsions:
REMARK  status: ('A' for Active; 'I' for Inactive)
REMARK    1  A    between atoms: C_6  and  C_7
REMARK    2  A    between atoms: C_7  and  O_8
REMARK    3  A    between atoms: O_8  and  C_9
REMARK    4  A    between atoms: C_9  and  C_10
REMARK    5  A    between atoms: C_9  and  C_16
REMARK    6  A    between atoms: C_10  and  N_11
REMARK                            x       y       z     vdW  Elec       q    Type
REMARK                         _______ _______ _______ _____ _____    ______ ____
ROOT
ATOM      1  C   UNL     1       4.675   5.274  18.947  0.00  0.00    +0.000 C 
ENDROOT
BRANCH   1   2
ATOM      2  C   UNL     1       5.424   5.252  17.603  0.00  0.00    +0.000 A 
ATOM      3  C   UNL     1       4.693   5.238  16.394  0.00  0.00    +0.000 A 
ATOM      4  C   UNL     1       5.327   5.181  15.149  0.00  0.00    +0.000 A 
ATOM      5  C   UNL     1       6.712   5.125  15.081  0.00  0.00    +0.000 A 
ATOM      6 CL   UNL     1       7.494   5.034  13.552  0.00  0.00    +0.000 Cl
ATOM      7  C   UNL     1       7.467   5.156  16.248  0.00  0.00    +0.000 A 
ATOM      8  C   UNL     1       6.831   5.248  17.495  0.00  0.00    +0.000 A 
ATOM      9 CL   UNL     1       7.872   5.388  18.867  0.00  0.00    +0.000 Cl
ENDBRANCH   1   2
BRANCH   1  10
ATOM     10  O   UNL     1       3.346   5.791  18.721  0.00  0.00    +0.000 OA
BRANCH  10  11
ATOM     11  C   UNL     1       2.671   6.337  19.847  0.00  0.00    +0.000 C 
BRANCH  11  17
ATOM     12 CL   UNL     1      -0.094  10.573  21.160  0.00  0.00    +0.000 Cl
ATOM     13  C   UNL     1       0.817   9.666  20.013  0.00  0.00    +0.000 A 
ATOM     14  C   UNL     1       1.005  10.170  18.729  0.00  0.00    +0.000 A 
ATOM     15  C   UNL     1       1.743   9.434  17.805  0.00  0.00    +0.000 A 
ATOM     16  C   UNL     1       2.292   8.202  18.171  0.00  0.00    +0.000 A 
ATOM     17  C   UNL     1       2.108   7.686  19.466  0.00  0.00    +0.000 A 
ATOM     18  C   UNL     1       1.356   8.432  20.385  0.00  0.00    +0.000 A 
ENDBRANCH  11  17
ENDBRANCH  10  11
ENDBRANCH   1  10
BRANCH   1  19
ATOM     19  C   UNL     1       4.625   3.900  19.664  0.00  0.00    +0.000 C 
BRANCH  19  20
ATOM     20  N   UNL     1       3.512   3.065  19.256  0.00  0.00    +0.000 N 
ATOM     21  C   UNL     1       2.406   2.760  19.998  0.00  0.00    +0.000 A 
ATOM     22  C   UNL     1       1.631   1.986  19.169  0.00  0.00    +0.000 A 
ATOM     23  N   UNL     1       2.269   1.755  17.977  0.00  0.00    +0.000 NA
ATOM     24  C   UNL     1       3.410   2.404  18.065  0.00  0.00    +0.000 A 
ENDBRANCH  19  20
ENDBRANCH   1  19
TORSDOF 6
ENDMDL
MODEL 7
REMARK VINA RESULT:      -7.4      1.026      1.103
REMARK  Name = 
REMARK  6 active torsions:
REMARK  status: ('A' for Active; 'I' for Inactive)
REMARK    1  A    between atoms: C_6  and  C_7
REMARK    2  A    between atoms: C_7  and  O_8
REMARK    3  A    between atoms: O_8  and  C_9
REMARK    4  A    between atoms: C_9  and  C_10
REMARK    5  A    between atoms: C_9  and  C_16
REMARK    6  A    between atoms: C_10  and  N_11
REMARK                            x       y       z     vdW  Elec       q    Type
REMARK                         _______ _______ _______ _____ _____    ______ ____
ROOT
ATOM      1  C   UNL     1       4.647   5.508  18.590  0.00  0.00    +0.000 C 
ENDROOT
BRANCH   1   2
ATOM      2  C   UNL     1       5.251   5.230  17.203  0.00  0.00    +0.000 A 
ATOM      3  C   UNL     1       4.619   4.311  16.336  0.00  0.00    +0.000 A 
ATOM      4  C   UNL     1       5.149   3.997  15.080  0.00  0.00    +0.000 A 
ATOM      5  C   UNL     1       6.334   4.586  14.664  0.00  0.00    +0.000 A 
ATOM      6 CL   UNL     1       7.000   4.186  13.129  0.00  0.00    +0.000 Cl
ATOM      7  C   UNL     1       6.976   5.509  15.481  0.00  0.00    +0.000 A 
ATOM      8  C   UNL     1       6.425   5.850  16.725  0.00  0.00    +0.000 A 
ATOM      9 CL   UNL     1       7.251   7.086  17.606  0.00  0.00    +0.000 Cl
ENDBRANCH   1   2
BRANCH   1  10
ATOM     10  O   UNL     1       3.359   6.135  18.410  0.00  0.00    +0.000 OA
BRANCH  10  11
ATOM     11  C   UNL     1       3.347   7.403  17.768  0.00  0.00    +0.000 C 
BRANCH  11  17
ATOM     12 CL   UNL     1       0.571   8.614  22.028  0.00  0.00    +0.000 Cl
ATOM     13  C   UNL     1       0.974   8.865  20.371  0.00  0.00    +0.000 A 
ATOM     14  C   UNL     1       0.313   9.852  19.645  0.00  0.00    +0.000 A 
ATOM     15  C   UNL     1       0.643  10.053  18.305  0.00  0.00    +0.000 A 
ATOM     16  C   UNL     1       1.633   9.270  17.704  0.00  0.00    +0.000 A 
ATOM     17  C   UNL     1       2.305   8.272  18.431  0.00  0.00    +0.000 A 
ATOM     18  C   UNL     1       1.958   8.073  19.775  0.00  0.00    +0.000 A 
ENDBRANCH  11  17
ENDBRANCH  10  11
ENDBRANCH   1  10
BRANCH   1  19
ATOM     19  C   UNL     1       4.536   4.253  19.494  0.00  0.00    +0.000 C 
BRANCH  19  20
ATOM     20  N   UNL     1       3.172   3.882  19.817  0.00  0.00    +0.000 N 
ATOM     21  C   UNL     1       2.354   3.068  19.087  0.00  0.00    +0.000 A 
ATOM     22  C   UNL     1       1.194   2.988  19.820  0.00  0.00    +0.000 A 
ATOM     23  N   UNL     1       1.263   3.787  20.933  0.00  0.00    +0.000 NA
ATOM     24  C   UNL     1       2.462   4.327  20.896  0.00  0.00    +0.000 A 
ENDBRANCH  19  20
ENDBRANCH   1  19
TORSDOF 6
ENDMDL
MODEL 8
REMARK VINA RESULT:      -7.4      1.583      1.982
REMARK  Name = 
REMARK  6 active torsions:
REMARK  status: ('A' for Active; 'I' for Inactive)
REMARK    1  A    between atoms: C_6  and  C_7
REMARK    2  A    between atoms: C_7  and  O_8
REMARK    3  A    between atoms: O_8  and  C_9
REMARK    4  A    between atoms: C_9  and  C_10
REMARK    5  A    between atoms: C_9  and  C_16
REMARK    6  A    between atoms: C_10  and  N_11
REMARK                            x       y       z     vdW  Elec       q    Type
REMARK                         _______ _______ _______ _____ _____    ______ ____
ROOT
ATOM      1  C   UNL     1       3.448   5.738  18.616  0.00  0.00    +0.000 C 
ENDROOT
BRANCH   1   2
ATOM      2  C   UNL     1       4.276   5.321  17.387  0.00  0.00    +0.000 A 
ATOM      3  C   UNL     1       4.750   6.308  16.495  0.00  0.00    +0.000 A 
ATOM      4  C   UNL     1       5.475   5.977  15.345  0.00  0.00    +0.000 A 
ATOM      5  C   UNL     1       5.734   4.646  15.052  0.00  0.00    +0.000 A 
ATOM      6 CL   UNL     1       6.607   4.234  13.629  0.00  0.00    +0.000 Cl
ATOM      7  C   UNL     1       5.300   3.647  15.915  0.00  0.00    +0.000 A 
ATOM      8  C   UNL     1       4.603   3.982  17.086  0.00  0.00    +0.000 A 
ATOM      9 CL   UNL     1       4.209   2.666  18.135  0.00  0.00    +0.000 Cl
ENDBRANCH   1   2
BRANCH   1  10
ATOM     10  O   UNL     1       3.333   7.177  18.622  0.00  0.00    +0.000 OA
BRANCH  10  11
ATOM     11  C   UNL     1       2.171   7.730  18.018  0.00  0.00    +0.000 C 
BRANCH  11  17
ATOM     12 CL   UNL     1       0.629   9.272  22.768  0.00  0.00    +0.000 Cl
ATOM     13  C   UNL     1       0.883   9.583  21.092  0.00  0.00    +0.000 A 
ATOM     14  C   UNL     1       0.561  10.832  20.568  0.00  0.00    +0.000 A 
ATOM     15  C   UNL     1       0.770  11.081  19.212  0.00  0.00    +0.000 A 
ATOM     16  C   UNL     1       1.303  10.082  18.392  0.00  0.00    +0.000 A 
ATOM     17  C   UNL     1       1.631   8.819  18.915  0.00  0.00    +0.000 A 
ATOM     18  C   UNL     1       1.408   8.578  20.278  0.00  0.00    +0.000 A 
ENDBRANCH  11  17
ENDBRANCH  10  11
ENDBRANCH   1  10
BRANCH   1  19
ATOM     19  C   UNL     1       2.053   5.065  18.694  0.00  0.00    +0.000 C 
BRANCH  19  20
ATOM     20  N   UNL     1       1.868   4.234  19.868  0.00  0.00    +0.000 N 
ATOM     21  C   UNL     1       1.050   3.146  19.976  0.00  0.00    +0.000 A 
ATOM     22  C   UNL     1       1.255   2.678  21.252  0.00  0.00    +0.000 A 
ATOM     23  N   UNL     1       2.118   3.493  21.939  0.00  0.00    +0.000 NA
ATOM     24  C   UNL     1       2.458   4.434  21.084  0.00  0.00    +0.000 A 
ENDBRANCH  19  20
ENDBRANCH   1  19
TORSDOF 6
ENDMDL
MODEL 9
REMARK VINA RESULT:      -7.4      2.902      5.455
REMARK  Name = 
REMARK  6 active torsions:
REMARK  status: ('A' for Active; 'I' for Inactive)
REMARK    1  A    between atoms: C_6  and  C_7
REMARK    2  A    between atoms: C_7  and  O_8
REMARK    3  A    between atoms: O_8  and  C_9
REMARK    4  A    between atoms: C_9  and  C_10
REMARK    5  A    between atoms: C_9  and  C_16
REMARK    6  A    between atoms: C_10  and  N_11
REMARK                            x       y       z     vdW  Elec       q    Type
REMARK                         _______ _______ _______ _____ _____    ______ ____
ROOT
ATOM      1  C   UNL     1       3.184   5.741  17.754  0.00  0.00    +0.000 C 
ENDROOT
BRANCH   1   2
ATOM      2  C   UNL     1       2.697   4.785  18.858  0.00  0.00    +0.000 A 
ATOM      3  C   UNL     1       2.033   5.304  19.991  0.00  0.00    +0.000 A 
ATOM      4  C   UNL     1       1.604   4.481  21.037  0.00  0.00    +0.000 A 
ATOM      5  C   UNL     1       1.841   3.115  20.982  0.00  0.00    +0.000 A 
ATOM      6 CL   UNL     1       1.334   2.102  22.276  0.00  0.00    +0.000 Cl
ATOM      7  C   UNL     1       2.476   2.564  19.875  0.00  0.00    +0.000 A 
ATOM      8  C   UNL     1       2.874   3.386  18.810  0.00  0.00    +0.000 A 
ATOM      9 CL   UNL     1       3.554   2.577  17.442  0.00  0.00    +0.000 Cl
ENDBRANCH   1   2
BRANCH   1  10
ATOM     10  O   UNL     1       2.220   6.807  17.615  0.00  0.00    +0.000 OA
BRANCH  10  11
ATOM     11  C   UNL     1       2.679   8.125  17.886  0.00  0.00    +0.000 C 
BRANCH  11  17
ATOM     12 CL   UNL     1      -1.301  11.508  18.073  0.00  0.00    +0.000 Cl
ATOM     13  C   UNL     1      -0.209  10.423  18.848  0.00  0.00    +0.000 A 
ATOM     14  C   UNL     1      -0.283  10.239  20.226  0.00  0.00    +0.000 A 
ATOM     15  C   UNL     1       0.601   9.359  20.848  0.00  0.00    +0.000 A 
ATOM     16  C   UNL     1       1.549   8.667  20.089  0.00  0.00    +0.000 A 
ATOM     17  C   UNL     1       1.629   8.847  18.697  0.00  0.00    +0.000 A 
ATOM     18  C   UNL     1       0.741   9.741  18.083  0.00  0.00    +0.000 A 
ENDBRANCH  11  17
ENDBRANCH  10  11
ENDBRANCH   1  10
BRANCH   1  19
ATOM     19  C   UNL     1       4.610   6.304  17.990  0.00  0.00    +0.000 C 
BRANCH  19  20
ATOM     20  N   UNL     1       5.566   5.927  16.966  0.00  0.00    +0.000 N 
ATOM     21  C   UNL     1       5.317   5.173  15.855  0.00  0.00    +0.000 A 
ATOM     22  C   UNL     1       6.514   5.132  15.183  0.00  0.00    +0.000 A 
ATOM     23  N   UNL     1       7.495   5.777  15.892  0.00  0.00    +0.000 NA
ATOM     24  C   UNL     1       6.897   6.232  16.972  0.00  0.00    +0.000 A 
ENDBRANCH  19  20
ENDBRANCH   1  19
TORSDOF 6
ENDMDL
