MODEL 1
REMARK VINA RESULT:      -7.8      0.000      0.000
REMARK  Name = 
REMARK  9 active torsions:
REMARK  status: ('A' for Active; 'I' for Inactive)
REMARK    1  A    between atoms: C_1  and  O_2
REMARK    2  A    between atoms: O_2  and  C_3
REMARK    3  A    between atoms: C_6  and  N_7
REMARK    4  A    between atoms: N_10  and  C_11
REMARK    5  A    between atoms: N_14  and  C_15
REMARK    6  A    between atoms: C_15  and  C_16
REMARK    7  A    between atoms: C_16  and  C_17
REMARK    8  A    between atoms: C_17  and  C_18
REMARK    9  A    between atoms: C_18  and  C_20
REMARK                            x       y       z     vdW  Elec       q    Type
REMARK                         _______ _______ _______ _____ _____    ______ ____
ROOT
ATOM      1  C   UNL     1       2.172   4.143  20.139  0.00  0.00    +0.000 C 
ATOM      2  C   UNL     1       3.388   3.225  20.282  0.00  0.00    +0.000 C 
ATOM      3  C   UNL     1       4.343   3.352  19.100  0.00  0.00    +0.000 C 
ATOM      4  N   UNL     1       3.651   3.124  17.821  0.00  0.00    +0.000 NA
ATOM      5  C   UNL     1       2.549   4.079  17.635  0.00  0.00    +0.000 C 
ATOM      6  C   UNL     1       1.530   3.983  18.766  0.00  0.00    +0.000 C 
ENDROOT
BRANCH   1  10
ATOM      7  N   UNL     1       1.895   7.678  21.026  0.00  0.00    +0.000 N 
ATOM      8  C   UNL     1       1.468   6.397  20.761  0.00  0.00    +0.000 C 
ATOM      9  O   UNL     1       0.304   6.009  20.759  0.00  0.00    +0.000 OA
ATOM     10  N   UNL     1       2.498   5.539  20.437  0.00  0.00    +0.000 N 
ATOM     11  H   UNL     1       2.890   7.840  21.047  0.00  0.00    +0.000 HD
ATOM     12  H   UNL     1       3.417   5.754  20.792  0.00  0.00    +0.000 HD
BRANCH   7  16
ATOM     13  C   UNL     1      -0.678  11.004  21.545  0.00  0.00    +0.000 A 
ATOM     14  C   UNL     1      -0.269  10.265  22.648  0.00  0.00    +0.000 A 
ATOM     15  C   UNL     1       0.595   9.180  22.495  0.00  0.00    +0.000 A 
ATOM     16  C   UNL     1       1.057   8.799  21.232  0.00  0.00    +0.000 A 
ATOM     17  C   UNL     1       0.639   9.541  20.123  0.00  0.00    +0.000 A 
ATOM     18  C   UNL     1      -0.223  10.642  20.278  0.00  0.00    +0.000 A 
BRANCH  13  20
ATOM     19  C   UNL     1      -2.177  11.956  23.102  0.00  0.00    +0.000 C 
ATOM     20  O   UNL     1      -1.552  12.014  21.829  0.00  0.00    +0.000 OA
ENDBRANCH  13  20
ENDBRANCH   7  16
ENDBRANCH   1  10
BRANCH   4  21
ATOM     21  C   UNL     1       4.575   3.192  16.676  0.00  0.00    +0.000 C 
BRANCH  21  22
ATOM     22  C   UNL     1       4.714   4.592  16.067  0.00  0.00    +0.000 C 
BRANCH  22  23
ATOM     23  C   UNL     1       5.560   4.599  14.793  0.00  0.00    +0.000 C 
BRANCH  23  24
ATOM     24  C   UNL     1       6.924   5.215  15.038  0.00  0.00    +0.000 C 
ATOM     25  O   UNL     1       7.752   5.374  14.143  0.00  0.00    +0.000 OA
BRANCH  24  26
ATOM     26  C   UNL     1       7.286   5.592  16.433  0.00  0.00    +0.000 A 
ATOM     27  C   UNL     1       7.573   4.565  17.339  0.00  0.00    +0.000 A 
ATOM     28  C   UNL     1       7.903   4.865  18.661  0.00  0.00    +0.000 A 
ATOM     29  C   UNL     1       7.960   6.194  19.079  0.00  0.00    +0.000 A 
ATOM     30  C   UNL     1       7.688   7.222  18.177  0.00  0.00    +0.000 A 
ATOM     31  C   UNL     1       7.348   6.925  16.855  0.00  0.00    +0.000 A 
ENDBRANCH  24  26
ENDBRANCH  23  24
ENDBRANCH  22  23
ENDBRANCH  21  22
ENDBRANCH   4  21
TORSDOF 8
ENDMDL
MODEL 2
REMARK VINA RESULT:      -7.7      2.090      2.674
REMARK  Name = 
REMARK  9 active torsions:
REMARK  status: ('A' for Active; 'I' for Inactive)
REMARK    1  A    between atoms: C_1  and  O_2
REMARK    2  A    between atoms: O_2  and  C_3
REMARK    3  A    between atoms: C_6  and  N_7
REMARK    4  A    between atoms: N_10  and  C_11
REMARK    5  A    between atoms: N_14  and  C_15
REMARK    6  A    between atoms: C_15  and  C_16
REMARK    7  A    between atoms: C_16  and  C_17
REMARK    8  A    between atoms: C_17  and  C_18
REMARK    9  A    between atoms: C_18  and  C_20
REMARK                            x       y       z     vdW  Elec       q    Type
REMARK                         _______ _______ _______ _____ _____    ______ ____
ROOT
ATOM      1  C   UNL     1       2.457   6.143  19.396  0.00  0.00    +0.000 C 
ATOM      2  C   UNL     1       3.927   5.774  19.600  0.00  0.00    +0.000 C 
ATOM      3  C   UNL     1       4.513   5.063  18.386  0.00  0.00    +0.000 C 
ATOM      4  N   UNL     1       3.715   3.884  18.014  0.00  0.00    +0.000 NA
ATOM      5  C   UNL     1       2.325   4.256  17.712  0.00  0.00    +0.000 C 
ATOM      6  C   UNL     1       1.659   4.942  18.899  0.00  0.00    +0.000 C 
ENDROOT
BRANCH   1  10
ATOM      7  N   UNL     1       1.719   9.505  18.166  0.00  0.00    +0.000 N 
ATOM      8  C   UNL     1       1.820   8.480  19.077  0.00  0.00    +0.000 C 
ATOM      9  O   UNL     1       1.499   8.529  20.261  0.00  0.00    +0.000 OA
ATOM     10  N   UNL     1       2.297   7.309  18.525  0.00  0.00    +0.000 N 
ATOM     11  H   UNL     1       2.075   9.337  17.237  0.00  0.00    +0.000 HD
ATOM     12  H   UNL     1       2.880   7.382  17.705  0.00  0.00    +0.000 HD
BRANCH   7  16
ATOM     13  C   UNL     1      -0.151  13.222  18.965  0.00  0.00    +0.000 A 
ATOM     14  C   UNL     1       1.230  13.154  18.841  0.00  0.00    +0.000 A 
ATOM     15  C   UNL     1       1.859  11.941  18.556  0.00  0.00    +0.000 A 
ATOM     16  C   UNL     1       1.120  10.764  18.407  0.00  0.00    +0.000 A 
ATOM     17  C   UNL     1      -0.270  10.835  18.537  0.00  0.00    +0.000 A 
ATOM     18  C   UNL     1      -0.905  12.060  18.813  0.00  0.00    +0.000 A 
BRANCH  13  20
ATOM     19  C   UNL     1       0.274  15.540  19.125  0.00  0.00    +0.000 C 
ATOM     20  O   UNL     1      -0.634  14.460  19.281  0.00  0.00    +0.000 OA
ENDBRANCH  13  20
ENDBRANCH   7  16
ENDBRANCH   1  10
BRANCH   4  21
ATOM     21  C   UNL     1       4.301   3.160  16.874  0.00  0.00    +0.000 C 
BRANCH  21  22
ATOM     22  C   UNL     1       4.737   4.064  15.716  0.00  0.00    +0.000 C 
BRANCH  22  23
ATOM     23  C   UNL     1       6.124   3.707  15.179  0.00  0.00    +0.000 C 
BRANCH  23  24
ATOM     24  C   UNL     1       7.068   4.891  15.251  0.00  0.00    +0.000 C 
ATOM     25  O   UNL     1       7.590   5.388  14.255  0.00  0.00    +0.000 OA
BRANCH  24  26
ATOM     26  C   UNL     1       7.412   5.435  16.595  0.00  0.00    +0.000 A 
ATOM     27  C   UNL     1       7.401   6.824  16.766  0.00  0.00    +0.000 A 
ATOM     28  C   UNL     1       7.730   7.384  18.000  0.00  0.00    +0.000 A 
ATOM     29  C   UNL     1       8.058   6.557  19.073  0.00  0.00    +0.000 A 
ATOM     30  C   UNL     1       8.057   5.172  18.914  0.00  0.00    +0.000 A 
ATOM     31  C   UNL     1       7.737   4.607  17.676  0.00  0.00    +0.000 A 
ENDBRANCH  24  26
ENDBRANCH  23  24
ENDBRANCH  22  23
ENDBRANCH  21  22
ENDBRANCH   4  21
TORSDOF 8
ENDMDL
MODEL 3
REMARK VINA RESULT:      -7.7      1.678      2.138
REMARK  Name = 
REMARK  9 active torsions:
REMARK  status: ('A' for Active; 'I' for Inactive)
REMARK    1  A    between atoms: C_1  and  O_2
REMARK    2  A    between atoms: O_2  and  C_3
REMARK    3  A    between atoms: C_6  and  N_7
REMARK    4  A    between atoms: N_10  and  C_11
REMARK    5  A    between atoms: N_14  and  C_15
REMARK    6  A    between atoms: C_15  and  C_16
REMARK    7  A    between atoms: C_16  and  C_17
REMARK    8  A    between atoms: C_17  and  C_18
REMARK    9  A    between atoms: C_18  and  C_20
REMARK                            x       y       z     vdW  Elec       q    Type
REMARK                         _______ _______ _______ _____ _____    ______ ____
ROOT
ATOM      1  C   UNL     1       2.513   6.069  19.780  0.00  0.00    +0.000 C 
ATOM      2  C   UNL     1       4.004   5.741  19.685  0.00  0.00    +0.000 C 
ATOM      3  C   UNL     1       4.376   5.154  18.328  0.00  0.00    +0.000 C 
ATOM      4  N   UNL     1       3.550   3.979  18.004  0.00  0.00    +0.000 NA
ATOM      5  C   UNL     1       2.121   4.322  17.989  0.00  0.00    +0.000 C 
ATOM      6  C   UNL     1       1.666   4.883  19.332  0.00  0.00    +0.000 C 
ENDROOT
BRANCH   1  10
ATOM      7  N   UNL     1       1.269   9.407  18.964  0.00  0.00    +0.000 N 
ATOM      8  C   UNL     1       1.532   8.306  19.744  0.00  0.00    +0.000 C 
ATOM      9  O   UNL     1       1.221   8.163  20.923  0.00  0.00    +0.000 OA
ATOM     10  N   UNL     1       2.172   7.295  19.056  0.00  0.00    +0.000 N 
ATOM     11  H   UNL     1       1.635   9.408  18.024  0.00  0.00    +0.000 HD
ATOM     12  H   UNL     1       2.728   7.553  18.255  0.00  0.00    +0.000 HD
BRANCH   7  16
ATOM     13  C   UNL     1      -0.979  12.824  20.070  0.00  0.00    +0.000 A 
ATOM     14  C   UNL     1      -1.632  11.666  19.668  0.00  0.00    +0.000 A 
ATOM     15  C   UNL     1      -0.905  10.526  19.321  0.00  0.00    +0.000 A 
ATOM     16  C   UNL     1       0.492  10.524  19.352  0.00  0.00    +0.000 A 
ATOM     17  C   UNL     1       1.146  11.693  19.753  0.00  0.00    +0.000 A 
ATOM     18  C   UNL     1       0.414  12.840  20.114  0.00  0.00    +0.000 A 
BRANCH  13  20
ATOM     19  C   UNL     1      -1.333  14.800  21.315  0.00  0.00    +0.000 C 
ATOM     20  O   UNL     1      -1.805  13.876  20.345  0.00  0.00    +0.000 OA
ENDBRANCH  13  20
ENDBRANCH   7  16
ENDBRANCH   1  10
BRANCH   4  21
ATOM     21  C   UNL     1       3.936   3.373  16.718  0.00  0.00    +0.000 C 
BRANCH  21  22
ATOM     22  C   UNL     1       4.588   4.352  15.736  0.00  0.00    +0.000 C 
BRANCH  22  23
ATOM     23  C   UNL     1       5.909   3.827  15.171  0.00  0.00    +0.000 C 
BRANCH  23  24
ATOM     24  C   UNL     1       7.000   4.877  15.243  0.00  0.00    +0.000 C 
ATOM     25  O   UNL     1       7.626   5.256  14.255  0.00  0.00    +0.000 OA
BRANCH  24  26
ATOM     26  C   UNL     1       7.355   5.432  16.580  0.00  0.00    +0.000 A 
ATOM     27  C   UNL     1       7.355   6.822  16.738  0.00  0.00    +0.000 A 
ATOM     28  C   UNL     1       7.695   7.391  17.966  0.00  0.00    +0.000 A 
ATOM     29  C   UNL     1       8.025   6.571  19.044  0.00  0.00    +0.000 A 
ATOM     30  C   UNL     1       8.013   5.184  18.897  0.00  0.00    +0.000 A 
ATOM     31  C   UNL     1       7.682   4.611  17.667  0.00  0.00    +0.000 A 
ENDBRANCH  24  26
ENDBRANCH  23  24
ENDBRANCH  22  23
ENDBRANCH  21  22
ENDBRANCH   4  21
TORSDOF 8
ENDMDL
MODEL 4
REMARK VINA RESULT:      -7.6      4.295      7.817
REMARK  Name = 
REMARK  9 active torsions:
REMARK  status: ('A' for Active; 'I' for Inactive)
REMARK    1  A    between atoms: C_1  and  O_2
REMARK    2  A    between atoms: O_2  and  C_3
REMARK    3  A    between atoms: C_6  and  N_7
REMARK    4  A    between atoms: N_10  and  C_11
REMARK    5  A    between atoms: N_14  and  C_15
REMARK    6  A    between atoms: C_15  and  C_16
REMARK    7  A    between atoms: C_16  and  C_17
REMARK    8  A    between atoms: C_17  and  C_18
REMARK    9  A    between atoms: C_18  and  C_20
REMARK                            x       y       z     vdW  Elec       q    Type
REMARK                         _______ _______ _______ _____ _____    ______ ____
ROOT
ATOM      1  C   UNL     1       6.994   6.652  17.104  0.00  0.00    +0.000 C 
ATOM      2  C   UNL     1       5.539   6.780  17.558  0.00  0.00    +0.000 C 
ATOM      3  C   UNL     1       5.187   5.772  18.646  0.00  0.00    +0.000 C 
ATOM      4  N   UNL     1       5.496   4.396  18.225  0.00  0.00    +0.000 NA
ATOM      5  C   UNL     1       6.920   4.247  17.893  0.00  0.00    +0.000 C 
ATOM      6  C   UNL     1       7.337   5.203  16.781  0.00  0.00    +0.000 C 
ENDROOT
BRANCH   1  10
ATOM      7  N   UNL     1       8.978   9.040  19.035  0.00  0.00    +0.000 N 
ATOM      8  C   UNL     1       8.085   8.607  18.082  0.00  0.00    +0.000 C 
ATOM      9  O   UNL     1       7.490   9.314  17.274  0.00  0.00    +0.000 OA
ATOM     10  N   UNL     1       7.926   7.237  18.071  0.00  0.00    +0.000 N 
ATOM     11  H   UNL     1       9.349   8.349  19.670  0.00  0.00    +0.000 HD
ATOM     12  H   UNL     1       8.108   6.737  18.928  0.00  0.00    +0.000 HD
BRANCH   7  16
ATOM     13  C   UNL     1      10.448  12.978  19.562  0.00  0.00    +0.000 A 
ATOM     14  C   UNL     1      10.583  12.347  18.333  0.00  0.00    +0.000 A 
ATOM     15  C   UNL     1      10.084  11.059  18.138  0.00  0.00    +0.000 A 
ATOM     16  C   UNL     1       9.455  10.364  19.174  0.00  0.00    +0.000 A 
ATOM     17  C   UNL     1       9.325  11.000  20.413  0.00  0.00    +0.000 A 
ATOM     18  C   UNL     1       9.818  12.304  20.607  0.00  0.00    +0.000 A 
BRANCH  13  20
ATOM     19  C   UNL     1      10.822  14.923  20.849  0.00  0.00    +0.000 C 
ATOM     20  O   UNL     1      11.012  14.220  19.630  0.00  0.00    +0.000 OA
ENDBRANCH  13  20
ENDBRANCH   7  16
ENDBRANCH   1  10
BRANCH   4  21
ATOM     21  C   UNL     1       5.111   3.409  19.249  0.00  0.00    +0.000 C 
BRANCH  21  22
ATOM     22  C   UNL     1       3.935   2.514  18.844  0.00  0.00    +0.000 C 
BRANCH  22  23
ATOM     23  C   UNL     1       2.817   2.503  19.889  0.00  0.00    +0.000 C 
BRANCH  23  24
ATOM     24  C   UNL     1       1.622   3.316  19.431  0.00  0.00    +0.000 C 
ATOM     25  O   UNL     1       0.551   2.803  19.116  0.00  0.00    +0.000 OA
BRANCH  24  26
ATOM     26  C   UNL     1       1.780   4.793  19.312  0.00  0.00    +0.000 A 
ATOM     27  C   UNL     1       1.861   5.544  20.490  0.00  0.00    +0.000 A 
ATOM     28  C   UNL     1       1.995   6.931  20.432  0.00  0.00    +0.000 A 
ATOM     29  C   UNL     1       2.061   7.572  19.196  0.00  0.00    +0.000 A 
ATOM     30  C   UNL     1       1.995   6.828  18.018  0.00  0.00    +0.000 A 
ATOM     31  C   UNL     1       1.852   5.439  18.072  0.00  0.00    +0.000 A 
ENDBRANCH  24  26
ENDBRANCH  23  24
ENDBRANCH  22  23
ENDBRANCH  21  22
ENDBRANCH   4  21
TORSDOF 8
ENDMDL
MODEL 5
REMARK VINA RESULT:      -7.5      4.337      7.817
REMARK  Name = 
REMARK  9 active torsions:
REMARK  status: ('A' for Active; 'I' for Inactive)
REMARK    1  A    between atoms: C_1  and  O_2
REMARK    2  A    between atoms: O_2  and  C_3
REMARK    3  A    between atoms: C_6  and  N_7
REMARK    4  A    between atoms: N_10  and  C_11
REMARK    5  A    between atoms: N_14  and  C_15
REMARK    6  A    between atoms: C_15  and  C_16
REMARK    7  A    between atoms: C_16  and  C_17
REMARK    8  A    between atoms: C_17  and  C_18
REMARK    9  A    between atoms: C_18  and  C_20
REMARK                            x       y       z     vdW  Elec       q    Type
REMARK                         _______ _______ _______ _____ _____    ______ ____
ROOT
ATOM      1  C   UNL     1       7.114   6.771  17.033  0.00  0.00    +0.000 C 
ATOM      2  C   UNL     1       5.626   6.952  17.337  0.00  0.00    +0.000 C 
ATOM      3  C   UNL     1       5.128   5.954  18.376  0.00  0.00    +0.000 C 
ATOM      4  N   UNL     1       5.426   4.568  17.978  0.00  0.00    +0.000 NA
ATOM      5  C   UNL     1       6.870   4.367  17.792  0.00  0.00    +0.000 C 
ATOM      6  C   UNL     1       7.434   5.310  16.735  0.00  0.00    +0.000 C 
ENDROOT
BRANCH   1  10
ATOM      7  N   UNL     1       8.993   9.072  19.162  0.00  0.00    +0.000 N 
ATOM      8  C   UNL     1       8.187   8.677  18.120  0.00  0.00    +0.000 C 
ATOM      9  O   UNL     1       7.718   9.406  17.251  0.00  0.00    +0.000 OA
ATOM     10  N   UNL     1       7.963   7.316  18.094  0.00  0.00    +0.000 N 
ATOM     11  H   UNL     1       9.259   8.369  19.835  0.00  0.00    +0.000 HD
ATOM     12  H   UNL     1       8.027   6.814  18.966  0.00  0.00    +0.000 HD
BRANCH   7  16
ATOM     13  C   UNL     1      10.606  12.932  19.831  0.00  0.00    +0.000 A 
ATOM     14  C   UNL     1      10.649  12.374  18.560  0.00  0.00    +0.000 A 
ATOM     15  C   UNL     1      10.102  11.113  18.320  0.00  0.00    +0.000 A 
ATOM     16  C   UNL     1       9.516  10.373  19.351  0.00  0.00    +0.000 A 
ATOM     17  C   UNL     1       9.479  10.935  20.630  0.00  0.00    +0.000 A 
ATOM     18  C   UNL     1      10.021  12.212  20.871  0.00  0.00    +0.000 A 
BRANCH  13  20
ATOM     19  C   UNL     1      10.606  15.067  20.841  0.00  0.00    +0.000 C 
ATOM     20  O   UNL     1      11.210  14.153  19.938  0.00  0.00    +0.000 OA
ENDBRANCH  13  20
ENDBRANCH   7  16
ENDBRANCH   1  10
BRANCH   4  21
ATOM     21  C   UNL     1       4.902   3.593  18.951  0.00  0.00    +0.000 C 
BRANCH  21  22
ATOM     22  C   UNL     1       3.862   2.629  18.371  0.00  0.00    +0.000 C 
BRANCH  22  23
ATOM     23  C   UNL     1       2.597   3.346  17.893  0.00  0.00    +0.000 C 
BRANCH  23  24
ATOM     24  C   UNL     1       1.834   3.954  19.053  0.00  0.00    +0.000 C 
ATOM     25  O   UNL     1       1.169   3.282  19.837  0.00  0.00    +0.000 OA
BRANCH  24  26
ATOM     26  C   UNL     1       1.855   5.436  19.209  0.00  0.00    +0.000 A 
ATOM     27  C   UNL     1       1.979   6.219  18.055  0.00  0.00    +0.000 A 
ATOM     28  C   UNL     1       2.019   7.610  18.149  0.00  0.00    +0.000 A 
ATOM     29  C   UNL     1       1.922   8.225  19.396  0.00  0.00    +0.000 A 
ATOM     30  C   UNL     1       1.785   7.452  20.549  0.00  0.00    +0.000 A 
ATOM     31  C   UNL     1       1.754   6.058  20.459  0.00  0.00    +0.000 A 
ENDBRANCH  24  26
ENDBRANCH  23  24
ENDBRANCH  22  23
ENDBRANCH  21  22
ENDBRANCH   4  21
TORSDOF 8
ENDMDL
MODEL 6
REMARK VINA RESULT:      -7.4      1.828      2.081
REMARK  Name = 
REMARK  9 active torsions:
REMARK  status: ('A' for Active; 'I' for Inactive)
REMARK    1  A    between atoms: C_1  and  O_2
REMARK    2  A    between atoms: O_2  and  C_3
REMARK    3  A    between atoms: C_6  and  N_7
REMARK    4  A    between atoms: N_10  and  C_11
REMARK    5  A    between atoms: N_14  and  C_15
REMARK    6  A    between atoms: C_15  and  C_16
REMARK    7  A    between atoms: C_16  and  C_17
REMARK    8  A    between atoms: C_17  and  C_18
REMARK    9  A    between atoms: C_18  and  C_20
REMARK                            x       y       z     vdW  Elec       q    Type
REMARK                         _______ _______ _______ _____ _____    ______ ____
ROOT
ATOM      1  C   UNL     1       1.616   5.015  20.987  0.00  0.00    +0.000 C 
ATOM      2  C   UNL     1       2.834   4.170  21.365  0.00  0.00    +0.000 C 
ATOM      3  C   UNL     1       3.505   3.555  20.143  0.00  0.00    +0.000 C 
ATOM      4  N   UNL     1       2.548   2.780  19.336  0.00  0.00    +0.000 NA
ATOM      5  C   UNL     1       1.432   3.621  18.881  0.00  0.00    +0.000 C 
ATOM      6  C   UNL     1       0.687   4.243  20.057  0.00  0.00    +0.000 C 
ENDROOT
BRANCH   1  10
ATOM      7  N   UNL     1       1.640   8.562  20.106  0.00  0.00    +0.000 N 
ATOM      8  C   UNL     1       1.177   7.397  20.671  0.00  0.00    +0.000 C 
ATOM      9  O   UNL     1       0.131   7.264  21.300  0.00  0.00    +0.000 OA
ATOM     10  N   UNL     1       1.998   6.315  20.432  0.00  0.00    +0.000 N 
ATOM     11  H   UNL     1       2.547   8.535  19.665  0.00  0.00    +0.000 HD
ATOM     12  H   UNL     1       2.975   6.497  20.260  0.00  0.00    +0.000 HD
BRANCH   7  16
ATOM     13  C   UNL     1      -0.553  12.180  19.880  0.00  0.00    +0.000 A 
ATOM     14  C   UNL     1       0.038  11.802  21.079  0.00  0.00    +0.000 A 
ATOM     15  C   UNL     1       0.782  10.624  21.163  0.00  0.00    +0.000 A 
ATOM     16  C   UNL     1       0.936   9.788  20.054  0.00  0.00    +0.000 A 
ATOM     17  C   UNL     1       0.335  10.169  18.850  0.00  0.00    +0.000 A 
ATOM     18  C   UNL     1      -0.405  11.363  18.762  0.00  0.00    +0.000 A 
BRANCH  13  20
ATOM     19  C   UNL     1      -1.027  14.169  21.063  0.00  0.00    +0.000 C 
ATOM     20  O   UNL     1      -1.282  13.333  19.944  0.00  0.00    +0.000 OA
ENDBRANCH  13  20
ENDBRANCH   7  16
ENDBRANCH   1  10
BRANCH   4  21
ATOM     21  C   UNL     1       3.198   2.137  18.180  0.00  0.00    +0.000 C 
BRANCH  21  22
ATOM     22  C   UNL     1       3.226   3.004  16.917  0.00  0.00    +0.000 C 
BRANCH  22  23
ATOM     23  C   UNL     1       4.551   3.748  16.743  0.00  0.00    +0.000 C 
BRANCH  23  24
ATOM     24  C   UNL     1       4.482   5.147  17.323  0.00  0.00    +0.000 C 
ATOM     25  O   UNL     1       3.427   5.770  17.432  0.00  0.00    +0.000 OA
BRANCH  24  26
ATOM     26  C   UNL     1       5.756   5.806  17.727  0.00  0.00    +0.000 A 
ATOM     27  C   UNL     1       6.495   5.230  18.766  0.00  0.00    +0.000 A 
ATOM     28  C   UNL     1       7.687   5.816  19.191  0.00  0.00    +0.000 A 
ATOM     29  C   UNL     1       8.151   6.975  18.570  0.00  0.00    +0.000 A 
ATOM     30  C   UNL     1       7.427   7.547  17.525  0.00  0.00    +0.000 A 
ATOM     31  C   UNL     1       6.228   6.967  17.102  0.00  0.00    +0.000 A 
ENDBRANCH  24  26
ENDBRANCH  23  24
ENDBRANCH  22  23
ENDBRANCH  21  22
ENDBRANCH   4  21
TORSDOF 8
ENDMDL
MODEL 7
REMARK VINA RESULT:      -7.4      1.710      3.348
REMARK  Name = 
REMARK  9 active torsions:
REMARK  status: ('A' for Active; 'I' for Inactive)
REMARK    1  A    between atoms: C_1  and  O_2
REMARK    2  A    between atoms: O_2  and  C_3
REMARK    3  A    between atoms: C_6  and  N_7
REMARK    4  A    between atoms: N_10  and  C_11
REMARK    5  A    between atoms: N_14  and  C_15
REMARK    6  A    between atoms: C_15  and  C_16
REMARK    7  A    between atoms: C_16  and  C_17
REMARK    8  A    between atoms: C_17  and  C_18
REMARK    9  A    between atoms: C_18  and  C_20
REMARK                            x       y       z     vdW  Elec       q    Type
REMARK                         _______ _______ _______ _____ _____    ______ ____
ROOT
ATOM      1  C   UNL     1       2.892   4.322  19.774  0.00  0.00    +0.000 C 
ATOM      2  C   UNL     1       4.277   3.679  19.874  0.00  0.00    +0.000 C 
ATOM      3  C   UNL     1       5.060   3.799  18.572  0.00  0.00    +0.000 C 
ATOM      4  N   UNL     1       4.301   3.254  17.435  0.00  0.00    +0.000 NA
ATOM      5  C   UNL     1       3.015   3.948  17.272  0.00  0.00    +0.000 C 
ATOM      6  C   UNL     1       2.158   3.839  18.528  0.00  0.00    +0.000 C 
ENDROOT
BRANCH   1  10
ATOM      7  N   UNL     1       2.107   7.820  20.486  0.00  0.00    +0.000 N 
ATOM      8  C   UNL     1       1.933   6.456  20.477  0.00  0.00    +0.000 C 
ATOM      9  O   UNL     1       0.972   5.846  20.936  0.00  0.00    +0.000 OA
ATOM     10  N   UNL     1       2.957   5.784  19.843  0.00  0.00    +0.000 N 
ATOM     11  H   UNL     1       2.976   8.180  20.122  0.00  0.00    +0.000 HD
ATOM     12  H   UNL     1       3.863   6.227  19.815  0.00  0.00    +0.000 HD
BRANCH   7  16
ATOM     13  C   UNL     1      -0.677  10.693  21.883  0.00  0.00    +0.000 A 
ATOM     14  C   UNL     1      -0.488  10.518  20.518  0.00  0.00    +0.000 A 
ATOM     15  C   UNL     1       0.409   9.560  20.043  0.00  0.00    +0.000 A 
ATOM     16  C   UNL     1       1.152   8.768  20.923  0.00  0.00    +0.000 A 
ATOM     17  C   UNL     1       0.963   8.951  22.296  0.00  0.00    +0.000 A 
ATOM     18  C   UNL     1       0.050   9.908  22.776  0.00  0.00    +0.000 A 
BRANCH  13  20
ATOM     19  C   UNL     1      -0.975  12.895  22.682  0.00  0.00    +0.000 C 
ATOM     20  O   UNL     1      -1.554  11.686  22.213  0.00  0.00    +0.000 OA
ENDBRANCH  13  20
ENDBRANCH   7  16
ENDBRANCH   1  10
BRANCH   4  21
ATOM     21  C   UNL     1       5.069   3.318  16.180  0.00  0.00    +0.000 C 
BRANCH  21  22
ATOM     22  C   UNL     1       6.276   4.262  16.232  0.00  0.00    +0.000 C 
BRANCH  22  23
ATOM     23  C   UNL     1       6.196   5.377  15.188  0.00  0.00    +0.000 C 
BRANCH  23  24
ATOM     24  C   UNL     1       6.995   5.032  13.947  0.00  0.00    +0.000 C 
ATOM     25  O   UNL     1       8.079   5.550  13.688  0.00  0.00    +0.000 OA
BRANCH  24  26
ATOM     26  C   UNL     1       6.409   4.060  12.980  0.00  0.00    +0.000 A 
ATOM     27  C   UNL     1       7.277   3.181  12.322  0.00  0.00    +0.000 A 
ATOM     28  C   UNL     1       6.780   2.263  11.397  0.00  0.00    +0.000 A 
ATOM     29  C   UNL     1       5.412   2.211  11.136  0.00  0.00    +0.000 A 
ATOM     30  C   UNL     1       4.540   3.074  11.799  0.00  0.00    +0.000 A 
ATOM     31  C   UNL     1       5.035   4.002  12.719  0.00  0.00    +0.000 A 
ENDBRANCH  24  26
ENDBRANCH  23  24
ENDBRANCH  22  23
ENDBRANCH  21  22
ENDBRANCH   4  21
TORSDOF 8
ENDMDL
MODEL 8
REMARK VINA RESULT:      -7.4      0.509      1.353
REMARK  Name = 
REMARK  9 active torsions:
REMARK  status: ('A' for Active; 'I' for Inactive)
REMARK    1  A    between atoms: C_1  and  O_2
REMARK    2  A    between atoms: O_2  and  C_3
REMARK    3  A    between atoms: C_6  and  N_7
REMARK    4  A    between atoms: N_10  and  C_11
REMARK    5  A    between atoms: N_14  and  C_15
REMARK    6  A    between atoms: C_15  and  C_16
REMARK    7  A    between atoms: C_16  and  C_17
REMARK    8  A    between atoms: C_17  and  C_18
REMARK    9  A    between atoms: C_18  and  C_20
REMARK                            x       y       z     vdW  Elec       q    Type
REMARK                         _______ _______ _______ _____ _____    ______ ____
ROOT
ATOM      1  C   UNL     1       2.396   3.964  20.551  0.00  0.00    +0.000 C 
ATOM      2  C   UNL     1       3.666   3.153  20.287  0.00  0.00    +0.000 C 
ATOM      3  C   UNL     1       4.179   3.341  18.864  0.00  0.00    +0.000 C 
ATOM      4  N   UNL     1       3.136   3.037  17.871  0.00  0.00    +0.000 NA
ATOM      5  C   UNL     1       1.956   3.893  18.059  0.00  0.00    +0.000 C 
ATOM      6  C   UNL     1       1.364   3.730  19.454  0.00  0.00    +0.000 C 
ENDROOT
BRANCH   1  10
ATOM      7  N   UNL     1       2.009   7.560  21.078  0.00  0.00    +0.000 N 
ATOM      8  C   UNL     1       1.619   6.254  20.895  0.00  0.00    +0.000 C 
ATOM      9  O   UNL     1       0.463   5.847  20.824  0.00  0.00    +0.000 OA
ATOM     10  N   UNL     1       2.681   5.387  20.747  0.00  0.00    +0.000 N 
ATOM     11  H   UNL     1       2.997   7.740  21.174  0.00  0.00    +0.000 HD
ATOM     12  H   UNL     1       3.562   5.649  21.163  0.00  0.00    +0.000 HD
BRANCH   7  16
ATOM     13  C   UNL     1      -0.517  10.957  21.249  0.00  0.00    +0.000 A 
ATOM     14  C   UNL     1      -0.049  10.503  20.023  0.00  0.00    +0.000 A 
ATOM     15  C   UNL     1       0.766   9.372  19.949  0.00  0.00    +0.000 A 
ATOM     16  C   UNL     1       1.146   8.681  21.103  0.00  0.00    +0.000 A 
ATOM     17  C   UNL     1       0.677   9.144  22.336  0.00  0.00    +0.000 A 
ATOM     18  C   UNL     1      -0.154  10.277  22.410  0.00  0.00    +0.000 A 
BRANCH  13  20
ATOM     19  C   UNL     1      -1.912  12.484  22.391  0.00  0.00    +0.000 C 
ATOM     20  O   UNL     1      -1.273  12.093  21.185  0.00  0.00    +0.000 OA
ENDBRANCH  13  20
ENDBRANCH   7  16
ENDBRANCH   1  10
BRANCH   4  21
ATOM     21  C   UNL     1       3.637   3.164  16.491  0.00  0.00    +0.000 C 
BRANCH  21  22
ATOM     22  C   UNL     1       4.685   4.267  16.306  0.00  0.00    +0.000 C 
BRANCH  22  23
ATOM     23  C   UNL     1       5.801   3.862  15.341  0.00  0.00    +0.000 C 
BRANCH  23  24
ATOM     24  C   UNL     1       6.917   4.888  15.323  0.00  0.00    +0.000 C 
ATOM     25  O   UNL     1       7.537   5.179  14.302  0.00  0.00    +0.000 OA
BRANCH  24  26
ATOM     26  C   UNL     1       7.307   5.526  16.612  0.00  0.00    +0.000 A 
ATOM     27  C   UNL     1       7.342   6.924  16.671  0.00  0.00    +0.000 A 
ATOM     28  C   UNL     1       7.714   7.570  17.850  0.00  0.00    +0.000 A 
ATOM     29  C   UNL     1       8.041   6.820  18.979  0.00  0.00    +0.000 A 
ATOM     30  C   UNL     1       7.995   5.428  18.932  0.00  0.00    +0.000 A 
ATOM     31  C   UNL     1       7.632   4.777  17.750  0.00  0.00    +0.000 A 
ENDBRANCH  24  26
ENDBRANCH  23  24
ENDBRANCH  22  23
ENDBRANCH  21  22
ENDBRANCH   4  21
TORSDOF 8
ENDMDL
MODEL 9
REMARK VINA RESULT:      -7.4      2.653      4.122
REMARK  Name = 
REMARK  9 active torsions:
REMARK  status: ('A' for Active; 'I' for Inactive)
REMARK    1  A    between atoms: C_1  and  O_2
REMARK    2  A    between atoms: O_2  and  C_3
REMARK    3  A    between atoms: C_6  and  N_7
REMARK    4  A    between atoms: N_10  and  C_11
REMARK    5  A    between atoms: N_14  and  C_15
REMARK    6  A    between atoms: C_15  and  C_16
REMARK    7  A    between atoms: C_16  and  C_17
REMARK    8  A    between atoms: C_17  and  C_18
REMARK    9  A    between atoms: C_18  and  C_20
REMARK                            x       y       z     vdW  Elec       q    Type
REMARK                         _______ _______ _______ _____ _____    ______ ____
ROOT
ATOM      1  C   UNL     1       3.112   5.492  18.665  0.00  0.00    +0.000 C 
ATOM      2  C   UNL     1       4.428   5.681  19.422  0.00  0.00    +0.000 C 
ATOM      3  C   UNL     1       5.635   5.632  18.492  0.00  0.00    +0.000 C 
ATOM      4  N   UNL     1       5.651   4.394  17.696  0.00  0.00    +0.000 NA
ATOM      5  C   UNL     1       4.432   4.266  16.886  0.00  0.00    +0.000 C 
ATOM      6  C   UNL     1       3.180   4.271  17.755  0.00  0.00    +0.000 C 
ENDROOT
BRANCH   1  10
ATOM      7  N   UNL     1       1.777   8.797  17.857  0.00  0.00    +0.000 N 
ATOM      8  C   UNL     1       2.097   7.714  18.642  0.00  0.00    +0.000 C 
ATOM      9  O   UNL     1       1.851   7.589  19.838  0.00  0.00    +0.000 OA
ATOM     10  N   UNL     1       2.714   6.700  17.939  0.00  0.00    +0.000 N 
ATOM     11  H   UNL     1       2.092   8.785  16.900  0.00  0.00    +0.000 HD
ATOM     12  H   UNL     1       3.223   6.950  17.105  0.00  0.00    +0.000 HD
BRANCH   7  16
ATOM     13  C   UNL     1      -0.617  12.054  19.127  0.00  0.00    +0.000 A 
ATOM     14  C   UNL     1       0.761  12.100  19.294  0.00  0.00    +0.000 A 
ATOM     15  C   UNL     1       1.564  11.045  18.861  0.00  0.00    +0.000 A 
ATOM     16  C   UNL     1       1.005   9.910  18.267  0.00  0.00    +0.000 A 
ATOM     17  C   UNL     1      -0.383   9.864  18.104  0.00  0.00    +0.000 A 
ATOM     18  C   UNL     1      -1.193  10.933  18.531  0.00  0.00    +0.000 A 
BRANCH  13  20
ATOM     19  C   UNL     1      -2.655  12.921  19.949  0.00  0.00    +0.000 C 
ATOM     20  O   UNL     1      -1.288  13.134  19.627  0.00  0.00    +0.000 OA
ENDBRANCH  13  20
ENDBRANCH   7  16
ENDBRANCH   1  10
BRANCH   4  21
ATOM     21  C   UNL     1       6.841   4.311  16.832  0.00  0.00    +0.000 C 
BRANCH  21  22
ATOM     22  C   UNL     1       6.533   3.943  15.377  0.00  0.00    +0.000 C 
BRANCH  22  23
ATOM     23  C   UNL     1       6.503   5.163  14.455  0.00  0.00    +0.000 C 
BRANCH  23  24
ATOM     24  C   UNL     1       7.152   4.863  13.118  0.00  0.00    +0.000 C 
ATOM     25  O   UNL     1       8.027   5.574  12.629  0.00  0.00    +0.000 OA
BRANCH  24  26
ATOM     26  C   UNL     1       6.667   3.683  12.349  0.00  0.00    +0.000 A 
ATOM     27  C   UNL     1       7.619   2.805  11.817  0.00  0.00    +0.000 A 
ATOM     28  C   UNL     1       7.216   1.694  11.077  0.00  0.00    +0.000 A 
ATOM     29  C   UNL     1       5.859   1.448  10.876  0.00  0.00    +0.000 A 
ATOM     30  C   UNL     1       4.904   2.310  11.414  0.00  0.00    +0.000 A 
ATOM     31  C   UNL     1       5.304   3.429  12.149  0.00  0.00    +0.000 A 
ENDBRANCH  24  26
ENDBRANCH  23  24
ENDBRANCH  22  23
ENDBRANCH  21  22
ENDBRANCH   4  21
TORSDOF 8
ENDMDL
