MODEL 1
REMARK VINA RESULT:      -9.3      0.000      0.000
REMARK  Name = 
REMARK  8 active torsions:
REMARK  status: ('A' for Active; 'I' for Inactive)
REMARK    1  A    between atoms: C_1  and  C_2
REMARK    2  A    between atoms: C_2  and  N_3
REMARK    3  A    between atoms: C_2  and  C_26
REMARK    4  A    between atoms: N_3  and  S_4
REMARK    5  A    between atoms: S_4  and  C_7
REMARK    6  A    between atoms: C_12  and  N_13
REMARK    7  A    between atoms: C_14  and  C_15
REMARK    8  A    between atoms: C_16  and  O_17
REMARK                            x       y       z     vdW  Elec       q    Type
REMARK                         _______ _______ _______ _____ _____    ______ ____
ROOT
ATOM      1  C   UNL     1       3.036   3.685  19.261  0.00  0.00    +0.000 A 
ATOM      2  C   UNL     1       3.329   2.492  19.959  0.00  0.00    +0.000 A 
ATOM      3  C   UNL     1       2.937   2.322  21.277  0.00  0.00    +0.000 A 
ATOM      4  C   UNL     1       2.233   3.334  21.906  0.00  0.00    +0.000 A 
ATOM      5  C   UNL     1       1.982   4.528  21.231  0.00  0.00    +0.000 A 
ATOM      6  C   UNL     1       2.433   4.765  19.917  0.00  0.00    +0.000 A 
ENDROOT
BRANCH   1   7
ATOM      7  S   UNL     1       3.388   3.727  17.524  0.00  0.00    +0.000 S 
ATOM      8  O   UNL     1       2.147   3.471  16.829  0.00  0.00    +0.000 OA
ATOM      9  O   UNL     1       4.554   2.883  17.311  0.00  0.00    +0.000 OA
BRANCH   7  10
ATOM     10  N   UNL     1       3.865   5.342  17.259  0.00  0.00    +0.000 NA
ATOM     11  H   UNL     1       3.038   5.912  17.067  0.00  0.00    +0.000 HD
BRANCH  10  13
ATOM     12  C   UNL     1       5.295   4.497  15.443  0.00  0.00    +0.000 C 
ATOM     13  C   UNL     1       5.028   5.663  16.395  0.00  0.00    +0.000 C 
BRANCH  13  14
ATOM     14  C   UNL     1       6.256   6.122  17.174  0.00  0.00    +0.000 A 
ATOM     15  C   UNL     1       6.829   5.303  18.159  0.00  0.00    +0.000 A 
ATOM     16  C   UNL     1       7.837   5.760  18.997  0.00  0.00    +0.000 A 
ATOM     17  C   UNL     1       8.322   7.051  18.842  0.00  0.00    +0.000 A 
ATOM     18  C   UNL     1       7.805   7.872  17.839  0.00  0.00    +0.000 A 
ATOM     19  C   UNL     1       6.782   7.408  17.005  0.00  0.00    +0.000 A 
ENDBRANCH  13  14
ENDBRANCH  10  13
ENDBRANCH   7  10
ENDBRANCH   1   7
BRANCH   6  20
ATOM     20  N   UNL     1       2.203   6.035  19.317  0.00  0.00    +0.000 NA
ATOM     21  C   UNL     1       1.871   7.001  20.132  0.00  0.00    +0.000 C 
BRANCH  21  22
ATOM     22  C   UNL     1       1.499   8.374  19.720  0.00  0.00    +0.000 A 
ATOM     23  C   UNL     1       1.966   8.889  18.506  0.00  0.00    +0.000 A 
ATOM     24  C   UNL     1       1.652  10.190  18.134  0.00  0.00    +0.000 A 
ATOM     25  C   UNL     1       0.928  11.012  18.996  0.00  0.00    +0.000 A 
ATOM     26  C   UNL     1       0.522  10.553  20.254  0.00  0.00    +0.000 A 
ATOM     27  C   UNL     1      -0.068  11.456  21.152  0.00  0.00    +0.000 A 
ATOM     28  C   UNL     1      -0.466  11.050  22.422  0.00  0.00    +0.000 A 
ATOM     29  C   UNL     1      -0.383   9.709  22.764  0.00  0.00    +0.000 A 
ATOM     30  C   UNL     1       0.197   8.795  21.874  0.00  0.00    +0.000 A 
ATOM     31  C   UNL     1       0.741   9.202  20.623  0.00  0.00    +0.000 A 
BRANCH  23  32
ATOM     32  O   UNL     1       2.782   8.209  17.646  0.00  0.00    +0.000 OA
ATOM     33  H   UNL     1       3.716   8.292  17.933  0.00  0.00    +0.000 HD
ENDBRANCH  23  32
ENDBRANCH  21  22
ENDBRANCH   6  20
TORSDOF 7
ENDMDL
MODEL 2
REMARK VINA RESULT:      -9.2      3.482      8.527
REMARK  Name = 
REMARK  8 active torsions:
REMARK  status: ('A' for Active; 'I' for Inactive)
REMARK    1  A    between atoms: C_1  and  C_2
REMARK    2  A    between atoms: C_2  and  N_3
REMARK    3  A    between atoms: C_2  and  C_26
REMARK    4  A    between atoms: N_3  and  S_4
REMARK    5  A    between atoms: S_4  and  C_7
REMARK    6  A    between atoms: C_12  and  N_13
REMARK    7  A    between atoms: C_14  and  C_15
REMARK    8  A    between atoms: C_16  and  O_17
REMARK                            x       y       z     vdW  Elec       q    Type
REMARK                         _______ _______ _______ _____ _____    ______ ____
ROOT
ATOM      1  C   UNL     1       0.271  10.972  20.603  0.00  0.00    +0.000 A 
ATOM      2  C   UNL     1      -0.422  11.701  21.595  0.00  0.00    +0.000 A 
ATOM      3  C   UNL     1      -0.744  11.124  22.812  0.00  0.00    +0.000 A 
ATOM      4  C   UNL     1      -0.361   9.816  23.058  0.00  0.00    +0.000 A 
ATOM      5  C   UNL     1       0.284   9.083  22.064  0.00  0.00    +0.000 A 
ATOM      6  C   UNL     1       0.558   9.614  20.787  0.00  0.00    +0.000 A 
ENDROOT
BRANCH   1   7
ATOM      7  S   UNL     1       0.824  11.856  19.169  0.00  0.00    +0.000 S 
ATOM      8  O   UNL     1       1.813  11.032  18.513  0.00  0.00    +0.000 OA
ATOM      9  O   UNL     1       1.144  13.206  19.606  0.00  0.00    +0.000 OA
BRANCH   7  10
ATOM     10  N   UNL     1      -0.575  11.946  18.200  0.00  0.00    +0.000 NA
ATOM     11  H   UNL     1      -0.903  12.914  18.169  0.00  0.00    +0.000 HD
BRANCH  10  13
ATOM     12  C   UNL     1      -1.477   9.840  17.302  0.00  0.00    +0.000 C 
ATOM     13  C   UNL     1      -1.665  10.949  18.338  0.00  0.00    +0.000 C 
BRANCH  13  14
ATOM     14  C   UNL     1      -3.058  11.567  18.340  0.00  0.00    +0.000 A 
ATOM     15  C   UNL     1      -3.568  12.184  19.493  0.00  0.00    +0.000 A 
ATOM     16  C   UNL     1      -4.890  12.602  19.578  0.00  0.00    +0.000 A 
ATOM     17  C   UNL     1      -5.728  12.442  18.484  0.00  0.00    +0.000 A 
ATOM     18  C   UNL     1      -5.236  11.876  17.308  0.00  0.00    +0.000 A 
ATOM     19  C   UNL     1      -3.907  11.446  17.234  0.00  0.00    +0.000 A 
ENDBRANCH  13  14
ENDBRANCH  10  13
ENDBRANCH   7  10
ENDBRANCH   1   7
BRANCH   6  20
ATOM     20  N   UNL     1       1.155   8.783  19.798  0.00  0.00    +0.000 NA
ATOM     21  C   UNL     1       1.599   7.627  20.213  0.00  0.00    +0.000 C 
BRANCH  21  22
ATOM     22  C   UNL     1       2.333   6.646  19.381  0.00  0.00    +0.000 A 
ATOM     23  C   UNL     1       3.075   7.084  18.279  0.00  0.00    +0.000 A 
ATOM     24  C   UNL     1       3.734   6.164  17.472  0.00  0.00    +0.000 A 
ATOM     25  C   UNL     1       3.603   4.798  17.714  0.00  0.00    +0.000 A 
ATOM     26  C   UNL     1       2.797   4.326  18.756  0.00  0.00    +0.000 A 
ATOM     27  C   UNL     1       2.568   2.946  18.871  0.00  0.00    +0.000 A 
ATOM     28  C   UNL     1       1.755   2.435  19.878  0.00  0.00    +0.000 A 
ATOM     29  C   UNL     1       1.254   3.289  20.848  0.00  0.00    +0.000 A 
ATOM     30  C   UNL     1       1.481   4.668  20.749  0.00  0.00    +0.000 A 
ATOM     31  C   UNL     1       2.191   5.240  19.656  0.00  0.00    +0.000 A 
BRANCH  23  32
ATOM     32  O   UNL     1       3.168   8.389  17.884  0.00  0.00    +0.000 OA
ATOM     33  H   UNL     1       2.359   8.877  18.145  0.00  0.00    +0.000 HD
ENDBRANCH  23  32
ENDBRANCH  21  22
ENDBRANCH   6  20
TORSDOF 7
ENDMDL
MODEL 3
REMARK VINA RESULT:      -9.0      0.998      2.248
REMARK  Name = 
REMARK  8 active torsions:
REMARK  status: ('A' for Active; 'I' for Inactive)
REMARK    1  A    between atoms: C_1  and  C_2
REMARK    2  A    between atoms: C_2  and  N_3
REMARK    3  A    between atoms: C_2  and  C_26
REMARK    4  A    between atoms: N_3  and  S_4
REMARK    5  A    between atoms: S_4  and  C_7
REMARK    6  A    between atoms: C_12  and  N_13
REMARK    7  A    between atoms: C_14  and  C_15
REMARK    8  A    between atoms: C_16  and  O_17
REMARK                            x       y       z     vdW  Elec       q    Type
REMARK                         _______ _______ _______ _____ _____    ______ ____
ROOT
ATOM      1  C   UNL     1       2.995   3.525  19.241  0.00  0.00    +0.000 A 
ATOM      2  C   UNL     1       3.281   2.357  19.983  0.00  0.00    +0.000 A 
ATOM      3  C   UNL     1       2.923   2.253  21.317  0.00  0.00    +0.000 A 
ATOM      4  C   UNL     1       2.261   3.309  21.920  0.00  0.00    +0.000 A 
ATOM      5  C   UNL     1       2.017   4.478  21.201  0.00  0.00    +0.000 A 
ATOM      6  C   UNL     1       2.436   4.646  19.866  0.00  0.00    +0.000 A 
ENDROOT
BRANCH   1   7
ATOM      7  S   UNL     1       3.297   3.484  17.494  0.00  0.00    +0.000 S 
ATOM      8  O   UNL     1       2.011   3.485  16.837  0.00  0.00    +0.000 OA
ATOM      9  O   UNL     1       4.257   2.415  17.261  0.00  0.00    +0.000 OA
BRANCH   7  10
ATOM     10  N   UNL     1       4.090   4.963  17.198  0.00  0.00    +0.000 NA
ATOM     11  H   UNL     1       3.545   5.510  16.528  0.00  0.00    +0.000 HD
BRANCH  10  13
ATOM     12  C   UNL     1       6.137   6.262  17.619  0.00  0.00    +0.000 C 
ATOM     13  C   UNL     1       5.554   5.011  16.962  0.00  0.00    +0.000 C 
BRANCH  13  14
ATOM     14  C   UNL     1       5.939   4.843  15.496  0.00  0.00    +0.000 A 
ATOM     15  C   UNL     1       5.028   4.308  14.572  0.00  0.00    +0.000 A 
ATOM     16  C   UNL     1       5.404   3.987  13.274  0.00  0.00    +0.000 A 
ATOM     17  C   UNL     1       6.706   4.228  12.861  0.00  0.00    +0.000 A 
ATOM     18  C   UNL     1       7.621   4.803  13.743  0.00  0.00    +0.000 A 
ATOM     19  C   UNL     1       7.238   5.115  15.052  0.00  0.00    +0.000 A 
ENDBRANCH  13  14
ENDBRANCH  10  13
ENDBRANCH   7  10
ENDBRANCH   1   7
BRANCH   6  20
ATOM     20  N   UNL     1       2.217   5.895  19.217  0.00  0.00    +0.000 NA
ATOM     21  C   UNL     1       1.989   6.915  20.001  0.00  0.00    +0.000 C 
BRANCH  21  22
ATOM     22  C   UNL     1       1.648   8.282  19.544  0.00  0.00    +0.000 A 
ATOM     23  C   UNL     1       2.122   8.744  18.312  0.00  0.00    +0.000 A 
ATOM     24  C   UNL     1       1.836  10.039  17.896  0.00  0.00    +0.000 A 
ATOM     25  C   UNL     1       1.137  10.906  18.733  0.00  0.00    +0.000 A 
ATOM     26  C   UNL     1       0.726  10.501  20.007  0.00  0.00    +0.000 A 
ATOM     27  C   UNL     1       0.162  11.447  20.877  0.00  0.00    +0.000 A 
ATOM     28  C   UNL     1      -0.240  11.093  22.161  0.00  0.00    +0.000 A 
ATOM     29  C   UNL     1      -0.186   9.763  22.549  0.00  0.00    +0.000 A 
ATOM     30  C   UNL     1       0.367   8.807  21.687  0.00  0.00    +0.000 A 
ATOM     31  C   UNL     1       0.915   9.157  20.421  0.00  0.00    +0.000 A 
BRANCH  23  32
ATOM     32  O   UNL     1       2.917   8.016  17.472  0.00  0.00    +0.000 OA
ATOM     33  H   UNL     1       2.941   8.434  16.585  0.00  0.00    +0.000 HD
ENDBRANCH  23  32
ENDBRANCH  21  22
ENDBRANCH   6  20
TORSDOF 7
ENDMDL
MODEL 4
REMARK VINA RESULT:      -8.9      1.306      2.213
REMARK  Name = 
REMARK  8 active torsions:
REMARK  status: ('A' for Active; 'I' for Inactive)
REMARK    1  A    between atoms: C_1  and  C_2
REMARK    2  A    between atoms: C_2  and  N_3
REMARK    3  A    between atoms: C_2  and  C_26
REMARK    4  A    between atoms: N_3  and  S_4
REMARK    5  A    between atoms: S_4  and  C_7
REMARK    6  A    between atoms: C_12  and  N_13
REMARK    7  A    between atoms: C_14  and  C_15
REMARK    8  A    between atoms: C_16  and  O_17
REMARK                            x       y       z     vdW  Elec       q    Type
REMARK                         _______ _______ _______ _____ _____    ______ ____
ROOT
ATOM      1  C   UNL     1       2.470   3.561  19.270  0.00  0.00    +0.000 A 
ATOM      2  C   UNL     1       2.677   2.346  19.961  0.00  0.00    +0.000 A 
ATOM      3  C   UNL     1       2.588   2.286  21.342  0.00  0.00    +0.000 A 
ATOM      4  C   UNL     1       2.275   3.436  22.046  0.00  0.00    +0.000 A 
ATOM      5  C   UNL     1       2.115   4.643  21.368  0.00  0.00    +0.000 A 
ATOM      6  C   UNL     1       2.275   4.755  19.973  0.00  0.00    +0.000 A 
ENDROOT
BRANCH   1   7
ATOM      7  S   UNL     1       2.394   3.496  17.499  0.00  0.00    +0.000 S 
ATOM      8  O   UNL     1       1.110   4.028  17.107  0.00  0.00    +0.000 OA
ATOM      9  O   UNL     1       2.800   2.154  17.111  0.00  0.00    +0.000 OA
BRANCH   7  10
ATOM     10  N   UNL     1       3.627   4.568  17.014  0.00  0.00    +0.000 NA
ATOM     11  H   UNL     1       3.380   4.980  16.112  0.00  0.00    +0.000 HD
BRANCH  10  13
ATOM     12  C   UNL     1       5.709   4.993  18.256  0.00  0.00    +0.000 C 
ATOM     13  C   UNL     1       5.057   4.190  17.130  0.00  0.00    +0.000 C 
BRANCH  13  14
ATOM     14  C   UNL     1       5.811   4.252  15.807  0.00  0.00    +0.000 A 
ATOM     15  C   UNL     1       6.965   5.040  15.674  0.00  0.00    +0.000 A 
ATOM     16  C   UNL     1       7.573   5.249  14.443  0.00  0.00    +0.000 A 
ATOM     17  C   UNL     1       7.052   4.639  13.312  0.00  0.00    +0.000 A 
ATOM     18  C   UNL     1       5.934   3.810  13.420  0.00  0.00    +0.000 A 
ATOM     19  C   UNL     1       5.321   3.613  14.662  0.00  0.00    +0.000 A 
ENDBRANCH  13  14
ENDBRANCH  10  13
ENDBRANCH   7  10
ENDBRANCH   1   7
BRANCH   6  20
ATOM     20  N   UNL     1       2.167   6.034  19.357  0.00  0.00    +0.000 NA
ATOM     21  C   UNL     1       1.774   7.011  20.131  0.00  0.00    +0.000 C 
BRANCH  21  22
ATOM     22  C   UNL     1       1.507   8.398  19.686  0.00  0.00    +0.000 A 
ATOM     23  C   UNL     1       2.070   8.868  18.495  0.00  0.00    +0.000 A 
ATOM     24  C   UNL     1       1.855  10.181  18.093  0.00  0.00    +0.000 A 
ATOM     25  C   UNL     1       1.135  11.055  18.905  0.00  0.00    +0.000 A 
ATOM     26  C   UNL     1       0.634  10.638  20.143  0.00  0.00    +0.000 A 
ATOM     27  C   UNL     1       0.050  11.585  20.999  0.00  0.00    +0.000 A 
ATOM     28  C   UNL     1      -0.441  11.219  22.248  0.00  0.00    +0.000 A 
ATOM     29  C   UNL     1      -0.456   9.881  22.608  0.00  0.00    +0.000 A 
ATOM     30  C   UNL     1       0.117   8.923  21.760  0.00  0.00    +0.000 A 
ATOM     31  C   UNL     1       0.752   9.280  20.537  0.00  0.00    +0.000 A 
BRANCH  23  32
ATOM     32  O   UNL     1       2.890   8.130  17.688  0.00  0.00    +0.000 OA
ATOM     33  H   UNL     1       2.355   7.562  17.095  0.00  0.00    +0.000 HD
ENDBRANCH  23  32
ENDBRANCH  21  22
ENDBRANCH   6  20
TORSDOF 7
ENDMDL
MODEL 5
REMARK VINA RESULT:      -8.6      1.518      2.583
REMARK  Name = 
REMARK  8 active torsions:
REMARK  status: ('A' for Active; 'I' for Inactive)
REMARK    1  A    between atoms: C_1  and  C_2
REMARK    2  A    between atoms: C_2  and  N_3
REMARK    3  A    between atoms: C_2  and  C_26
REMARK    4  A    between atoms: N_3  and  S_4
REMARK    5  A    between atoms: S_4  and  C_7
REMARK    6  A    between atoms: C_12  and  N_13
REMARK    7  A    between atoms: C_14  and  C_15
REMARK    8  A    between atoms: C_16  and  O_17
REMARK                            x       y       z     vdW  Elec       q    Type
REMARK                         _______ _______ _______ _____ _____    ______ ____
ROOT
ATOM      1  C   UNL     1       3.615   4.137  18.889  0.00  0.00    +0.000 A 
ATOM      2  C   UNL     1       4.140   2.982  19.510  0.00  0.00    +0.000 A 
ATOM      3  C   UNL     1       3.649   2.542  20.729  0.00  0.00    +0.000 A 
ATOM      4  C   UNL     1       2.617   3.241  21.330  0.00  0.00    +0.000 A 
ATOM      5  C   UNL     1       2.129   4.405  20.738  0.00  0.00    +0.000 A 
ATOM      6  C   UNL     1       2.657   4.924  19.540  0.00  0.00    +0.000 A 
ENDROOT
BRANCH   1   7
ATOM      7  S   UNL     1       4.156   4.500  17.239  0.00  0.00    +0.000 S 
ATOM      8  O   UNL     1       4.275   5.935  17.134  0.00  0.00    +0.000 OA
ATOM      9  O   UNL     1       3.291   3.752  16.340  0.00  0.00    +0.000 OA
BRANCH   7  10
ATOM     10  N   UNL     1       5.706   3.794  17.170  0.00  0.00    +0.000 NA
ATOM     11  H   UNL     1       5.926   3.374  18.076  0.00  0.00    +0.000 HD
BRANCH  10  13
ATOM     12  C   UNL     1       6.970   5.905  17.168  0.00  0.00    +0.000 C 
ATOM     13  C   UNL     1       6.846   4.512  16.550  0.00  0.00    +0.000 C 
BRANCH  13  14
ATOM     14  C   UNL     1       6.808   4.511  15.026  0.00  0.00    +0.000 A 
ATOM     15  C   UNL     1       5.983   3.614  14.329  0.00  0.00    +0.000 A 
ATOM     16  C   UNL     1       6.054   3.474  12.949  0.00  0.00    +0.000 A 
ATOM     17  C   UNL     1       6.938   4.262  12.226  0.00  0.00    +0.000 A 
ATOM     18  C   UNL     1       7.736   5.197  12.887  0.00  0.00    +0.000 A 
ATOM     19  C   UNL     1       7.668   5.324  14.279  0.00  0.00    +0.000 A 
ENDBRANCH  13  14
ENDBRANCH  10  13
ENDBRANCH   7  10
ENDBRANCH   1   7
BRANCH   6  20
ATOM     20  N   UNL     1       2.158   6.156  19.031  0.00  0.00    +0.000 NA
ATOM     21  C   UNL     1       2.119   7.151  19.878  0.00  0.00    +0.000 C 
BRANCH  21  22
ATOM     22  C   UNL     1       1.556   8.491  19.594  0.00  0.00    +0.000 A 
ATOM     23  C   UNL     1       1.872   9.140  18.396  0.00  0.00    +0.000 A 
ATOM     24  C   UNL     1       1.378  10.414  18.143  0.00  0.00    +0.000 A 
ATOM     25  C   UNL     1       0.623  11.079  19.107  0.00  0.00    +0.000 A 
ATOM     26  C   UNL     1       0.364  10.490  20.349  0.00  0.00    +0.000 A 
ATOM     27  C   UNL     1      -0.266  11.249  21.348  0.00  0.00    +0.000 A 
ATOM     28  C   UNL     1      -0.523  10.711  22.605  0.00  0.00    +0.000 A 
ATOM     29  C   UNL     1      -0.255   9.372  22.840  0.00  0.00    +0.000 A 
ATOM     30  C   UNL     1       0.367   8.600  21.849  0.00  0.00    +0.000 A 
ATOM     31  C   UNL     1       0.770   9.155  20.602  0.00  0.00    +0.000 A 
BRANCH  23  32
ATOM     32  O   UNL     1       2.702   8.627  17.439  0.00  0.00    +0.000 OA
ATOM     33  H   UNL     1       2.457   7.698  17.245  0.00  0.00    +0.000 HD
ENDBRANCH  23  32
ENDBRANCH  21  22
ENDBRANCH   6  20
TORSDOF 7
ENDMDL
MODEL 6
REMARK VINA RESULT:      -8.6      2.150      2.894
REMARK  Name = 
REMARK  8 active torsions:
REMARK  status: ('A' for Active; 'I' for Inactive)
REMARK    1  A    between atoms: C_1  and  C_2
REMARK    2  A    between atoms: C_2  and  N_3
REMARK    3  A    between atoms: C_2  and  C_26
REMARK    4  A    between atoms: N_3  and  S_4
REMARK    5  A    between atoms: S_4  and  C_7
REMARK    6  A    between atoms: C_12  and  N_13
REMARK    7  A    between atoms: C_14  and  C_15
REMARK    8  A    between atoms: C_16  and  O_17
REMARK                            x       y       z     vdW  Elec       q    Type
REMARK                         _______ _______ _______ _____ _____    ______ ____
ROOT
ATOM      1  C   UNL     1       4.281   4.512  19.535  0.00  0.00    +0.000 A 
ATOM      2  C   UNL     1       4.367   3.124  19.787  0.00  0.00    +0.000 A 
ATOM      3  C   UNL     1       3.281   2.421  20.282  0.00  0.00    +0.000 A 
ATOM      4  C   UNL     1       2.094   3.093  20.515  0.00  0.00    +0.000 A 
ATOM      5  C   UNL     1       2.022   4.469  20.307  0.00  0.00    +0.000 A 
ATOM      6  C   UNL     1       3.129   5.229  19.878  0.00  0.00    +0.000 A 
ENDROOT
BRANCH   1   7
ATOM      7  S   UNL     1       5.647   5.282  18.705  0.00  0.00    +0.000 S 
ATOM      8  O   UNL     1       6.777   5.229  19.602  0.00  0.00    +0.000 OA
ATOM      9  O   UNL     1       5.160   6.551  18.186  0.00  0.00    +0.000 OA
BRANCH   7  10
ATOM     10  N   UNL     1       5.928   4.254  17.375  0.00  0.00    +0.000 NA
ATOM     11  H   UNL     1       6.929   4.234  17.169  0.00  0.00    +0.000 HD
BRANCH  10  13
ATOM     12  C   UNL     1       3.935   3.297  16.293  0.00  0.00    +0.000 C 
ATOM     13  C   UNL     1       5.068   4.316  16.167  0.00  0.00    +0.000 C 
BRANCH  13  14
ATOM     14  C   UNL     1       5.847   4.220  14.861  0.00  0.00    +0.000 A 
ATOM     15  C   UNL     1       7.037   4.943  14.680  0.00  0.00    +0.000 A 
ATOM     16  C   UNL     1       7.675   5.009  13.448  0.00  0.00    +0.000 A 
ATOM     17  C   UNL     1       7.148   4.317  12.368  0.00  0.00    +0.000 A 
ATOM     18  C   UNL     1       5.993   3.550  12.529  0.00  0.00    +0.000 A 
ATOM     19  C   UNL     1       5.349   3.498  13.771  0.00  0.00    +0.000 A 
ENDBRANCH  13  14
ENDBRANCH  10  13
ENDBRANCH   7  10
ENDBRANCH   1   7
BRANCH   6  20
ATOM     20  N   UNL     1       3.003   6.641  19.758  0.00  0.00    +0.000 NA
ATOM     21  C   UNL     1       1.783   7.110  19.770  0.00  0.00    +0.000 C 
BRANCH  21  22
ATOM     22  C   UNL     1       1.413   8.530  19.568  0.00  0.00    +0.000 A 
ATOM     23  C   UNL     1       1.882   9.220  18.445  0.00  0.00    +0.000 A 
ATOM     24  C   UNL     1       1.570  10.563  18.272  0.00  0.00    +0.000 A 
ATOM     25  C   UNL     1       0.847  11.247  19.247  0.00  0.00    +0.000 A 
ATOM     26  C   UNL     1       0.440  10.606  20.422  0.00  0.00    +0.000 A 
ATOM     27  C   UNL     1      -0.150  11.365  21.445  0.00  0.00    +0.000 A 
ATOM     28  C   UNL     1      -0.550  10.774  22.639  0.00  0.00    +0.000 A 
ATOM     29  C   UNL     1      -0.468   9.397  22.777  0.00  0.00    +0.000 A 
ATOM     30  C   UNL     1       0.111   8.626  21.760  0.00  0.00    +0.000 A 
ATOM     31  C   UNL     1       0.657   9.214  20.584  0.00  0.00    +0.000 A 
BRANCH  23  32
ATOM     32  O   UNL     1       2.698   8.675  17.493  0.00  0.00    +0.000 OA
ATOM     33  H   UNL     1       2.560   7.706  17.448  0.00  0.00    +0.000 HD
ENDBRANCH  23  32
ENDBRANCH  21  22
ENDBRANCH   6  20
TORSDOF 7
ENDMDL
MODEL 7
REMARK VINA RESULT:      -8.6      4.133      9.052
REMARK  Name = 
REMARK  8 active torsions:
REMARK  status: ('A' for Active; 'I' for Inactive)
REMARK    1  A    between atoms: C_1  and  C_2
REMARK    2  A    between atoms: C_2  and  N_3
REMARK    3  A    between atoms: C_2  and  C_26
REMARK    4  A    between atoms: N_3  and  S_4
REMARK    5  A    between atoms: S_4  and  C_7
REMARK    6  A    between atoms: C_12  and  N_13
REMARK    7  A    between atoms: C_14  and  C_15
REMARK    8  A    between atoms: C_16  and  O_17
REMARK                            x       y       z     vdW  Elec       q    Type
REMARK                         _______ _______ _______ _____ _____    ______ ____
ROOT
ATOM      1  C   UNL     1      -0.881  11.750  20.657  0.00  0.00    +0.000 A 
ATOM      2  C   UNL     1      -1.648  12.310  21.702  0.00  0.00    +0.000 A 
ATOM      3  C   UNL     1      -1.737  11.686  22.936  0.00  0.00    +0.000 A 
ATOM      4  C   UNL     1      -1.046  10.505  23.143  0.00  0.00    +0.000 A 
ATOM      5  C   UNL     1      -0.325   9.929  22.098  0.00  0.00    +0.000 A 
ATOM      6  C   UNL     1      -0.277  10.497  20.809  0.00  0.00    +0.000 A 
ENDROOT
BRANCH   1   7
ATOM      7  S   UNL     1      -0.655  12.723  19.191  0.00  0.00    +0.000 S 
ATOM      8  O   UNL     1       0.747  12.666  18.852  0.00  0.00    +0.000 OA
ATOM      9  O   UNL     1      -1.318  13.997  19.428  0.00  0.00    +0.000 OA
BRANCH   7  10
ATOM     10  N   UNL     1      -1.560  11.881  18.018  0.00  0.00    +0.000 NA
ATOM     11  H   UNL     1      -1.783  12.513  17.245  0.00  0.00    +0.000 HD
BRANCH  10  13
ATOM     12  C   UNL     1      -2.641   9.714  17.578  0.00  0.00    +0.000 C 
ATOM     13  C   UNL     1      -2.684  10.996  18.411  0.00  0.00    +0.000 C 
BRANCH  13  14
ATOM     14  C   UNL     1      -4.039  11.694  18.406  0.00  0.00    +0.000 A 
ATOM     15  C   UNL     1      -4.810  11.758  17.234  0.00  0.00    +0.000 A 
ATOM     16  C   UNL     1      -5.962  12.529  17.155  0.00  0.00    +0.000 A 
ATOM     17  C   UNL     1      -6.391  13.233  18.271  0.00  0.00    +0.000 A 
ATOM     18  C   UNL     1      -5.672  13.150  19.464  0.00  0.00    +0.000 A 
ATOM     19  C   UNL     1      -4.505  12.380  19.533  0.00  0.00    +0.000 A 
ENDBRANCH  13  14
ENDBRANCH  10  13
ENDBRANCH   7  10
ENDBRANCH   1   7
BRANCH   6  20
ATOM     20  N   UNL     1       0.420   9.816  19.771  0.00  0.00    +0.000 NA
ATOM     21  C   UNL     1       1.141   8.791  20.143  0.00  0.00    +0.000 C 
BRANCH  21  22
ATOM     22  C   UNL     1       2.016   7.996  19.251  0.00  0.00    +0.000 A 
ATOM     23  C   UNL     1       2.481   8.551  18.054  0.00  0.00    +0.000 A 
ATOM     24  C   UNL     1       3.270   7.796  17.195  0.00  0.00    +0.000 A 
ATOM     25  C   UNL     1       3.546   6.461  17.487  0.00  0.00    +0.000 A 
ATOM     26  C   UNL     1       3.022   5.853  18.633  0.00  0.00    +0.000 A 
ATOM     27  C   UNL     1       3.194   4.471  18.812  0.00  0.00    +0.000 A 
ATOM     28  C   UNL     1       2.671   3.821  19.925  0.00  0.00    +0.000 A 
ATOM     29  C   UNL     1       2.069   4.565  20.927  0.00  0.00    +0.000 A 
ATOM     30  C   UNL     1       1.898   5.946  20.765  0.00  0.00    +0.000 A 
ATOM     31  C   UNL     1       2.296   6.622  19.578  0.00  0.00    +0.000 A 
BRANCH  23  32
ATOM     32  O   UNL     1       2.168   9.808  17.617  0.00  0.00    +0.000 OA
ATOM     33  H   UNL     1       2.742  10.470  18.057  0.00  0.00    +0.000 HD
ENDBRANCH  23  32
ENDBRANCH  21  22
ENDBRANCH   6  20
TORSDOF 7
ENDMDL
MODEL 8
REMARK VINA RESULT:      -8.6      1.729      2.898
REMARK  Name = 
REMARK  8 active torsions:
REMARK  status: ('A' for Active; 'I' for Inactive)
REMARK    1  A    between atoms: C_1  and  C_2
REMARK    2  A    between atoms: C_2  and  N_3
REMARK    3  A    between atoms: C_2  and  C_26
REMARK    4  A    between atoms: N_3  and  S_4
REMARK    5  A    between atoms: S_4  and  C_7
REMARK    6  A    between atoms: C_12  and  N_13
REMARK    7  A    between atoms: C_14  and  C_15
REMARK    8  A    between atoms: C_16  and  O_17
REMARK                            x       y       z     vdW  Elec       q    Type
REMARK                         _______ _______ _______ _____ _____    ______ ____
ROOT
ATOM      1  C   UNL     1       3.839   4.414  19.031  0.00  0.00    +0.000 A 
ATOM      2  C   UNL     1       4.068   3.101  19.501  0.00  0.00    +0.000 A 
ATOM      3  C   UNL     1       3.013   2.254  19.794  0.00  0.00    +0.000 A 
ATOM      4  C   UNL     1       1.717   2.702  19.604  0.00  0.00    +0.000 A 
ATOM      5  C   UNL     1       1.490   4.011  19.182  0.00  0.00    +0.000 A 
ATOM      6  C   UNL     1       2.538   4.924  18.950  0.00  0.00    +0.000 A 
ENDROOT
BRANCH   1   7
ATOM      7  S   UNL     1       5.244   5.347  18.483  0.00  0.00    +0.000 S 
ATOM      8  O   UNL     1       6.118   5.512  19.621  0.00  0.00    +0.000 OA
ATOM      9  O   UNL     1       4.726   6.500  17.762  0.00  0.00    +0.000 OA
BRANCH   7  10
ATOM     10  N   UNL     1       5.980   4.315  17.344  0.00  0.00    +0.000 NA
ATOM     11  H   UNL     1       6.146   3.402  17.773  0.00  0.00    +0.000 HD
BRANCH  10  13
ATOM     12  C   UNL     1       7.483   6.214  16.902  0.00  0.00    +0.000 C 
ATOM     13  C   UNL     1       7.100   4.790  16.495  0.00  0.00    +0.000 C 
BRANCH  13  14
ATOM     14  C   UNL     1       6.847   4.619  15.002  0.00  0.00    +0.000 A 
ATOM     15  C   UNL     1       5.801   3.803  14.540  0.00  0.00    +0.000 A 
ATOM     16  C   UNL     1       5.652   3.494  13.195  0.00  0.00    +0.000 A 
ATOM     17  C   UNL     1       6.536   4.028  12.269  0.00  0.00    +0.000 A 
ATOM     18  C   UNL     1       7.556   4.881  12.692  0.00  0.00    +0.000 A 
ATOM     19  C   UNL     1       7.707   5.179  14.051  0.00  0.00    +0.000 A 
ENDBRANCH  13  14
ENDBRANCH  10  13
ENDBRANCH   7  10
ENDBRANCH   1   7
BRANCH   6  20
ATOM     20  N   UNL     1       2.229   6.267  18.591  0.00  0.00    +0.000 NA
ATOM     21  C   UNL     1       1.967   7.078  19.581  0.00  0.00    +0.000 C 
BRANCH  21  22
ATOM     22  C   UNL     1       1.535   8.488  19.437  0.00  0.00    +0.000 A 
ATOM     23  C   UNL     1       1.937   9.230  18.322  0.00  0.00    +0.000 A 
ATOM     24  C   UNL     1       1.566  10.563  18.201  0.00  0.00    +0.000 A 
ATOM     25  C   UNL     1       0.851  11.188  19.222  0.00  0.00    +0.000 A 
ATOM     26  C   UNL     1       0.510  10.496  20.389  0.00  0.00    +0.000 A 
ATOM     27  C   UNL     1      -0.072  11.199  21.455  0.00  0.00    +0.000 A 
ATOM     28  C   UNL     1      -0.406  10.556  22.642  0.00  0.00    +0.000 A 
ATOM     29  C   UNL     1      -0.266   9.179  22.734  0.00  0.00    +0.000 A 
ATOM     30  C   UNL     1       0.307   8.464  21.674  0.00  0.00    +0.000 A 
ATOM     31  C   UNL     1       0.788   9.109  20.500  0.00  0.00    +0.000 A 
BRANCH  23  32
ATOM     32  O   UNL     1       2.739   8.748  17.326  0.00  0.00    +0.000 OA
ATOM     33  H   UNL     1       3.020   9.479  16.737  0.00  0.00    +0.000 HD
ENDBRANCH  23  32
ENDBRANCH  21  22
ENDBRANCH   6  20
TORSDOF 7
ENDMDL
MODEL 9
REMARK VINA RESULT:      -8.5      1.876      2.897
REMARK  Name = 
REMARK  8 active torsions:
REMARK  status: ('A' for Active; 'I' for Inactive)
REMARK    1  A    between atoms: C_1  and  C_2
REMARK    2  A    between atoms: C_2  and  N_3
REMARK    3  A    between atoms: C_2  and  C_26
REMARK    4  A    between atoms: N_3  and  S_4
REMARK    5  A    between atoms: S_4  and  C_7
REMARK    6  A    between atoms: C_12  and  N_13
REMARK    7  A    between atoms: C_14  and  C_15
REMARK    8  A    between atoms: C_16  and  O_17
REMARK                            x       y       z     vdW  Elec       q    Type
REMARK                         _______ _______ _______ _____ _____    ______ ____
ROOT
ATOM      1  C   UNL     1       3.690   4.093  19.144  0.00  0.00    +0.000 A 
ATOM      2  C   UNL     1       3.759   2.772  19.640  0.00  0.00    +0.000 A 
ATOM      3  C   UNL     1       2.617   2.097  20.037  0.00  0.00    +0.000 A 
ATOM      4  C   UNL     1       1.390   2.729  19.926  0.00  0.00    +0.000 A 
ATOM      5  C   UNL     1       1.325   4.047  19.477  0.00  0.00    +0.000 A 
ATOM      6  C   UNL     1       2.475   4.789  19.139  0.00  0.00    +0.000 A 
ENDROOT
BRANCH   1   7
ATOM      7  S   UNL     1       5.170   4.795  18.464  0.00  0.00    +0.000 S 
ATOM      8  O   UNL     1       6.248   3.877  18.749  0.00  0.00    +0.000 OA
ATOM      9  O   UNL     1       5.223   6.177  18.915  0.00  0.00    +0.000 OA
BRANCH   7  10
ATOM     10  N   UNL     1       4.863   4.810  16.788  0.00  0.00    +0.000 NA
ATOM     11  H   UNL     1       4.724   3.851  16.461  0.00  0.00    +0.000 HD
BRANCH  10  13
ATOM     12  C   UNL     1       4.956   6.966  15.605  0.00  0.00    +0.000 C 
ATOM     13  C   UNL     1       5.678   5.644  15.870  0.00  0.00    +0.000 C 
BRANCH  13  14
ATOM     14  C   UNL     1       6.114   4.910  14.608  0.00  0.00    +0.000 A 
ATOM     15  C   UNL     1       7.297   5.268  13.942  0.00  0.00    +0.000 A 
ATOM     16  C   UNL     1       7.632   4.736  12.704  0.00  0.00    +0.000 A 
ATOM     17  C   UNL     1       6.796   3.798  12.115  0.00  0.00    +0.000 A 
ATOM     18  C   UNL     1       5.638   3.387  12.776  0.00  0.00    +0.000 A 
ATOM     19  C   UNL     1       5.301   3.936  14.018  0.00  0.00    +0.000 A 
ENDBRANCH  13  14
ENDBRANCH  10  13
ENDBRANCH   7  10
ENDBRANCH   1   7
BRANCH   6  20
ATOM     20  N   UNL     1       2.339   6.154  18.758  0.00  0.00    +0.000 NA
ATOM     21  C   UNL     1       1.841   6.954  19.663  0.00  0.00    +0.000 C 
BRANCH  21  22
ATOM     22  C   UNL     1       1.528   8.387  19.456  0.00  0.00    +0.000 A 
ATOM     23  C   UNL     1       2.021   9.052  18.328  0.00  0.00    +0.000 A 
ATOM     24  C   UNL     1       1.763  10.405  18.149  0.00  0.00    +0.000 A 
ATOM     25  C   UNL     1       1.072  11.123  19.124  0.00  0.00    +0.000 A 
ATOM     26  C   UNL     1       0.643  10.505  20.303  0.00  0.00    +0.000 A 
ATOM     27  C   UNL     1       0.089  11.292  21.325  0.00  0.00    +0.000 A 
ATOM     28  C   UNL     1      -0.330  10.723  22.524  0.00  0.00    +0.000 A 
ATOM     29  C   UNL     1      -0.304   9.344  22.668  0.00  0.00    +0.000 A 
ATOM     30  C   UNL     1       0.239   8.546  21.652  0.00  0.00    +0.000 A 
ATOM     31  C   UNL     1       0.804   9.106  20.472  0.00  0.00    +0.000 A 
BRANCH  23  32
ATOM     32  O   UNL     1       2.810   8.469  17.376  0.00  0.00    +0.000 OA
ATOM     33  H   UNL     1       2.463   7.581  17.149  0.00  0.00    +0.000 HD
ENDBRANCH  23  32
ENDBRANCH  21  22
ENDBRANCH   6  20
TORSDOF 7
ENDMDL
