MODEL 1
REMARK VINA RESULT:      -6.6      0.000      0.000
REMARK  Name = 
REMARK  13 active torsions:
REMARK  status: ('A' for Active; 'I' for Inactive)
REMARK    1  A    between atoms: C_1  and  O_2
REMARK    2  A    between atoms: O_2  and  C_3
REMARK    3  A    between atoms: C_3  and  C_4
REMARK    4  A    between atoms: C_4  and  N_5
REMARK    5  A    between atoms: N_5  and  C_18
REMARK    6  A    between atoms: C_6  and  C_8
REMARK    7  A    between atoms: C_8  and  O_9
REMARK    8  A    between atoms: O_9  and  C_10
REMARK    9  A    between atoms: C_10  and  C_12
REMARK   10  A    between atoms: C_12  and  C_13
REMARK   11  A    between atoms: C_19  and  N_20
REMARK   12  A    between atoms: N_21  and  C_22
REMARK   13  A    between atoms: C_22  and  C_23
REMARK                            x       y       z     vdW  Elec       q    Type
REMARK                         _______ _______ _______ _____ _____    ______ ____
ROOT
ATOM      1  C   UNL     1       3.095   4.791  18.823  0.00  0.00    +0.000 A 
ATOM      2  C   UNL     1       4.449   4.827  18.905  0.00  0.00    +0.000 A 
ATOM      3  N   UNL     1       5.213   4.360  17.840  0.00  0.00    +0.000 N 
ATOM      4  C   UNL     1       4.650   3.758  16.720  0.00  0.00    +0.000 A 
ATOM      5  O   UNL     1       5.290   3.302  15.776  0.00  0.00    +0.000 OA
ATOM      6  N   UNL     1       3.289   3.713  16.676  0.00  0.00    +0.000 N 
ATOM      7  C   UNL     1       2.452   4.303  17.572  0.00  0.00    +0.000 A 
ATOM      8  O   UNL     1       1.249   4.409  17.365  0.00  0.00    +0.000 OA
ATOM      9  H   UNL     1       2.881   3.361  15.823  0.00  0.00    +0.000 HD
ENDROOT
BRANCH   1  10
ATOM     10  N   UNL     1       2.287   5.250  19.849  0.00  0.00    +0.000 N 
ATOM     11  C   UNL     1       1.951   6.596  19.998  0.00  0.00    +0.000 C 
ATOM     12  O   UNL     1       1.240   6.987  20.925  0.00  0.00    +0.000 OA
BRANCH  10  13
ATOM     13  C   UNL     1       1.910   4.289  20.896  0.00  0.00    +0.000 C 
BRANCH  13  14
ATOM     14  C   UNL     1       2.371   2.847  20.623  0.00  0.00    +0.000 C 
BRANCH  14  16
ATOM     15  C   UNL     1       4.475   1.795  20.581  0.00  0.00    +0.000 C 
ATOM     16  O   UNL     1       3.548   2.530  21.381  0.00  0.00    +0.000 OA
ENDBRANCH  14  16
ENDBRANCH  13  14
ENDBRANCH  10  13
BRANCH  11  17
ATOM     17  C   UNL     1       2.440   7.587  18.921  0.00  0.00    +0.000 C 
BRANCH  17  18
ATOM     18  O   UNL     1       1.430   8.164  18.095  0.00  0.00    +0.000 OA
BRANCH  18  19
ATOM     19  C   UNL     1       1.447   9.519  18.020  0.00  0.00    +0.000 C 
ATOM     20  O   UNL     1       2.352  10.211  17.587  0.00  0.00    +0.000 OA
BRANCH  19  21
ATOM     21  C   UNL     1       0.159  10.102  18.504  0.00  0.00    +0.000 C 
ATOM     22  C   UNL     1      -1.027   9.855  17.602  0.00  0.00    +0.000 C 
ATOM     23  C   UNL     1       0.002  10.113  20.020  0.00  0.00    +0.000 C 
ATOM     24  C   UNL     1       0.146  11.410  19.277  0.00  0.00    +0.000 C 
ATOM     25 CL   UNL     1       1.622  12.338  19.489  0.00  0.00    +0.000 Cl
ATOM     26 CL   UNL     1      -1.297  12.442  19.328  0.00  0.00    +0.000 Cl
ENDBRANCH  19  21
ENDBRANCH  18  19
ENDBRANCH  17  18
ENDBRANCH  11  17
ENDBRANCH   1  10
BRANCH   2  27
ATOM     27  N   UNL     1       5.048   5.327  20.061  0.00  0.00    +0.000 N 
ATOM     28  H   UNL     1       4.918   4.679  20.851  0.00  0.00    +0.000 HD
ATOM     29  H   UNL     1       4.654   6.222  20.337  0.00  0.00    +0.000 HD
ENDBRANCH   2  27
BRANCH   3  30
ATOM     30  C   UNL     1       6.674   4.474  17.863  0.00  0.00    +0.000 C 
BRANCH  30  31
ATOM     31  C   UNL     1       7.196   5.901  17.833  0.00  0.00    +0.000 A 
ATOM     32  C   UNL     1       6.635   6.825  16.936  0.00  0.00    +0.000 A 
ATOM     33  C   UNL     1       6.984   8.179  16.990  0.00  0.00    +0.000 A 
ATOM     34  C   UNL     1       7.899   8.628  17.937  0.00  0.00    +0.000 A 
ATOM     35  C   UNL     1       8.483   7.723  18.818  0.00  0.00    +0.000 A 
ATOM     36  C   UNL     1       8.134   6.372  18.768  0.00  0.00    +0.000 A 
ENDBRANCH  30  31
ENDBRANCH   3  30
TORSDOF 11
ENDMDL
MODEL 2
REMARK VINA RESULT:      -6.5      6.351      9.813
REMARK  Name = 
REMARK  13 active torsions:
REMARK  status: ('A' for Active; 'I' for Inactive)
REMARK    1  A    between atoms: C_1  and  O_2
REMARK    2  A    between atoms: O_2  and  C_3
REMARK    3  A    between atoms: C_3  and  C_4
REMARK    4  A    between atoms: C_4  and  N_5
REMARK    5  A    between atoms: N_5  and  C_18
REMARK    6  A    between atoms: C_6  and  C_8
REMARK    7  A    between atoms: C_8  and  O_9
REMARK    8  A    between atoms: O_9  and  C_10
REMARK    9  A    between atoms: C_10  and  C_12
REMARK   10  A    between atoms: C_12  and  C_13
REMARK   11  A    between atoms: C_19  and  N_20
REMARK   12  A    between atoms: N_21  and  C_22
REMARK   13  A    between atoms: C_22  and  C_23
REMARK                            x       y       z     vdW  Elec       q    Type
REMARK                         _______ _______ _______ _____ _____    ______ ____
ROOT
ATOM      1  C   UNL     1      -1.415  11.345  19.115  0.00  0.00    +0.000 A 
ATOM      2  C   UNL     1      -2.643  11.915  19.205  0.00  0.00    +0.000 A 
ATOM      3  N   UNL     1      -3.541  11.779  18.149  0.00  0.00    +0.000 N 
ATOM      4  C   UNL     1      -3.200  11.165  16.950  0.00  0.00    +0.000 A 
ATOM      5  O   UNL     1      -3.950  11.056  15.983  0.00  0.00    +0.000 OA
ATOM      6  N   UNL     1      -1.952  10.624  16.878  0.00  0.00    +0.000 N 
ATOM      7  C   UNL     1      -1.070  10.540  17.911  0.00  0.00    +0.000 A 
ATOM      8  O   UNL     1      -0.054   9.857  17.844  0.00  0.00    +0.000 OA
ATOM      9  H   UNL     1      -1.739  10.099  16.044  0.00  0.00    +0.000 HD
ENDROOT
BRANCH   1  10
ATOM     10  N   UNL     1      -0.487  11.442  20.137  0.00  0.00    +0.000 N 
ATOM     11  C   UNL     1       0.530  12.398  20.143  0.00  0.00    +0.000 C 
ATOM     12  O   UNL     1       1.354  12.462  21.057  0.00  0.00    +0.000 OA
BRANCH  10  13
ATOM     13  C   UNL     1      -0.497  10.390  21.165  0.00  0.00    +0.000 C 
BRANCH  13  14
ATOM     14  C   UNL     1       0.701   9.428  21.092  0.00  0.00    +0.000 C 
BRANCH  14  16
ATOM     15  C   UNL     1       0.168   9.458  23.383  0.00  0.00    +0.000 C 
ATOM     16  O   UNL     1       1.109   9.014  22.405  0.00  0.00    +0.000 OA
ENDBRANCH  14  16
ENDBRANCH  13  14
ENDBRANCH  10  13
BRANCH  11  17
ATOM     17  C   UNL     1       0.556  13.433  18.998  0.00  0.00    +0.000 C 
BRANCH  17  18
ATOM     18  O   UNL     1      -0.061  14.689  19.275  0.00  0.00    +0.000 OA
BRANCH  18  19
ATOM     19  C   UNL     1       0.793  15.698  19.584  0.00  0.00    +0.000 C 
ATOM     20  O   UNL     1       1.714  15.651  20.381  0.00  0.00    +0.000 OA
BRANCH  19  21
ATOM     21  C   UNL     1       0.505  16.917  18.770  0.00  0.00    +0.000 C 
ATOM     22  C   UNL     1      -0.947  17.101  18.396  0.00  0.00    +0.000 C 
ATOM     23  C   UNL     1       1.388  18.116  19.096  0.00  0.00    +0.000 C 
ATOM     24  C   UNL     1       1.521  17.433  17.765  0.00  0.00    +0.000 C 
ATOM     25 CL   UNL     1       2.988  16.525  17.431  0.00  0.00    +0.000 Cl
ATOM     26 CL   UNL     1       1.031  18.432  16.382  0.00  0.00    +0.000 Cl
ENDBRANCH  19  21
ENDBRANCH  18  19
ENDBRANCH  17  18
ENDBRANCH  11  17
ENDBRANCH   1  10
BRANCH   2  27
ATOM     27  N   UNL     1      -2.979  12.631  20.353  0.00  0.00    +0.000 N 
ATOM     28  H   UNL     1      -2.192  13.219  20.662  0.00  0.00    +0.000 HD
ATOM     29  H   UNL     1      -3.219  12.019  21.127  0.00  0.00    +0.000 HD
ENDBRANCH   2  27
BRANCH   3  30
ATOM     30  C   UNL     1      -4.905  12.303  18.258  0.00  0.00    +0.000 C 
BRANCH  30  31
ATOM     31  C   UNL     1      -5.829  11.479  19.141  0.00  0.00    +0.000 A 
ATOM     32  C   UNL     1      -6.452  12.084  20.245  0.00  0.00    +0.000 A 
ATOM     33  C   UNL     1      -7.423  11.399  20.984  0.00  0.00    +0.000 A 
ATOM     34  C   UNL     1      -7.783  10.101  20.633  0.00  0.00    +0.000 A 
ATOM     35  C   UNL     1      -7.159   9.478  19.556  0.00  0.00    +0.000 A 
ATOM     36  C   UNL     1      -6.192  10.161  18.816  0.00  0.00    +0.000 A 
ENDBRANCH  30  31
ENDBRANCH   3  30
TORSDOF 11
ENDMDL
MODEL 3
REMARK VINA RESULT:      -6.5      7.501     10.803
REMARK  Name = 
REMARK  13 active torsions:
REMARK  status: ('A' for Active; 'I' for Inactive)
REMARK    1  A    between atoms: C_1  and  O_2
REMARK    2  A    between atoms: O_2  and  C_3
REMARK    3  A    between atoms: C_3  and  C_4
REMARK    4  A    between atoms: C_4  and  N_5
REMARK    5  A    between atoms: N_5  and  C_18
REMARK    6  A    between atoms: C_6  and  C_8
REMARK    7  A    between atoms: C_8  and  O_9
REMARK    8  A    between atoms: O_9  and  C_10
REMARK    9  A    between atoms: C_10  and  C_12
REMARK   10  A    between atoms: C_12  and  C_13
REMARK   11  A    between atoms: C_19  and  N_20
REMARK   12  A    between atoms: N_21  and  C_22
REMARK   13  A    between atoms: C_22  and  C_23
REMARK                            x       y       z     vdW  Elec       q    Type
REMARK                         _______ _______ _______ _____ _____    ______ ____
ROOT
ATOM      1  C   UNL     1      -1.542  12.113  20.254  0.00  0.00    +0.000 A 
ATOM      2  C   UNL     1      -2.723  12.480  19.695  0.00  0.00    +0.000 A 
ATOM      3  N   UNL     1      -3.316  11.656  18.742  0.00  0.00    +0.000 N 
ATOM      4  C   UNL     1      -2.700  10.508  18.256  0.00  0.00    +0.000 A 
ATOM      5  O   UNL     1      -3.173   9.774  17.392  0.00  0.00    +0.000 OA
ATOM      6  N   UNL     1      -1.504  10.178  18.817  0.00  0.00    +0.000 N 
ATOM      7  C   UNL     1      -0.930  10.809  19.878  0.00  0.00    +0.000 A 
ATOM      8  O   UNL     1       0.034  10.339  20.471  0.00  0.00    +0.000 OA
ATOM      9  H   UNL     1      -1.104   9.297  18.531  0.00  0.00    +0.000 HD
ENDROOT
BRANCH   1  10
ATOM     10  N   UNL     1      -0.913  12.890  21.211  0.00  0.00    +0.000 N 
ATOM     11  C   UNL     1      -1.249  12.836  22.565  0.00  0.00    +0.000 C 
ATOM     12  O   UNL     1      -0.685  13.545  23.401  0.00  0.00    +0.000 OA
BRANCH  10  13
ATOM     13  C   UNL     1       0.031  13.915  20.739  0.00  0.00    +0.000 C 
BRANCH  13  14
ATOM     14  C   UNL     1       1.505  13.477  20.779  0.00  0.00    +0.000 C 
BRANCH  14  16
ATOM     15  C   UNL     1       1.890  15.238  19.267  0.00  0.00    +0.000 C 
ATOM     16  O   UNL     1       2.193  13.879  19.585  0.00  0.00    +0.000 OA
ENDBRANCH  14  16
ENDBRANCH  13  14
ENDBRANCH  10  13
BRANCH  11  17
ATOM     17  C   UNL     1      -2.309  11.805  23.006  0.00  0.00    +0.000 C 
BRANCH  17  18
ATOM     18  O   UNL     1      -3.670  12.214  22.885  0.00  0.00    +0.000 OA
BRANCH  18  19
ATOM     19  C   UNL     1      -4.232  12.697  24.023  0.00  0.00    +0.000 C 
ATOM     20  O   UNL     1      -4.498  12.061  25.028  0.00  0.00    +0.000 OA
BRANCH  19  21
ATOM     21  C   UNL     1      -4.458  14.171  23.928  0.00  0.00    +0.000 C 
ATOM     22  C   UNL     1      -3.490  15.013  24.726  0.00  0.00    +0.000 C 
ATOM     23  C   UNL     1      -4.979  14.644  22.576  0.00  0.00    +0.000 C 
ATOM     24  C   UNL     1      -5.864  14.729  23.786  0.00  0.00    +0.000 C 
ATOM     25 CL   UNL     1      -7.261  13.668  23.880  0.00  0.00    +0.000 Cl
ATOM     26 CL   UNL     1      -6.258  16.386  24.285  0.00  0.00    +0.000 Cl
ENDBRANCH  19  21
ENDBRANCH  18  19
ENDBRANCH  17  18
ENDBRANCH  11  17
ENDBRANCH   1  10
BRANCH   2  27
ATOM     27  N   UNL     1      -3.316  13.681  20.082  0.00  0.00    +0.000 N 
ATOM     28  H   UNL     1      -2.877  14.048  20.938  0.00  0.00    +0.000 HD
ATOM     29  H   UNL     1      -4.307  13.571  20.276  0.00  0.00    +0.000 HD
ENDBRANCH   2  27
BRANCH   3  30
ATOM     30  C   UNL     1      -4.635  11.980  18.192  0.00  0.00    +0.000 C 
BRANCH  30  31
ATOM     31  C   UNL     1      -5.806  11.475  19.019  0.00  0.00    +0.000 A 
ATOM     32  C   UNL     1      -6.295  10.176  18.805  0.00  0.00    +0.000 A 
ATOM     33  C   UNL     1      -7.266   9.628  19.650  0.00  0.00    +0.000 A 
ATOM     34  C   UNL     1      -7.762  10.368  20.719  0.00  0.00    +0.000 A 
ATOM     35  C   UNL     1      -7.306  11.665  20.932  0.00  0.00    +0.000 A 
ATOM     36  C   UNL     1      -6.335  12.213  20.092  0.00  0.00    +0.000 A 
ENDBRANCH  30  31
ENDBRANCH   3  30
TORSDOF 11
ENDMDL
MODEL 4
REMARK VINA RESULT:      -6.4      0.792      1.150
REMARK  Name = 
REMARK  13 active torsions:
REMARK  status: ('A' for Active; 'I' for Inactive)
REMARK    1  A    between atoms: C_1  and  O_2
REMARK    2  A    between atoms: O_2  and  C_3
REMARK    3  A    between atoms: C_3  and  C_4
REMARK    4  A    between atoms: C_4  and  N_5
REMARK    5  A    between atoms: N_5  and  C_18
REMARK    6  A    between atoms: C_6  and  C_8
REMARK    7  A    between atoms: C_8  and  O_9
REMARK    8  A    between atoms: O_9  and  C_10
REMARK    9  A    between atoms: C_10  and  C_12
REMARK   10  A    between atoms: C_12  and  C_13
REMARK   11  A    between atoms: C_19  and  N_20
REMARK   12  A    between atoms: N_21  and  C_22
REMARK   13  A    between atoms: C_22  and  C_23
REMARK                            x       y       z     vdW  Elec       q    Type
REMARK                         _______ _______ _______ _____ _____    ______ ____
ROOT
ATOM      1  C   UNL     1       3.286   4.982  18.727  0.00  0.00    +0.000 A 
ATOM      2  C   UNL     1       4.636   5.113  18.744  0.00  0.00    +0.000 A 
ATOM      3  N   UNL     1       5.384   4.652  17.664  0.00  0.00    +0.000 N 
ATOM      4  C   UNL     1       4.815   3.966  16.597  0.00  0.00    +0.000 A 
ATOM      5  O   UNL     1       5.443   3.513  15.643  0.00  0.00    +0.000 OA
ATOM      6  N   UNL     1       3.460   3.827  16.618  0.00  0.00    +0.000 N 
ATOM      7  C   UNL     1       2.624   4.398  17.528  0.00  0.00    +0.000 A 
ATOM      8  O   UNL     1       1.408   4.414  17.373  0.00  0.00    +0.000 OA
ATOM      9  H   UNL     1       3.040   3.412  15.800  0.00  0.00    +0.000 HD
ENDROOT
BRANCH   1  10
ATOM     10  N   UNL     1       2.494   5.429  19.770  0.00  0.00    +0.000 N 
ATOM     11  C   UNL     1       2.052   6.749  19.868  0.00  0.00    +0.000 C 
ATOM     12  O   UNL     1       1.356   7.131  20.811  0.00  0.00    +0.000 OA
BRANCH  10  13
ATOM     13  C   UNL     1       2.254   4.500  20.885  0.00  0.00    +0.000 C 
BRANCH  13  14
ATOM     14  C   UNL     1       1.047   3.569  20.680  0.00  0.00    +0.000 C 
BRANCH  14  16
ATOM     15  C   UNL     1       1.729   1.697  19.429  0.00  0.00    +0.000 C 
ATOM     16  O   UNL     1       1.444   2.191  20.739  0.00  0.00    +0.000 OA
ENDBRANCH  14  16
ENDBRANCH  13  14
ENDBRANCH  10  13
BRANCH  11  17
ATOM     17  C   UNL     1       2.399   7.715  18.715  0.00  0.00    +0.000 C 
BRANCH  17  18
ATOM     18  O   UNL     1       1.294   8.354  18.078  0.00  0.00    +0.000 OA
BRANCH  18  19
ATOM     19  C   UNL     1       1.270   9.707  18.181  0.00  0.00    +0.000 C 
ATOM     20  O   UNL     1       2.181  10.472  17.917  0.00  0.00    +0.000 OA
BRANCH  19  21
ATOM     21  C   UNL     1      -0.073  10.189  18.625  0.00  0.00    +0.000 C 
ATOM     22  C   UNL     1      -1.168  10.056  17.594  0.00  0.00    +0.000 C 
ATOM     23  C   UNL     1      -0.361   9.976  20.107  0.00  0.00    +0.000 C 
ATOM     24  C   UNL     1      -0.194  11.369  19.575  0.00  0.00    +0.000 C 
ATOM     25 CL   UNL     1       1.230  12.284  20.049  0.00  0.00    +0.000 Cl
ATOM     26 CL   UNL     1      -1.667  12.357  19.643  0.00  0.00    +0.000 Cl
ENDBRANCH  19  21
ENDBRANCH  18  19
ENDBRANCH  17  18
ENDBRANCH  11  17
ENDBRANCH   1  10
BRANCH   2  27
ATOM     27  N   UNL     1       5.249   5.700  19.850  0.00  0.00    +0.000 N 
ATOM     28  H   UNL     1       5.910   5.047  20.294  0.00  0.00    +0.000 HD
ATOM     29  H   UNL     1       4.575   5.974  20.559  0.00  0.00    +0.000 HD
ENDBRANCH   2  27
BRANCH   3  30
ATOM     30  C   UNL     1       6.833   4.865  17.614  0.00  0.00    +0.000 C 
BRANCH  30  31
ATOM     31  C   UNL     1       7.270   6.297  17.877  0.00  0.00    +0.000 A 
ATOM     32  C   UNL     1       8.196   6.561  18.900  0.00  0.00    +0.000 A 
ATOM     33  C   UNL     1       8.733   7.842  19.066  0.00  0.00    +0.000 A 
ATOM     34  C   UNL     1       8.354   8.876  18.216  0.00  0.00    +0.000 A 
ATOM     35  C   UNL     1       7.420   8.638  17.211  0.00  0.00    +0.000 A 
ATOM     36  C   UNL     1       6.885   7.359  17.042  0.00  0.00    +0.000 A 
ENDBRANCH  30  31
ENDBRANCH   3  30
TORSDOF 11
ENDMDL
MODEL 5
REMARK VINA RESULT:      -6.4      7.065     10.914
REMARK  Name = 
REMARK  13 active torsions:
REMARK  status: ('A' for Active; 'I' for Inactive)
REMARK    1  A    between atoms: C_1  and  O_2
REMARK    2  A    between atoms: O_2  and  C_3
REMARK    3  A    between atoms: C_3  and  C_4
REMARK    4  A    between atoms: C_4  and  N_5
REMARK    5  A    between atoms: N_5  and  C_18
REMARK    6  A    between atoms: C_6  and  C_8
REMARK    7  A    between atoms: C_8  and  O_9
REMARK    8  A    between atoms: O_9  and  C_10
REMARK    9  A    between atoms: C_10  and  C_12
REMARK   10  A    between atoms: C_12  and  C_13
REMARK   11  A    between atoms: C_19  and  N_20
REMARK   12  A    between atoms: N_21  and  C_22
REMARK   13  A    between atoms: C_22  and  C_23
REMARK                            x       y       z     vdW  Elec       q    Type
REMARK                         _______ _______ _______ _____ _____    ______ ____
ROOT
ATOM      1  C   UNL     1      -3.794  13.405  22.114  0.00  0.00    +0.000 A 
ATOM      2  C   UNL     1      -3.874  13.380  20.759  0.00  0.00    +0.000 A 
ATOM      3  N   UNL     1      -4.972  12.780  20.148  0.00  0.00    +0.000 N 
ATOM      4  C   UNL     1      -5.955  12.108  20.867  0.00  0.00    +0.000 A 
ATOM      5  O   UNL     1      -6.919  11.536  20.364  0.00  0.00    +0.000 OA
ATOM      6  N   UNL     1      -5.835  12.127  22.223  0.00  0.00    +0.000 N 
ATOM      7  C   UNL     1      -4.909  12.838  22.922  0.00  0.00    +0.000 A 
ATOM      8  O   UNL     1      -4.982  12.986  24.137  0.00  0.00    +0.000 OA
ATOM      9  H   UNL     1      -6.597  11.720  22.745  0.00  0.00    +0.000 HD
ENDROOT
BRANCH   1  10
ATOM     10  N   UNL     1      -2.729  13.995  22.773  0.00  0.00    +0.000 N 
ATOM     11  C   UNL     1      -1.605  13.276  23.181  0.00  0.00    +0.000 C 
ATOM     12  O   UNL     1      -0.672  13.816  23.777  0.00  0.00    +0.000 OA
BRANCH  10  13
ATOM     13  C   UNL     1      -2.880  15.399  23.184  0.00  0.00    +0.000 C 
BRANCH  13  14
ATOM     14  C   UNL     1      -3.219  15.585  24.673  0.00  0.00    +0.000 C 
BRANCH  14  16
ATOM     15  C   UNL     1      -4.801  17.094  23.806  0.00  0.00    +0.000 C 
ATOM     16  O   UNL     1      -4.531  16.143  24.837  0.00  0.00    +0.000 OA
ENDBRANCH  14  16
ENDBRANCH  13  14
ENDBRANCH  10  13
BRANCH  11  17
ATOM     17  C   UNL     1      -1.526  11.782  22.803  0.00  0.00    +0.000 C 
BRANCH  17  18
ATOM     18  O   UNL     1      -1.113  11.494  21.468  0.00  0.00    +0.000 OA
BRANCH  18  19
ATOM     19  C   UNL     1       0.171  11.074  21.337  0.00  0.00    +0.000 C 
ATOM     20  O   UNL     1       0.893  10.658  22.226  0.00  0.00    +0.000 OA
BRANCH  19  21
ATOM     21  C   UNL     1       0.614  11.129  19.911  0.00  0.00    +0.000 C 
ATOM     22  C   UNL     1       0.750   9.784  19.237  0.00  0.00    +0.000 C 
ATOM     23  C   UNL     1       0.110  12.344  19.141  0.00  0.00    +0.000 C 
ATOM     24  C   UNL     1       1.575  12.208  19.442  0.00  0.00    +0.000 C 
ATOM     25 CL   UNL     1       2.301  13.320  20.593  0.00  0.00    +0.000 Cl
ATOM     26 CL   UNL     1       2.595  11.981  18.008  0.00  0.00    +0.000 Cl
ENDBRANCH  19  21
ENDBRANCH  18  19
ENDBRANCH  17  18
ENDBRANCH  11  17
ENDBRANCH   1  10
BRANCH   2  27
ATOM     27  N   UNL     1      -2.850  13.952  20.006  0.00  0.00    +0.000 N 
ATOM     28  H   UNL     1      -2.503  13.290  19.297  0.00  0.00    +0.000 HD
ATOM     29  H   UNL     1      -2.057  14.219  20.582  0.00  0.00    +0.000 HD
ENDBRANCH   2  27
BRANCH   3  30
ATOM     30  C   UNL     1      -5.131  12.822  18.692  0.00  0.00    +0.000 C 
BRANCH  30  31
ATOM     31  C   UNL     1      -4.398  11.719  17.945  0.00  0.00    +0.000 A 
ATOM     32  C   UNL     1      -4.623  11.548  16.569  0.00  0.00    +0.000 A 
ATOM     33  C   UNL     1      -3.854  10.649  15.824  0.00  0.00    +0.000 A 
ATOM     34  C   UNL     1      -2.852   9.906  16.441  0.00  0.00    +0.000 A 
ATOM     35  C   UNL     1      -2.631  10.046  17.808  0.00  0.00    +0.000 A 
ATOM     36  C   UNL     1      -3.395  10.946  18.553  0.00  0.00    +0.000 A 
ENDBRANCH  30  31
ENDBRANCH   3  30
TORSDOF 11
ENDMDL
MODEL 6
REMARK VINA RESULT:      -6.3      5.681     10.363
REMARK  Name = 
REMARK  13 active torsions:
REMARK  status: ('A' for Active; 'I' for Inactive)
REMARK    1  A    between atoms: C_1  and  O_2
REMARK    2  A    between atoms: O_2  and  C_3
REMARK    3  A    between atoms: C_3  and  C_4
REMARK    4  A    between atoms: C_4  and  N_5
REMARK    5  A    between atoms: N_5  and  C_18
REMARK    6  A    between atoms: C_6  and  C_8
REMARK    7  A    between atoms: C_8  and  O_9
REMARK    8  A    between atoms: O_9  and  C_10
REMARK    9  A    between atoms: C_10  and  C_12
REMARK   10  A    between atoms: C_12  and  C_13
REMARK   11  A    between atoms: C_19  and  N_20
REMARK   12  A    between atoms: N_21  and  C_22
REMARK   13  A    between atoms: C_22  and  C_23
REMARK                            x       y       z     vdW  Elec       q    Type
REMARK                         _______ _______ _______ _____ _____    ______ ____
ROOT
ATOM      1  C   UNL     1      -0.823  11.862  20.661  0.00  0.00    +0.000 A 
ATOM      2  C   UNL     1      -2.000  12.522  20.522  0.00  0.00    +0.000 A 
ATOM      3  N   UNL     1      -2.864  12.621  21.610  0.00  0.00    +0.000 N 
ATOM      4  C   UNL     1      -2.619  11.983  22.821  0.00  0.00    +0.000 A 
ATOM      5  O   UNL     1      -3.371  12.016  23.792  0.00  0.00    +0.000 OA
ATOM      6  N   UNL     1      -1.442  11.306  22.924  0.00  0.00    +0.000 N 
ATOM      7  C   UNL     1      -0.452  11.303  21.990  0.00  0.00    +0.000 A 
ATOM      8  O   UNL     1       0.665  10.855  22.228  0.00  0.00    +0.000 OA
ATOM      9  H   UNL     1      -1.224  10.923  23.831  0.00  0.00    +0.000 HD
ENDROOT
BRANCH   1  10
ATOM     10  N   UNL     1       0.075  11.740  19.615  0.00  0.00    +0.000 N 
ATOM     11  C   UNL     1       0.935  12.772  19.238  0.00  0.00    +0.000 C 
ATOM     12  O   UNL     1       1.721  12.648  18.296  0.00  0.00    +0.000 OA
BRANCH  10  13
ATOM     13  C   UNL     1      -0.009  10.527  18.787  0.00  0.00    +0.000 C 
BRANCH  13  14
ATOM     14  C   UNL     1       1.073   9.478  19.098  0.00  0.00    +0.000 C 
BRANCH  14  16
ATOM     15  C   UNL     1       2.533   8.121  17.849  0.00  0.00    +0.000 C 
ATOM     16  O   UNL     1       2.078   9.456  18.072  0.00  0.00    +0.000 OA
ENDBRANCH  14  16
ENDBRANCH  13  14
ENDBRANCH  10  13
BRANCH  11  17
ATOM     17  C   UNL     1       0.930  14.063  20.082  0.00  0.00    +0.000 C 
BRANCH  17  18
ATOM     18  O   UNL     1       0.105  15.123  19.602  0.00  0.00    +0.000 OA
BRANCH  18  19
ATOM     19  C   UNL     1       0.441  16.363  20.040  0.00  0.00    +0.000 C 
ATOM     20  O   UNL     1       0.951  16.641  21.111  0.00  0.00    +0.000 OA
BRANCH  19  21
ATOM     21  C   UNL     1       0.153  17.398  19.002  0.00  0.00    +0.000 C 
ATOM     22  C   UNL     1      -1.304  17.533  18.628  0.00  0.00    +0.000 C 
ATOM     23  C   UNL     1       1.063  18.619  19.059  0.00  0.00    +0.000 C 
ATOM     24  C   UNL     1       1.152  17.678  17.892  0.00  0.00    +0.000 C 
ATOM     25 CL   UNL     1       2.595  16.691  17.718  0.00  0.00    +0.000 Cl
ATOM     26 CL   UNL     1       0.646  18.386  16.346  0.00  0.00    +0.000 Cl
ENDBRANCH  19  21
ENDBRANCH  18  19
ENDBRANCH  17  18
ENDBRANCH  11  17
ENDBRANCH   1  10
BRANCH   2  27
ATOM     27  N   UNL     1      -2.325  13.083  19.288  0.00  0.00    +0.000 N 
ATOM     28  H   UNL     1      -1.475  13.321  18.758  0.00  0.00    +0.000 HD
ATOM     29  H   UNL     1      -2.866  13.937  19.389  0.00  0.00    +0.000 HD
ENDBRANCH   2  27
BRANCH   3  30
ATOM     30  C   UNL     1      -4.096  13.407  21.516  0.00  0.00    +0.000 C 
BRANCH  30  31
ATOM     31  C   UNL     1      -5.350  12.588  21.255  0.00  0.00    +0.000 A 
ATOM     32  C   UNL     1      -6.401  12.616  22.187  0.00  0.00    +0.000 A 
ATOM     33  C   UNL     1      -7.624  11.999  21.905  0.00  0.00    +0.000 A 
ATOM     34  C   UNL     1      -7.815  11.343  20.693  0.00  0.00    +0.000 A 
ATOM     35  C   UNL     1      -6.776  11.285  19.768  0.00  0.00    +0.000 A 
ATOM     36  C   UNL     1      -5.555  11.903  20.046  0.00  0.00    +0.000 A 
ENDBRANCH  30  31
ENDBRANCH   3  30
TORSDOF 11
ENDMDL
MODEL 7
REMARK VINA RESULT:      -6.2      2.203      3.413
REMARK  Name = 
REMARK  13 active torsions:
REMARK  status: ('A' for Active; 'I' for Inactive)
REMARK    1  A    between atoms: C_1  and  O_2
REMARK    2  A    between atoms: O_2  and  C_3
REMARK    3  A    between atoms: C_3  and  C_4
REMARK    4  A    between atoms: C_4  and  N_5
REMARK    5  A    between atoms: N_5  and  C_18
REMARK    6  A    between atoms: C_6  and  C_8
REMARK    7  A    between atoms: C_8  and  O_9
REMARK    8  A    between atoms: O_9  and  C_10
REMARK    9  A    between atoms: C_10  and  C_12
REMARK   10  A    between atoms: C_12  and  C_13
REMARK   11  A    between atoms: C_19  and  N_20
REMARK   12  A    between atoms: N_21  and  C_22
REMARK   13  A    between atoms: C_22  and  C_23
REMARK                            x       y       z     vdW  Elec       q    Type
REMARK                         _______ _______ _______ _____ _____    ______ ____
ROOT
ATOM      1  C   UNL     1       4.009   4.487  18.851  0.00  0.00    +0.000 A 
ATOM      2  C   UNL     1       4.164   5.206  17.711  0.00  0.00    +0.000 A 
ATOM      3  N   UNL     1       5.440   5.393  17.185  0.00  0.00    +0.000 N 
ATOM      4  C   UNL     1       6.589   4.955  17.834  0.00  0.00    +0.000 A 
ATOM      5  O   UNL     1       7.733   5.130  17.422  0.00  0.00    +0.000 OA
ATOM      6  N   UNL     1       6.405   4.257  18.989  0.00  0.00    +0.000 N 
ATOM      7  C   UNL     1       5.202   3.863  19.488  0.00  0.00    +0.000 A 
ATOM      8  O   UNL     1       5.112   3.061  20.410  0.00  0.00    +0.000 OA
ATOM      9  H   UNL     1       7.233   3.861  19.408  0.00  0.00    +0.000 HD
ENDROOT
BRANCH   1  10
ATOM     10  N   UNL     1       2.764   4.265  19.412  0.00  0.00    +0.000 N 
ATOM     11  C   UNL     1       2.098   5.228  20.171  0.00  0.00    +0.000 C 
ATOM     12  O   UNL     1       0.994   5.007  20.673  0.00  0.00    +0.000 OA
BRANCH  10  13
ATOM     13  C   UNL     1       2.214   2.903  19.324  0.00  0.00    +0.000 C 
BRANCH  13  14
ATOM     14  C   UNL     1       1.918   2.436  17.889  0.00  0.00    +0.000 C 
BRANCH  14  16
ATOM     15  C   UNL     1       3.729   0.995  18.309  0.00  0.00    +0.000 C 
ATOM     16  O   UNL     1       3.058   1.774  17.318  0.00  0.00    +0.000 OA
ENDBRANCH  14  16
ENDBRANCH  13  14
ENDBRANCH  10  13
BRANCH  11  17
ATOM     17  C   UNL     1       2.752   6.619  20.310  0.00  0.00    +0.000 C 
BRANCH  17  18
ATOM     18  O   UNL     1       2.266   7.631  19.430  0.00  0.00    +0.000 OA
BRANCH  18  19
ATOM     19  C   UNL     1       1.398   8.514  19.986  0.00  0.00    +0.000 C 
ATOM     20  O   UNL     1       0.920   8.455  21.106  0.00  0.00    +0.000 OA
BRANCH  19  21
ATOM     21  C   UNL     1       1.114   9.649  19.057  0.00  0.00    +0.000 C 
ATOM     22  C   UNL     1       1.932   9.649  17.787  0.00  0.00    +0.000 C 
ATOM     23  C   UNL     1      -0.338  10.112  19.053  0.00  0.00    +0.000 C 
ATOM     24  C   UNL     1       0.730  11.014  19.601  0.00  0.00    +0.000 C 
ATOM     25 CL   UNL     1       0.758  11.329  21.329  0.00  0.00    +0.000 Cl
ATOM     26 CL   UNL     1       0.988  12.494  18.656  0.00  0.00    +0.000 Cl
ENDBRANCH  19  21
ENDBRANCH  18  19
ENDBRANCH  17  18
ENDBRANCH  11  17
ENDBRANCH   1  10
BRANCH   2  27
ATOM     27  N   UNL     1       3.040   5.752  17.092  0.00  0.00    +0.000 N 
ATOM     28  H   UNL     1       2.532   6.375  17.736  0.00  0.00    +0.000 HD
ATOM     29  H   UNL     1       2.387   5.035  16.789  0.00  0.00    +0.000 HD
ENDBRANCH   2  27
BRANCH   3  30
ATOM     30  C   UNL     1       5.626   6.084  15.907  0.00  0.00    +0.000 C 
BRANCH  30  31
ATOM     31  C   UNL     1       6.008   5.177  14.748  0.00  0.00    +0.000 A 
ATOM     32  C   UNL     1       5.077   4.243  14.265  0.00  0.00    +0.000 A 
ATOM     33  C   UNL     1       5.340   3.504  13.107  0.00  0.00    +0.000 A 
ATOM     34  C   UNL     1       6.535   3.684  12.417  0.00  0.00    +0.000 A 
ATOM     35  C   UNL     1       7.478   4.589  12.894  0.00  0.00    +0.000 A 
ATOM     36  C   UNL     1       7.217   5.331  14.048  0.00  0.00    +0.000 A 
ENDBRANCH  30  31
ENDBRANCH   3  30
TORSDOF 11
ENDMDL
MODEL 8
REMARK VINA RESULT:      -6.2      2.277      3.431
REMARK  Name = 
REMARK  13 active torsions:
REMARK  status: ('A' for Active; 'I' for Inactive)
REMARK    1  A    between atoms: C_1  and  O_2
REMARK    2  A    between atoms: O_2  and  C_3
REMARK    3  A    between atoms: C_3  and  C_4
REMARK    4  A    between atoms: C_4  and  N_5
REMARK    5  A    between atoms: N_5  and  C_18
REMARK    6  A    between atoms: C_6  and  C_8
REMARK    7  A    between atoms: C_8  and  O_9
REMARK    8  A    between atoms: O_9  and  C_10
REMARK    9  A    between atoms: C_10  and  C_12
REMARK   10  A    between atoms: C_12  and  C_13
REMARK   11  A    between atoms: C_19  and  N_20
REMARK   12  A    between atoms: N_21  and  C_22
REMARK   13  A    between atoms: C_22  and  C_23
REMARK                            x       y       z     vdW  Elec       q    Type
REMARK                         _______ _______ _______ _____ _____    ______ ____
ROOT
ATOM      1  C   UNL     1       3.998   4.451  18.379  0.00  0.00    +0.000 A 
ATOM      2  C   UNL     1       4.366   5.200  17.310  0.00  0.00    +0.000 A 
ATOM      3  N   UNL     1       5.711   5.278  16.957  0.00  0.00    +0.000 N 
ATOM      4  C   UNL     1       6.720   4.697  17.717  0.00  0.00    +0.000 A 
ATOM      5  O   UNL     1       7.919   4.772  17.461  0.00  0.00    +0.000 OA
ATOM      6  N   UNL     1       6.323   3.973  18.800  0.00  0.00    +0.000 N 
ATOM      7  C   UNL     1       5.033   3.682  19.124  0.00  0.00    +0.000 A 
ATOM      8  O   UNL     1       4.749   2.854  19.981  0.00  0.00    +0.000 OA
ATOM      9  H   UNL     1       7.048   3.476  19.296  0.00  0.00    +0.000 HD
ENDROOT
BRANCH   1  10
ATOM     10  N   UNL     1       2.675   4.333  18.769  0.00  0.00    +0.000 N 
ATOM     11  C   UNL     1       2.040   5.281  19.572  0.00  0.00    +0.000 C 
ATOM     12  O   UNL     1       0.864   5.153  19.918  0.00  0.00    +0.000 OA
BRANCH  10  13
ATOM     13  C   UNL     1       1.982   3.077  18.443  0.00  0.00    +0.000 C 
BRANCH  13  14
ATOM     14  C   UNL     1       2.087   1.999  19.535  0.00  0.00    +0.000 C 
BRANCH  14  16
ATOM     15  C   UNL     1       1.759   2.484  21.813  0.00  0.00    +0.000 C 
ATOM     16  O   UNL     1       1.114   2.215  20.568  0.00  0.00    +0.000 OA
ENDBRANCH  14  16
ENDBRANCH  13  14
ENDBRANCH  10  13
BRANCH  11  17
ATOM     17  C   UNL     1       2.833   6.546  19.963  0.00  0.00    +0.000 C 
BRANCH  17  18
ATOM     18  O   UNL     1       2.055   7.686  20.324  0.00  0.00    +0.000 OA
BRANCH  18  19
ATOM     19  C   UNL     1       1.743   8.521  19.301  0.00  0.00    +0.000 C 
ATOM     20  O   UNL     1       1.962   8.332  18.117  0.00  0.00    +0.000 OA
BRANCH  19  21
ATOM     21  C   UNL     1       1.022   9.733  19.795  0.00  0.00    +0.000 C 
ATOM     22  C   UNL     1       0.870   9.813  21.295  0.00  0.00    +0.000 C 
ATOM     23  C   UNL     1       1.257  10.989  18.963  0.00  0.00    +0.000 C 
ATOM     24  C   UNL     1      -0.102  10.350  18.979  0.00  0.00    +0.000 C 
ATOM     25 CL   UNL     1      -0.677   9.566  17.515  0.00  0.00    +0.000 Cl
ATOM     26 CL   UNL     1      -1.363  11.340  19.738  0.00  0.00    +0.000 Cl
ENDBRANCH  19  21
ENDBRANCH  18  19
ENDBRANCH  17  18
ENDBRANCH  11  17
ENDBRANCH   1  10
BRANCH   2  27
ATOM     27  N   UNL     1       3.389   5.883  16.588  0.00  0.00    +0.000 N 
ATOM     28  H   UNL     1       3.417   6.891  16.795  0.00  0.00    +0.000 HD
ATOM     29  H   UNL     1       2.453   5.556  16.810  0.00  0.00    +0.000 HD
ENDBRANCH   2  27
BRANCH   3  30
ATOM     30  C   UNL     1       6.126   6.001  15.752  0.00  0.00    +0.000 C 
BRANCH  30  31
ATOM     31  C   UNL     1       6.388   5.117  14.544  0.00  0.00    +0.000 A 
ATOM     32  C   UNL     1       5.438   4.149  14.176  0.00  0.00    +0.000 A 
ATOM     33  C   UNL     1       5.575   3.428  12.985  0.00  0.00    +0.000 A 
ATOM     34  C   UNL     1       6.661   3.661  12.147  0.00  0.00    +0.000 A 
ATOM     35  C   UNL     1       7.623   4.599  12.507  0.00  0.00    +0.000 A 
ATOM     36  C   UNL     1       7.487   5.323  13.693  0.00  0.00    +0.000 A 
ENDBRANCH  30  31
ENDBRANCH   3  30
TORSDOF 11
ENDMDL
MODEL 9
REMARK VINA RESULT:      -6.2      7.125     10.076
REMARK  Name = 
REMARK  13 active torsions:
REMARK  status: ('A' for Active; 'I' for Inactive)
REMARK    1  A    between atoms: C_1  and  O_2
REMARK    2  A    between atoms: O_2  and  C_3
REMARK    3  A    between atoms: C_3  and  C_4
REMARK    4  A    between atoms: C_4  and  N_5
REMARK    5  A    between atoms: N_5  and  C_18
REMARK    6  A    between atoms: C_6  and  C_8
REMARK    7  A    between atoms: C_8  and  O_9
REMARK    8  A    between atoms: O_9  and  C_10
REMARK    9  A    between atoms: C_10  and  C_12
REMARK   10  A    between atoms: C_12  and  C_13
REMARK   11  A    between atoms: C_19  and  N_20
REMARK   12  A    between atoms: N_21  and  C_22
REMARK   13  A    between atoms: C_22  and  C_23
REMARK                            x       y       z     vdW  Elec       q    Type
REMARK                         _______ _______ _______ _____ _____    ______ ____
ROOT
ATOM      1  C   UNL     1      -1.776  11.514  18.956  0.00  0.00    +0.000 A 
ATOM      2  C   UNL     1      -3.020  12.056  18.977  0.00  0.00    +0.000 A 
ATOM      3  N   UNL     1      -3.920  11.745  17.961  0.00  0.00    +0.000 N 
ATOM      4  C   UNL     1      -3.569  10.974  16.858  0.00  0.00    +0.000 A 
ATOM      5  O   UNL     1      -4.321  10.706  15.925  0.00  0.00    +0.000 OA
ATOM      6  N   UNL     1      -2.306  10.464  16.852  0.00  0.00    +0.000 N 
ATOM      7  C   UNL     1      -1.415  10.554  17.877  0.00  0.00    +0.000 A 
ATOM      8  O   UNL     1      -0.380   9.898  17.899  0.00  0.00    +0.000 OA
ATOM      9  H   UNL     1      -2.083   9.830  16.099  0.00  0.00    +0.000 HD
ENDROOT
BRANCH   1  10
ATOM     10  N   UNL     1      -0.845  11.783  19.945  0.00  0.00    +0.000 N 
ATOM     11  C   UNL     1       0.085  12.818  19.840  0.00  0.00    +0.000 C 
ATOM     12  O   UNL     1       0.915  13.035  20.726  0.00  0.00    +0.000 OA
BRANCH  10  13
ATOM     13  C   UNL     1      -0.750  10.833  21.064  0.00  0.00    +0.000 C 
BRANCH  13  14
ATOM     14  C   UNL     1      -1.270  11.385  22.402  0.00  0.00    +0.000 C 
BRANCH  14  16
ATOM     15  C   UNL     1      -0.063   9.473  23.050  0.00  0.00    +0.000 C 
ATOM     16  O   UNL     1      -0.714  10.658  23.509  0.00  0.00    +0.000 OA
ENDBRANCH  14  16
ENDBRANCH  13  14
ENDBRANCH  10  13
BRANCH  11  17
ATOM     17  C   UNL     1       0.006  13.741  18.606  0.00  0.00    +0.000 C 
BRANCH  17  18
ATOM     18  O   UNL     1       0.869  14.877  18.616  0.00  0.00    +0.000 OA
BRANCH  18  19
ATOM     19  C   UNL     1       0.272  16.054  18.931  0.00  0.00    +0.000 C 
ATOM     20  O   UNL     1      -0.600  16.620  18.295  0.00  0.00    +0.000 OA
BRANCH  19  21
ATOM     21  C   UNL     1       0.785  16.587  20.229  0.00  0.00    +0.000 C 
ATOM     22  C   UNL     1       2.281  16.483  20.411  0.00  0.00    +0.000 C 
ATOM     23  C   UNL     1       0.011  17.784  20.769  0.00  0.00    +0.000 C 
ATOM     24  C   UNL     1      -0.048  16.471  21.495  0.00  0.00    +0.000 C 
ATOM     25 CL   UNL     1      -1.561  15.578  21.490  0.00  0.00    +0.000 Cl
ATOM     26 CL   UNL     1       0.702  16.494  23.103  0.00  0.00    +0.000 Cl
ENDBRANCH  19  21
ENDBRANCH  18  19
ENDBRANCH  17  18
ENDBRANCH  11  17
ENDBRANCH   1  10
BRANCH   2  27
ATOM     27  N   UNL     1      -3.370  12.920  20.013  0.00  0.00    +0.000 N 
ATOM     28  H   UNL     1      -2.555  13.467  20.326  0.00  0.00    +0.000 HD
ATOM     29  H   UNL     1      -3.725  12.419  20.823  0.00  0.00    +0.000 HD
ENDBRANCH   2  27
BRANCH   3  30
ATOM     30  C   UNL     1      -5.299  12.240  18.008  0.00  0.00    +0.000 C 
BRANCH  30  31
ATOM     31  C   UNL     1      -6.227  11.438  18.906  0.00  0.00    +0.000 A 
ATOM     32  C   UNL     1      -6.383  10.059  18.685  0.00  0.00    +0.000 A 
ATOM     33  C   UNL     1      -7.105   9.268  19.584  0.00  0.00    +0.000 A 
ATOM     34  C   UNL     1      -7.684   9.840  20.713  0.00  0.00    +0.000 A 
ATOM     35  C   UNL     1      -7.560  11.208  20.934  0.00  0.00    +0.000 A 
ATOM     36  C   UNL     1      -6.836  12.000  20.040  0.00  0.00    +0.000 A 
ENDBRANCH  30  31
ENDBRANCH   3  30
TORSDOF 11
ENDMDL
