MODEL 1
REMARK VINA RESULT:      -8.4      0.000      0.000
REMARK  Name = 
REMARK  6 active torsions:
REMARK  status: ('A' for Active; 'I' for Inactive)
REMARK    1  A    between atoms: C_2  and  C_4
REMARK    2  A    between atoms: N_6  and  C_7
REMARK    3  A    between atoms: C_9  and  C_10
REMARK    4  A    between atoms: N_12  and  C_13
REMARK    5  A    between atoms: C_13  and  C_14
REMARK    6  A    between atoms: C_21  and  O_22
REMARK                            x       y       z     vdW  Elec       q    Type
REMARK                         _______ _______ _______ _____ _____    ______ ____
ROOT
ATOM      1  C   UNL     1      -1.072  11.008  19.123  0.00  0.00    +0.000 A 
ATOM      2  N   UNL     1      -0.161  10.059  18.855  0.00  0.00    +0.000 NA
ATOM      3  C   UNL     1       0.657   9.668  19.856  0.00  0.00    +0.000 A 
ATOM      4  C   UNL     1       0.605  10.188  21.139  0.00  0.00    +0.000 A 
ATOM      5  C   UNL     1      -0.342  11.166  21.429  0.00  0.00    +0.000 A 
ATOM      6  N   UNL     1      -0.421  11.662  22.685  0.00  0.00    +0.000 NA
ATOM      7  C   UNL     1      -1.350  12.589  22.981  0.00  0.00    +0.000 A 
ATOM      8  C   UNL     1      -2.240  13.086  22.058  0.00  0.00    +0.000 A 
ATOM      9  C   UNL     1      -2.166  12.596  20.757  0.00  0.00    +0.000 A 
ATOM     10  C   UNL     1      -1.213  11.604  20.404  0.00  0.00    +0.000 A 
ENDROOT
BRANCH   1  13
ATOM     11  C   UNL     1      -2.897  10.569  17.530  0.00  0.00    +0.000 C 
ATOM     12  O   UNL     1      -3.203   9.417  17.814  0.00  0.00    +0.000 OA
ATOM     13  N   UNL     1      -1.920  11.381  18.068  0.00  0.00    +0.000 N 
ATOM     14  H   UNL     1      -1.862  12.308  17.667  0.00  0.00    +0.000 HD
BRANCH  11  16
ATOM     15  N   UNL     1      -4.653  12.151  16.905  0.00  0.00    +0.000 N 
ATOM     16  C   UNL     1      -3.706  11.287  16.434  0.00  0.00    +0.000 C 
ATOM     17  O   UNL     1      -3.470  11.079  15.254  0.00  0.00    +0.000 OA
ATOM     18  H   UNL     1      -5.231  12.678  16.268  0.00  0.00    +0.000 HD
ATOM     19  H   UNL     1      -4.775  12.253  17.908  0.00  0.00    +0.000 HD
ENDBRANCH  11  16
ENDBRANCH   1  13
BRANCH   3  20
ATOM     20  C   UNL     1       1.624   8.578  19.511  0.00  0.00    +0.000 C 
ATOM     21  O   UNL     1       2.309   8.670  18.497  0.00  0.00    +0.000 OA
ATOM     22  N   UNL     1       1.694   7.527  20.399  0.00  0.00    +0.000 N 
ATOM     23  H   UNL     1       1.092   7.564  21.223  0.00  0.00    +0.000 HD
BRANCH  22  24
ATOM     24  C   UNL     1       2.666   6.473  20.258  0.00  0.00    +0.000 C 
BRANCH  24  25
ATOM     25  C   UNL     1       2.049   5.184  19.779  0.00  0.00    +0.000 A 
ATOM     26  C   UNL     1       2.131   4.823  18.424  0.00  0.00    +0.000 A 
ATOM     27  C   UNL     1       1.618   3.601  17.986  0.00  0.00    +0.000 A 
ATOM     28  C   UNL     1       1.010   2.748  18.900  0.00  0.00    +0.000 A 
ATOM     29  F   UNL     1       0.534   1.566  18.484  0.00  0.00    +0.000 F 
ATOM     30  C   UNL     1       0.895   3.098  20.240  0.00  0.00    +0.000 A 
ATOM     31  C   UNL     1       1.409   4.319  20.679  0.00  0.00    +0.000 A 
ENDBRANCH  24  25
ENDBRANCH  22  24
ENDBRANCH   3  20
BRANCH   4  32
ATOM     32  O   UNL     1       1.446   9.760  22.144  0.00  0.00    +0.000 OA
ATOM     33  H   UNL     1       1.497   8.778  22.124  0.00  0.00    +0.000 HD
ENDBRANCH   4  32
TORSDOF 6
ENDMDL
MODEL 2
REMARK VINA RESULT:      -8.3      4.069      8.848
REMARK  Name = 
REMARK  6 active torsions:
REMARK  status: ('A' for Active; 'I' for Inactive)
REMARK    1  A    between atoms: C_2  and  C_4
REMARK    2  A    between atoms: N_6  and  C_7
REMARK    3  A    between atoms: C_9  and  C_10
REMARK    4  A    between atoms: N_12  and  C_13
REMARK    5  A    between atoms: C_13  and  C_14
REMARK    6  A    between atoms: C_21  and  O_22
REMARK                            x       y       z     vdW  Elec       q    Type
REMARK                         _______ _______ _______ _____ _____    ______ ____
ROOT
ATOM      1  C   UNL     1       3.829   5.074  17.385  0.00  0.00    +0.000 A 
ATOM      2  N   UNL     1       3.420   6.302  17.742  0.00  0.00    +0.000 NA
ATOM      3  C   UNL     1       2.553   6.405  18.772  0.00  0.00    +0.000 A 
ATOM      4  C   UNL     1       2.067   5.317  19.479  0.00  0.00    +0.000 A 
ATOM      5  C   UNL     1       2.491   4.040  19.123  0.00  0.00    +0.000 A 
ATOM      6  N   UNL     1       2.046   2.973  19.823  0.00  0.00    +0.000 NA
ATOM      7  C   UNL     1       2.471   1.738  19.502  0.00  0.00    +0.000 A 
ATOM      8  C   UNL     1       3.344   1.485  18.471  0.00  0.00    +0.000 A 
ATOM      9  C   UNL     1       3.805   2.571  17.731  0.00  0.00    +0.000 A 
ATOM     10  C   UNL     1       3.396   3.894  18.045  0.00  0.00    +0.000 A 
ENDROOT
BRANCH   1  13
ATOM     11  C   UNL     1       6.104   4.827  16.477  0.00  0.00    +0.000 C 
ATOM     12  O   UNL     1       6.771   4.732  17.501  0.00  0.00    +0.000 OA
ATOM     13  N   UNL     1       4.745   5.001  16.323  0.00  0.00    +0.000 N 
ATOM     14  H   UNL     1       4.422   5.044  15.365  0.00  0.00    +0.000 HD
BRANCH  11  16
ATOM     15  N   UNL     1       6.374   3.711  14.319  0.00  0.00    +0.000 N 
ATOM     16  C   UNL     1       6.830   4.716  15.124  0.00  0.00    +0.000 C 
ATOM     17  O   UNL     1       7.723   5.497  14.834  0.00  0.00    +0.000 OA
ATOM     18  H   UNL     1       6.777   3.559  13.407  0.00  0.00    +0.000 HD
ATOM     19  H   UNL     1       5.625   3.112  14.652  0.00  0.00    +0.000 HD
ENDBRANCH  11  16
ENDBRANCH   1  13
BRANCH   3  20
ATOM     20  C   UNL     1       2.164   7.800  19.152  0.00  0.00    +0.000 C 
ATOM     21  O   UNL     1       2.059   8.102  20.336  0.00  0.00    +0.000 OA
ATOM     22  N   UNL     1       1.971   8.680  18.110  0.00  0.00    +0.000 N 
ATOM     23  H   UNL     1       2.107   8.325  17.162  0.00  0.00    +0.000 HD
BRANCH  22  24
ATOM     24  C   UNL     1       1.716  10.081  18.331  0.00  0.00    +0.000 C 
BRANCH  24  25
ATOM     25  C   UNL     1       0.244  10.389  18.418  0.00  0.00    +0.000 A 
ATOM     26  C   UNL     1      -0.224  11.351  19.328  0.00  0.00    +0.000 A 
ATOM     27  C   UNL     1      -1.578  11.687  19.368  0.00  0.00    +0.000 A 
ATOM     28  C   UNL     1      -2.466  11.051  18.510  0.00  0.00    +0.000 A 
ATOM     29  F   UNL     1      -3.764  11.385  18.535  0.00  0.00    +0.000 F 
ATOM     30  C   UNL     1      -2.028  10.076  17.621  0.00  0.00    +0.000 A 
ATOM     31  C   UNL     1      -0.674   9.740  17.578  0.00  0.00    +0.000 A 
ENDBRANCH  24  25
ENDBRANCH  22  24
ENDBRANCH   3  20
BRANCH   4  32
ATOM     32  O   UNL     1       1.191   5.454  20.535  0.00  0.00    +0.000 OA
ATOM     33  H   UNL     1       0.359   5.866  20.211  0.00  0.00    +0.000 HD
ENDBRANCH   4  32
TORSDOF 6
ENDMDL
MODEL 3
REMARK VINA RESULT:      -8.3      1.122      1.154
REMARK  Name = 
REMARK  6 active torsions:
REMARK  status: ('A' for Active; 'I' for Inactive)
REMARK    1  A    between atoms: C_2  and  C_4
REMARK    2  A    between atoms: N_6  and  C_7
REMARK    3  A    between atoms: C_9  and  C_10
REMARK    4  A    between atoms: N_12  and  C_13
REMARK    5  A    between atoms: C_13  and  C_14
REMARK    6  A    between atoms: C_21  and  O_22
REMARK                            x       y       z     vdW  Elec       q    Type
REMARK                         _______ _______ _______ _____ _____    ______ ____
ROOT
ATOM      1  C   UNL     1      -0.997  10.727  18.977  0.00  0.00    +0.000 A 
ATOM      2  N   UNL     1      -0.067   9.791  19.230  0.00  0.00    +0.000 NA
ATOM      3  C   UNL     1       0.395   9.685  20.494  0.00  0.00    +0.000 A 
ATOM      4  C   UNL     1      -0.038  10.483  21.541  0.00  0.00    +0.000 A 
ATOM      5  C   UNL     1      -1.008  11.449  21.291  0.00  0.00    +0.000 A 
ATOM      6  N   UNL     1      -1.459  12.216  22.310  0.00  0.00    +0.000 NA
ATOM      7  C   UNL     1      -2.415  13.135  22.083  0.00  0.00    +0.000 A 
ATOM      8  C   UNL     1      -2.968  13.359  20.844  0.00  0.00    +0.000 A 
ATOM      9  C   UNL     1      -2.507  12.587  19.781  0.00  0.00    +0.000 A 
ATOM     10  C   UNL     1      -1.512  11.593  19.977  0.00  0.00    +0.000 A 
ENDROOT
BRANCH   1  13
ATOM     11  C   UNL     1      -2.564  10.107  17.183  0.00  0.00    +0.000 C 
ATOM     12  O   UNL     1      -3.295   9.309  17.757  0.00  0.00    +0.000 OA
ATOM     13  N   UNL     1      -1.471  10.801  17.658  0.00  0.00    +0.000 N 
ATOM     14  H   UNL     1      -1.027  11.415  16.988  0.00  0.00    +0.000 HD
BRANCH  11  16
ATOM     15  N   UNL     1      -3.483  11.663  15.536  0.00  0.00    +0.000 N 
ATOM     16  C   UNL     1      -2.875  10.453  15.715  0.00  0.00    +0.000 C 
ATOM     17  O   UNL     1      -2.568   9.682  14.819  0.00  0.00    +0.000 OA
ATOM     18  H   UNL     1      -3.721  11.987  14.611  0.00  0.00    +0.000 HD
ATOM     19  H   UNL     1      -3.699  12.233  16.348  0.00  0.00    +0.000 HD
ENDBRANCH  11  16
ENDBRANCH   1  13
BRANCH   3  20
ATOM     20  C   UNL     1       1.398   8.598  20.725  0.00  0.00    +0.000 C 
ATOM     21  O   UNL     1       1.659   8.242  21.870  0.00  0.00    +0.000 OA
ATOM     22  N   UNL     1       1.957   8.040  19.597  0.00  0.00    +0.000 N 
ATOM     23  H   UNL     1       1.651   8.399  18.692  0.00  0.00    +0.000 HD
BRANCH  22  24
ATOM     24  C   UNL     1       2.842   6.904  19.665  0.00  0.00    +0.000 C 
BRANCH  24  25
ATOM     25  C   UNL     1       2.132   5.606  19.383  0.00  0.00    +0.000 A 
ATOM     26  C   UNL     1       2.101   5.088  18.078  0.00  0.00    +0.000 A 
ATOM     27  C   UNL     1       1.500   3.854  17.821  0.00  0.00    +0.000 A 
ATOM     28  C   UNL     1       0.918   3.147  18.866  0.00  0.00    +0.000 A 
ATOM     29  F   UNL     1       0.357   1.954  18.624  0.00  0.00    +0.000 F 
ATOM     30  C   UNL     1       0.914   3.654  20.160  0.00  0.00    +0.000 A 
ATOM     31  C   UNL     1       1.515   4.887  20.418  0.00  0.00    +0.000 A 
ENDBRANCH  24  25
ENDBRANCH  22  24
ENDBRANCH   3  20
BRANCH   4  32
ATOM     32  O   UNL     1       0.443  10.342  22.825  0.00  0.00    +0.000 OA
ATOM     33  H   UNL     1      -0.155  10.815  23.446  0.00  0.00    +0.000 HD
ENDBRANCH   4  32
TORSDOF 6
ENDMDL
MODEL 4
REMARK VINA RESULT:      -8.1      4.770      7.635
REMARK  Name = 
REMARK  6 active torsions:
REMARK  status: ('A' for Active; 'I' for Inactive)
REMARK    1  A    between atoms: C_2  and  C_4
REMARK    2  A    between atoms: N_6  and  C_7
REMARK    3  A    between atoms: C_9  and  C_10
REMARK    4  A    between atoms: N_12  and  C_13
REMARK    5  A    between atoms: C_13  and  C_14
REMARK    6  A    between atoms: C_21  and  O_22
REMARK                            x       y       z     vdW  Elec       q    Type
REMARK                         _______ _______ _______ _____ _____    ______ ____
ROOT
ATOM      1  C   UNL     1       3.113   6.083  19.371  0.00  0.00    +0.000 A 
ATOM      2  N   UNL     1       4.262   6.096  18.676  0.00  0.00    +0.000 NA
ATOM      3  C   UNL     1       4.968   4.947  18.601  0.00  0.00    +0.000 A 
ATOM      4  C   UNL     1       4.571   3.761  19.197  0.00  0.00    +0.000 A 
ATOM      5  C   UNL     1       3.378   3.735  19.912  0.00  0.00    +0.000 A 
ATOM      6  N   UNL     1       2.966   2.576  20.475  0.00  0.00    +0.000 NA
ATOM      7  C   UNL     1       1.801   2.536  21.146  0.00  0.00    +0.000 A 
ATOM      8  C   UNL     1       0.986   3.632  21.310  0.00  0.00    +0.000 A 
ATOM      9  C   UNL     1       1.400   4.836  20.748  0.00  0.00    +0.000 A 
ATOM     10  C   UNL     1       2.614   4.922  20.016  0.00  0.00    +0.000 A 
ENDROOT
BRANCH   1  13
ATOM     11  C   UNL     1       2.272   8.162  18.357  0.00  0.00    +0.000 C 
ATOM     12  O   UNL     1       2.753   8.102  17.231  0.00  0.00    +0.000 OA
ATOM     13  N   UNL     1       2.393   7.288  19.416  0.00  0.00    +0.000 N 
ATOM     14  H   UNL     1       1.891   7.553  20.253  0.00  0.00    +0.000 HD
BRANCH  11  16
ATOM     15  N   UNL     1       1.357  10.348  17.754  0.00  0.00    +0.000 N 
ATOM     16  C   UNL     1       1.362   9.357  18.695  0.00  0.00    +0.000 C 
ATOM     17  O   UNL     1       0.706   9.365  19.725  0.00  0.00    +0.000 OA
ATOM     18  H   UNL     1       0.786  11.171  17.876  0.00  0.00    +0.000 HD
ATOM     19  H   UNL     1       1.940  10.249  16.929  0.00  0.00    +0.000 HD
ENDBRANCH  11  16
ENDBRANCH   1  13
BRANCH   3  20
ATOM     20  C   UNL     1       6.217   5.010  17.779  0.00  0.00    +0.000 C 
ATOM     21  O   UNL     1       7.241   4.468  18.184  0.00  0.00    +0.000 OA
ATOM     22  N   UNL     1       6.119   5.673  16.576  0.00  0.00    +0.000 N 
ATOM     23  H   UNL     1       5.210   6.069  16.329  0.00  0.00    +0.000 HD
BRANCH  22  24
ATOM     24  C   UNL     1       7.205   5.704  15.630  0.00  0.00    +0.000 C 
BRANCH  24  25
ATOM     25  C   UNL     1       6.897   4.929  14.376  0.00  0.00    +0.000 A 
ATOM     26  C   UNL     1       7.729   5.046  13.250  0.00  0.00    +0.000 A 
ATOM     27  C   UNL     1       7.485   4.282  12.107  0.00  0.00    +0.000 A 
ATOM     28  C   UNL     1       6.402   3.412  12.085  0.00  0.00    +0.000 A 
ATOM     29  F   UNL     1       6.177   2.664  10.996  0.00  0.00    +0.000 F 
ATOM     30  C   UNL     1       5.551   3.300  13.178  0.00  0.00    +0.000 A 
ATOM     31  C   UNL     1       5.794   4.063  14.322  0.00  0.00    +0.000 A 
ENDBRANCH  24  25
ENDBRANCH  22  24
ENDBRANCH   3  20
BRANCH   4  32
ATOM     32  O   UNL     1       5.307   2.599  19.092  0.00  0.00    +0.000 OA
ATOM     33  H   UNL     1       5.552   2.458  18.150  0.00  0.00    +0.000 HD
ENDBRANCH   4  32
TORSDOF 6
ENDMDL
MODEL 5
REMARK VINA RESULT:      -8.1      3.888      8.546
REMARK  Name = 
REMARK  6 active torsions:
REMARK  status: ('A' for Active; 'I' for Inactive)
REMARK    1  A    between atoms: C_2  and  C_4
REMARK    2  A    between atoms: N_6  and  C_7
REMARK    3  A    between atoms: C_9  and  C_10
REMARK    4  A    between atoms: N_12  and  C_13
REMARK    5  A    between atoms: C_13  and  C_14
REMARK    6  A    between atoms: C_21  and  O_22
REMARK                            x       y       z     vdW  Elec       q    Type
REMARK                         _______ _______ _______ _____ _____    ______ ____
ROOT
ATOM      1  C   UNL     1       3.794   5.462  17.929  0.00  0.00    +0.000 A 
ATOM      2  N   UNL     1       3.336   6.714  17.771  0.00  0.00    +0.000 NA
ATOM      3  C   UNL     1       2.503   7.205  18.714  0.00  0.00    +0.000 A 
ATOM      4  C   UNL     1       2.098   6.491  19.830  0.00  0.00    +0.000 A 
ATOM      5  C   UNL     1       2.574   5.195  20.007  0.00  0.00    +0.000 A 
ATOM      6  N   UNL     1       2.209   4.498  21.107  0.00  0.00    +0.000 NA
ATOM      7  C   UNL     1       2.685   3.255  21.299  0.00  0.00    +0.000 A 
ATOM      8  C   UNL     1       3.532   2.626  20.416  0.00  0.00    +0.000 A 
ATOM      9  C   UNL     1       3.910   3.324  19.272  0.00  0.00    +0.000 A 
ATOM     10  C   UNL     1       3.446   4.646  19.037  0.00  0.00    +0.000 A 
ENDROOT
BRANCH   1  13
ATOM     11  C   UNL     1       5.971   5.422  16.780  0.00  0.00    +0.000 C 
ATOM     12  O   UNL     1       6.593   6.279  17.397  0.00  0.00    +0.000 OA
ATOM     13  N   UNL     1       4.673   4.986  16.943  0.00  0.00    +0.000 N 
ATOM     14  H   UNL     1       4.382   4.253  16.309  0.00  0.00    +0.000 HD
BRANCH  11  16
ATOM     15  N   UNL     1       6.279   3.373  15.483  0.00  0.00    +0.000 N 
ATOM     16  C   UNL     1       6.701   4.661  15.659  0.00  0.00    +0.000 C 
ATOM     17  O   UNL     1       7.568   5.212  14.998  0.00  0.00    +0.000 OA
ATOM     18  H   UNL     1       6.687   2.791  14.767  0.00  0.00    +0.000 HD
ATOM     19  H   UNL     1       5.550   3.004  16.086  0.00  0.00    +0.000 HD
ENDBRANCH  11  16
ENDBRANCH   1  13
BRANCH   3  20
ATOM     20  C   UNL     1       2.058   8.620  18.508  0.00  0.00    +0.000 C 
ATOM     21  O   UNL     1       2.267   9.175  17.434  0.00  0.00    +0.000 OA
ATOM     22  N   UNL     1       1.401   9.208  19.566  0.00  0.00    +0.000 N 
ATOM     23  H   UNL     1       1.263   8.646  20.407  0.00  0.00    +0.000 HD
BRANCH  22  24
ATOM     24  C   UNL     1       0.810  10.519  19.464  0.00  0.00    +0.000 C 
BRANCH  24  25
ATOM     25  C   UNL     1      -0.042  10.858  20.659  0.00  0.00    +0.000 A 
ATOM     26  C   UNL     1      -0.978  11.903  20.586  0.00  0.00    +0.000 A 
ATOM     27  C   UNL     1      -1.815  12.180  21.668  0.00  0.00    +0.000 A 
ATOM     28  C   UNL     1      -1.706  11.423  22.828  0.00  0.00    +0.000 A 
ATOM     29  F   UNL     1      -2.521  11.676  23.861  0.00  0.00    +0.000 F 
ATOM     30  C   UNL     1      -0.768  10.402  22.931  0.00  0.00    +0.000 A 
ATOM     31  C   UNL     1       0.069  10.123  21.850  0.00  0.00    +0.000 A 
ENDBRANCH  24  25
ENDBRANCH  22  24
ENDBRANCH   3  20
BRANCH   4  32
ATOM     32  O   UNL     1       1.256   7.024  20.782  0.00  0.00    +0.000 OA
ATOM     33  H   UNL     1       1.410   6.568  21.640  0.00  0.00    +0.000 HD
ENDBRANCH   4  32
TORSDOF 6
ENDMDL
MODEL 6
REMARK VINA RESULT:      -8.0      3.855      8.805
REMARK  Name = 
REMARK  6 active torsions:
REMARK  status: ('A' for Active; 'I' for Inactive)
REMARK    1  A    between atoms: C_2  and  C_4
REMARK    2  A    between atoms: N_6  and  C_7
REMARK    3  A    between atoms: C_9  and  C_10
REMARK    4  A    between atoms: N_12  and  C_13
REMARK    5  A    between atoms: C_13  and  C_14
REMARK    6  A    between atoms: C_21  and  O_22
REMARK                            x       y       z     vdW  Elec       q    Type
REMARK                         _______ _______ _______ _____ _____    ______ ____
ROOT
ATOM      1  C   UNL     1       3.901   5.572  18.183  0.00  0.00    +0.000 A 
ATOM      2  N   UNL     1       3.327   6.653  18.737  0.00  0.00    +0.000 NA
ATOM      3  C   UNL     1       2.249   6.459  19.528  0.00  0.00    +0.000 A 
ATOM      4  C   UNL     1       1.709   5.213  19.802  0.00  0.00    +0.000 A 
ATOM      5  C   UNL     1       2.303   4.086  19.240  0.00  0.00    +0.000 A 
ATOM      6  N   UNL     1       1.802   2.862  19.521  0.00  0.00    +0.000 NA
ATOM      7  C   UNL     1       2.385   1.766  19.003  0.00  0.00    +0.000 A 
ATOM      8  C   UNL     1       3.480   1.815  18.173  0.00  0.00    +0.000 A 
ATOM      9  C   UNL     1       4.003   3.067  17.863  0.00  0.00    +0.000 A 
ATOM     10  C   UNL     1       3.431   4.251  18.401  0.00  0.00    +0.000 A 
ENDROOT
BRANCH   1  13
ATOM     11  C   UNL     1       6.330   5.773  17.838  0.00  0.00    +0.000 C 
ATOM     12  O   UNL     1       6.758   5.580  18.970  0.00  0.00    +0.000 OA
ATOM     13  N   UNL     1       5.029   5.803  17.380  0.00  0.00    +0.000 N 
ATOM     14  H   UNL     1       4.925   5.977  16.390  0.00  0.00    +0.000 HD
BRANCH  11  16
ATOM     15  N   UNL     1       7.591   4.891  15.939  0.00  0.00    +0.000 N 
ATOM     16  C   UNL     1       7.347   5.996  16.704  0.00  0.00    +0.000 C 
ATOM     17  O   UNL     1       7.854   7.094  16.533  0.00  0.00    +0.000 OA
ATOM     18  H   UNL     1       8.236   4.933  15.164  0.00  0.00    +0.000 HD
ATOM     19  H   UNL     1       7.119   4.020  16.163  0.00  0.00    +0.000 HD
ENDBRANCH  11  16
ENDBRANCH   1  13
BRANCH   3  20
ATOM     20  C   UNL     1       1.677   7.694  20.151  0.00  0.00    +0.000 C 
ATOM     21  O   UNL     1       1.450   7.721  21.357  0.00  0.00    +0.000 OA
ATOM     22  N   UNL     1       1.460   8.756  19.301  0.00  0.00    +0.000 N 
ATOM     23  H   UNL     1       1.704   8.631  18.317  0.00  0.00    +0.000 HD
BRANCH  22  24
ATOM     24  C   UNL     1       1.030  10.045  19.783  0.00  0.00    +0.000 C 
BRANCH  24  25
ATOM     25  C   UNL     1      -0.283  10.473  19.180  0.00  0.00    +0.000 A 
ATOM     26  C   UNL     1      -1.081  11.428  19.832  0.00  0.00    +0.000 A 
ATOM     27  C   UNL     1      -2.266  11.877  19.248  0.00  0.00    +0.000 A 
ATOM     28  C   UNL     1      -2.661  11.361  18.020  0.00  0.00    +0.000 A 
ATOM     29  F   UNL     1      -3.789  11.804  17.449  0.00  0.00    +0.000 F 
ATOM     30  C   UNL     1      -1.900  10.396  17.370  0.00  0.00    +0.000 A 
ATOM     31  C   UNL     1      -0.713   9.947  17.953  0.00  0.00    +0.000 A 
ENDBRANCH  24  25
ENDBRANCH  22  24
ENDBRANCH   3  20
BRANCH   4  32
ATOM     32  O   UNL     1       0.616   5.046  20.624  0.00  0.00    +0.000 OA
ATOM     33  H   UNL     1       0.775   4.280  21.219  0.00  0.00    +0.000 HD
ENDBRANCH   4  32
TORSDOF 6
ENDMDL
MODEL 7
REMARK VINA RESULT:      -7.9      3.724      8.291
REMARK  Name = 
REMARK  6 active torsions:
REMARK  status: ('A' for Active; 'I' for Inactive)
REMARK    1  A    between atoms: C_2  and  C_4
REMARK    2  A    between atoms: N_6  and  C_7
REMARK    3  A    between atoms: C_9  and  C_10
REMARK    4  A    between atoms: N_12  and  C_13
REMARK    5  A    between atoms: C_13  and  C_14
REMARK    6  A    between atoms: C_21  and  O_22
REMARK                            x       y       z     vdW  Elec       q    Type
REMARK                         _______ _______ _______ _____ _____    ______ ____
ROOT
ATOM      1  C   UNL     1       3.675   5.640  17.851  0.00  0.00    +0.000 A 
ATOM      2  N   UNL     1       3.284   6.911  17.667  0.00  0.00    +0.000 NA
ATOM      3  C   UNL     1       2.491   7.470  18.607  0.00  0.00    +0.000 A 
ATOM      4  C   UNL     1       2.063   6.807  19.746  0.00  0.00    +0.000 A 
ATOM      5  C   UNL     1       2.471   5.492  19.950  0.00  0.00    +0.000 A 
ATOM      6  N   UNL     1       2.083   4.843  21.072  0.00  0.00    +0.000 NA
ATOM      7  C   UNL     1       2.494   3.581  21.290  0.00  0.00    +0.000 A 
ATOM      8  C   UNL     1       3.294   2.886  20.414  0.00  0.00    +0.000 A 
ATOM      9  C   UNL     1       3.694   3.534  19.248  0.00  0.00    +0.000 A 
ATOM     10  C   UNL     1       3.299   4.872  18.984  0.00  0.00    +0.000 A 
ENDROOT
BRANCH   1  13
ATOM     11  C   UNL     1       5.622   5.728  16.347  0.00  0.00    +0.000 C 
ATOM     12  O   UNL     1       6.073   6.841  16.589  0.00  0.00    +0.000 OA
ATOM     13  N   UNL     1       4.514   5.093  16.867  0.00  0.00    +0.000 N 
ATOM     14  H   UNL     1       4.346   4.161  16.512  0.00  0.00    +0.000 HD
BRANCH  11  16
ATOM     15  N   UNL     1       7.548   5.376  14.884  0.00  0.00    +0.000 N 
ATOM     16  C   UNL     1       6.375   4.843  15.338  0.00  0.00    +0.000 C 
ATOM     17  O   UNL     1       5.928   3.753  15.014  0.00  0.00    +0.000 OA
ATOM     18  H   UNL     1       8.123   4.871  14.226  0.00  0.00    +0.000 HD
ATOM     19  H   UNL     1       7.835   6.293  15.212  0.00  0.00    +0.000 HD
ENDBRANCH  11  16
ENDBRANCH   1  13
BRANCH   3  20
ATOM     20  C   UNL     1       2.120   8.901  18.370  0.00  0.00    +0.000 C 
ATOM     21  O   UNL     1       2.661   9.529  17.466  0.00  0.00    +0.000 OA
ATOM     22  N   UNL     1       1.147   9.419  19.196  0.00  0.00    +0.000 N 
ATOM     23  H   UNL     1       0.749   8.799  19.903  0.00  0.00    +0.000 HD
BRANCH  22  24
ATOM     24  C   UNL     1       0.606  10.741  19.003  0.00  0.00    +0.000 C 
BRANCH  24  25
ATOM     25  C   UNL     1      -0.827  10.711  18.539  0.00  0.00    +0.000 A 
ATOM     26  C   UNL     1      -1.772  11.581  19.109  0.00  0.00    +0.000 A 
ATOM     27  C   UNL     1      -3.086  11.603  18.640  0.00  0.00    +0.000 A 
ATOM     28  C   UNL     1      -3.460  10.746  17.612  0.00  0.00    +0.000 A 
ATOM     29  F   UNL     1      -4.716  10.779  17.148  0.00  0.00    +0.000 F 
ATOM     30  C   UNL     1      -2.548   9.858  17.053  0.00  0.00    +0.000 A 
ATOM     31  C   UNL     1      -1.233   9.836  17.520  0.00  0.00    +0.000 A 
ENDBRANCH  24  25
ENDBRANCH  22  24
ENDBRANCH   3  20
BRANCH   4  32
ATOM     32  O   UNL     1       1.263   7.408  20.694  0.00  0.00    +0.000 OA
ATOM     33  H   UNL     1       1.313   6.893  21.530  0.00  0.00    +0.000 HD
ENDBRANCH   4  32
TORSDOF 6
ENDMDL
MODEL 8
REMARK VINA RESULT:      -7.9      3.422      8.284
REMARK  Name = 
REMARK  6 active torsions:
REMARK  status: ('A' for Active; 'I' for Inactive)
REMARK    1  A    between atoms: C_2  and  C_4
REMARK    2  A    between atoms: N_6  and  C_7
REMARK    3  A    between atoms: C_9  and  C_10
REMARK    4  A    between atoms: N_12  and  C_13
REMARK    5  A    between atoms: C_13  and  C_14
REMARK    6  A    between atoms: C_21  and  O_22
REMARK                            x       y       z     vdW  Elec       q    Type
REMARK                         _______ _______ _______ _____ _____    ______ ____
ROOT
ATOM      1  C   UNL     1       2.708   5.967  19.862  0.00  0.00    +0.000 A 
ATOM      2  N   UNL     1       1.965   7.038  20.182  0.00  0.00    +0.000 NA
ATOM      3  C   UNL     1       1.980   8.092  19.337  0.00  0.00    +0.000 A 
ATOM      4  C   UNL     1       2.715   8.126  18.163  0.00  0.00    +0.000 A 
ATOM      5  C   UNL     1       3.481   7.017  17.818  0.00  0.00    +0.000 A 
ATOM      6  N   UNL     1       4.181   7.027  16.661  0.00  0.00    +0.000 NA
ATOM      7  C   UNL     1       4.903   5.949  16.307  0.00  0.00    +0.000 A 
ATOM      8  C   UNL     1       4.988   4.812  17.075  0.00  0.00    +0.000 A 
ATOM      9  C   UNL     1       4.284   4.788  18.276  0.00  0.00    +0.000 A 
ATOM     10  C   UNL     1       3.493   5.896  18.681  0.00  0.00    +0.000 A 
ENDROOT
BRANCH   1  13
ATOM     11  C   UNL     1       1.748   3.847  20.665  0.00  0.00    +0.000 C 
ATOM     12  O   UNL     1       0.831   3.673  19.871  0.00  0.00    +0.000 OA
ATOM     13  N   UNL     1       2.658   4.880  20.749  0.00  0.00    +0.000 N 
ATOM     14  H   UNL     1       3.335   4.797  21.496  0.00  0.00    +0.000 HD
BRANCH  11  16
ATOM     15  N   UNL     1       0.880   2.414  22.445  0.00  0.00    +0.000 N 
ATOM     16  C   UNL     1       1.993   2.771  21.739  0.00  0.00    +0.000 C 
ATOM     17  O   UNL     1       3.107   2.295  21.897  0.00  0.00    +0.000 OA
ATOM     18  H   UNL     1       0.931   1.710  23.166  0.00  0.00    +0.000 HD
ATOM     19  H   UNL     1      -0.004   2.871  22.240  0.00  0.00    +0.000 HD
ENDBRANCH  11  16
ENDBRANCH   1  13
BRANCH   3  20
ATOM     20  C   UNL     1       1.102   9.241  19.723  0.00  0.00    +0.000 C 
ATOM     21  O   UNL     1       0.867   9.458  20.908  0.00  0.00    +0.000 OA
ATOM     22  N   UNL     1       0.623  10.013  18.688  0.00  0.00    +0.000 N 
ATOM     23  H   UNL     1       0.899   9.753  17.739  0.00  0.00    +0.000 HD
BRANCH  22  24
ATOM     24  C   UNL     1      -0.130  11.219  18.919  0.00  0.00    +0.000 C 
BRANCH  24  25
ATOM     25  C   UNL     1      -1.568  11.089  18.487  0.00  0.00    +0.000 A 
ATOM     26  C   UNL     1      -1.939  10.105  17.556  0.00  0.00    +0.000 A 
ATOM     27  C   UNL     1      -3.278   9.938  17.200  0.00  0.00    +0.000 A 
ATOM     28  C   UNL     1      -4.244  10.763  17.763  0.00  0.00    +0.000 A 
ATOM     29  F   UNL     1      -5.532  10.592  17.437  0.00  0.00    +0.000 F 
ATOM     30  C   UNL     1      -3.895  11.761  18.667  0.00  0.00    +0.000 A 
ATOM     31  C   UNL     1      -2.556  11.929  19.024  0.00  0.00    +0.000 A 
ENDBRANCH  24  25
ENDBRANCH  22  24
ENDBRANCH   3  20
BRANCH   4  32
ATOM     32  O   UNL     1       2.700   9.213  17.314  0.00  0.00    +0.000 OA
ATOM     33  H   UNL     1       1.819   9.645  17.361  0.00  0.00    +0.000 HD
ENDBRANCH   4  32
TORSDOF 6
ENDMDL
MODEL 9
REMARK VINA RESULT:      -7.9      2.341      2.853
REMARK  Name = 
REMARK  6 active torsions:
REMARK  status: ('A' for Active; 'I' for Inactive)
REMARK    1  A    between atoms: C_2  and  C_4
REMARK    2  A    between atoms: N_6  and  C_7
REMARK    3  A    between atoms: C_9  and  C_10
REMARK    4  A    between atoms: N_12  and  C_13
REMARK    5  A    between atoms: C_13  and  C_14
REMARK    6  A    between atoms: C_21  and  O_22
REMARK                            x       y       z     vdW  Elec       q    Type
REMARK                         _______ _______ _______ _____ _____    ______ ____
ROOT
ATOM      1  C   UNL     1      -0.398  10.571  18.658  0.00  0.00    +0.000 A 
ATOM      2  N   UNL     1       0.264   9.427  18.897  0.00  0.00    +0.000 NA
ATOM      3  C   UNL     1       0.887   9.295  20.087  0.00  0.00    +0.000 A 
ATOM      4  C   UNL     1       0.879  10.270  21.072  0.00  0.00    +0.000 A 
ATOM      5  C   UNL     1       0.189  11.456  20.838  0.00  0.00    +0.000 A 
ATOM      6  N   UNL     1       0.150  12.403  21.802  0.00  0.00    +0.000 NA
ATOM      7  C   UNL     1      -0.536  13.541  21.594  0.00  0.00    +0.000 A 
ATOM      8  C   UNL     1      -1.209  13.814  20.426  0.00  0.00    +0.000 A 
ATOM      9  C   UNL     1      -1.170  12.855  19.417  0.00  0.00    +0.000 A 
ATOM     10  C   UNL     1      -0.473  11.631  19.599  0.00  0.00    +0.000 A 
ENDROOT
BRANCH   1  13
ATOM     11  C   UNL     1      -2.272  10.099  17.134  0.00  0.00    +0.000 C 
ATOM     12  O   UNL     1      -2.994   9.402  17.837  0.00  0.00    +0.000 OA
ATOM     13  N   UNL     1      -1.051  10.672  17.419  0.00  0.00    +0.000 N 
ATOM     14  H   UNL     1      -0.646  11.217  16.670  0.00  0.00    +0.000 HD
BRANCH  11  16
ATOM     15  N   UNL     1      -3.395  11.651  15.616  0.00  0.00    +0.000 N 
ATOM     16  C   UNL     1      -2.757  10.447  15.715  0.00  0.00    +0.000 C 
ATOM     17  O   UNL     1      -2.550   9.684  14.784  0.00  0.00    +0.000 OA
ATOM     18  H   UNL     1      -3.744  11.977  14.727  0.00  0.00    +0.000 HD
ATOM     19  H   UNL     1      -3.521  12.215  16.450  0.00  0.00    +0.000 HD
ENDBRANCH  11  16
ENDBRANCH   1  13
BRANCH   3  20
ATOM     20  C   UNL     1       1.573   7.984  20.314  0.00  0.00    +0.000 C 
ATOM     21  O   UNL     1       1.465   7.419  21.398  0.00  0.00    +0.000 OA
ATOM     22  N   UNL     1       2.280   7.477  19.247  0.00  0.00    +0.000 N 
ATOM     23  H   UNL     1       2.286   8.023  18.383  0.00  0.00    +0.000 HD
BRANCH  22  24
ATOM     24  C   UNL     1       2.885   6.170  19.283  0.00  0.00    +0.000 C 
BRANCH  24  25
ATOM     25  C   UNL     1       3.733   5.896  18.068  0.00  0.00    +0.000 A 
ATOM     26  C   UNL     1       3.969   4.575  17.655  0.00  0.00    +0.000 A 
ATOM     27  C   UNL     1       4.700   4.317  16.494  0.00  0.00    +0.000 A 
ATOM     28  C   UNL     1       5.207   5.379  15.755  0.00  0.00    +0.000 A 
ATOM     29  F   UNL     1       5.893   5.134  14.631  0.00  0.00    +0.000 F 
ATOM     30  C   UNL     1       5.008   6.693  16.161  0.00  0.00    +0.000 A 
ATOM     31  C   UNL     1       4.276   6.953  17.321  0.00  0.00    +0.000 A 
ENDBRANCH  24  25
ENDBRANCH  22  24
ENDBRANCH   3  20
BRANCH   4  32
ATOM     32  O   UNL     1       1.515  10.101  22.284  0.00  0.00    +0.000 OA
ATOM     33  H   UNL     1       1.805  10.978  22.620  0.00  0.00    +0.000 HD
ENDBRANCH   4  32
TORSDOF 6
ENDMDL
