MODEL 1
REMARK VINA RESULT:      -6.9      0.000      0.000
REMARK  Name = 
REMARK  3 active torsions:
REMARK  status: ('A' for Active; 'I' for Inactive)
REMARK    1  A    between atoms: C_1  and  O_2
REMARK    2  A    between atoms: O_2  and  C_3
REMARK    3  A    between atoms: C_6  and  C_7
REMARK                            x       y       z     vdW  Elec       q    Type
REMARK                         _______ _______ _______ _____ _____    ______ ____
ROOT
ATOM      1  C   UNL     1       4.561   3.495  19.093  0.00  0.00    +0.000 C 
ATOM      2  C   UNL     1       3.619   4.185  19.756  0.00  0.00    +0.000 C 
ATOM      3  C   UNL     1       3.007   3.629  21.014  0.00  0.00    +0.000 C 
ATOM      4  O   UNL     1       3.216   2.544  21.524  0.00  0.00    +0.000 OA
ATOM      5  N   UNL     1       2.149   4.619  21.461  0.00  0.00    +0.000 N 
ATOM      6  C   UNL     1       2.158   5.722  20.612  0.00  0.00    +0.000 A 
ATOM      7  C   UNL     1       1.440   6.891  20.772  0.00  0.00    +0.000 A 
ATOM      8  C   UNL     1       1.602   7.883  19.802  0.00  0.00    +0.000 A 
ATOM      9  C   UNL     1       2.451   7.672  18.703  0.00  0.00    +0.000 A 
ATOM     10 CL   UNL     1       2.629   8.912  17.521  0.00  0.00    +0.000 Cl
ATOM     11  C   UNL     1       3.162   6.478  18.554  0.00  0.00    +0.000 A 
ATOM     12  C   UNL     1       3.023   5.508  19.531  0.00  0.00    +0.000 A 
ATOM     13  H   UNL     1       1.602   4.524  22.303  0.00  0.00    +0.000 HD
ENDROOT
BRANCH   1  17
ATOM     14  C   UNL     1       6.137   5.091  15.469  0.00  0.00    +0.000 A 
ATOM     15  C   UNL     1       5.097   4.161  15.454  0.00  0.00    +0.000 A 
ATOM     16  C   UNL     1       4.635   3.610  16.650  0.00  0.00    +0.000 A 
ATOM     17  C   UNL     1       5.212   3.977  17.873  0.00  0.00    +0.000 A 
ATOM     18  C   UNL     1       6.306   4.854  17.874  0.00  0.00    +0.000 A 
ATOM     19 BR   UNL     1       7.183   5.370  19.479  0.00  0.00    +0.000 Br
ATOM     20  C   UNL     1       6.767   5.406  16.673  0.00  0.00    +0.000 A 
BRANCH  14  22
ATOM     21  C   UNL     1       7.404   4.917  13.487  0.00  0.00    +0.000 C 
ATOM     22  O   UNL     1       6.625   5.730  14.361  0.00  0.00    +0.000 OA
ENDBRANCH  14  22
ENDBRANCH   1  17
TORSDOF 2
ENDMDL
MODEL 2
REMARK VINA RESULT:      -6.8      2.352      3.102
REMARK  Name = 
REMARK  3 active torsions:
REMARK  status: ('A' for Active; 'I' for Inactive)
REMARK    1  A    between atoms: C_1  and  O_2
REMARK    2  A    between atoms: O_2  and  C_3
REMARK    3  A    between atoms: C_6  and  C_7
REMARK                            x       y       z     vdW  Elec       q    Type
REMARK                         _______ _______ _______ _____ _____    ______ ____
ROOT
ATOM      1  C   UNL     1       5.338   3.439  18.069  0.00  0.00    +0.000 C 
ATOM      2  C   UNL     1       4.143   3.272  18.658  0.00  0.00    +0.000 C 
ATOM      3  C   UNL     1       3.582   1.892  18.871  0.00  0.00    +0.000 C 
ATOM      4  O   UNL     1       4.061   0.833  18.512  0.00  0.00    +0.000 OA
ATOM      5  N   UNL     1       2.399   2.090  19.561  0.00  0.00    +0.000 N 
ATOM      6  C   UNL     1       2.163   3.444  19.789  0.00  0.00    +0.000 A 
ATOM      7  C   UNL     1       1.091   3.990  20.467  0.00  0.00    +0.000 A 
ATOM      8  C   UNL     1       1.051   5.381  20.592  0.00  0.00    +0.000 A 
ATOM      9  C   UNL     1       2.062   6.175  20.025  0.00  0.00    +0.000 A 
ATOM     10 CL   UNL     1       1.985   7.888  20.192  0.00  0.00    +0.000 Cl
ATOM     11  C   UNL     1       3.135   5.604  19.336  0.00  0.00    +0.000 A 
ATOM     12  C   UNL     1       3.187   4.224  19.238  0.00  0.00    +0.000 A 
ATOM     13  H   UNL     1       1.804   1.328  19.851  0.00  0.00    +0.000 HD
ENDROOT
BRANCH   1  17
ATOM     14  C   UNL     1       7.467   7.082  17.471  0.00  0.00    +0.000 A 
ATOM     15  C   UNL     1       7.383   6.497  18.734  0.00  0.00    +0.000 A 
ATOM     16  C   UNL     1       6.633   5.334  18.917  0.00  0.00    +0.000 A 
ATOM     17  C   UNL     1       5.954   4.748  17.841  0.00  0.00    +0.000 A 
ATOM     18  C   UNL     1       5.981   5.383  16.591  0.00  0.00    +0.000 A 
ATOM     19 BR   UNL     1       5.051   4.689  15.086  0.00  0.00    +0.000 Br
ATOM     20  C   UNL     1       6.735   6.549  16.411  0.00  0.00    +0.000 A 
BRANCH  14  22
ATOM     21  C   UNL     1       8.380   9.115  18.245  0.00  0.00    +0.000 C 
ATOM     22  O   UNL     1       8.218   8.188  17.175  0.00  0.00    +0.000 OA
ENDBRANCH  14  22
ENDBRANCH   1  17
TORSDOF 2
ENDMDL
MODEL 3
REMARK VINA RESULT:      -6.8      2.524      3.360
REMARK  Name = 
REMARK  3 active torsions:
REMARK  status: ('A' for Active; 'I' for Inactive)
REMARK    1  A    between atoms: C_1  and  O_2
REMARK    2  A    between atoms: O_2  and  C_3
REMARK    3  A    between atoms: C_6  and  C_7
REMARK                            x       y       z     vdW  Elec       q    Type
REMARK                         _______ _______ _______ _____ _____    ______ ____
ROOT
ATOM      1  C   UNL     1       4.065   6.784  18.041  0.00  0.00    +0.000 C 
ATOM      2  C   UNL     1       3.246   6.141  18.889  0.00  0.00    +0.000 C 
ATOM      3  C   UNL     1       2.290   6.911  19.760  0.00  0.00    +0.000 C 
ATOM      4  O   UNL     1       2.182   8.119  19.855  0.00  0.00    +0.000 OA
ATOM      5  N   UNL     1       1.564   5.944  20.433  0.00  0.00    +0.000 N 
ATOM      6  C   UNL     1       1.973   4.661  20.079  0.00  0.00    +0.000 A 
ATOM      7  C   UNL     1       1.447   3.472  20.542  0.00  0.00    +0.000 A 
ATOM      8  C   UNL     1       2.001   2.288  20.049  0.00  0.00    +0.000 A 
ATOM      9  C   UNL     1       3.065   2.329  19.134  0.00  0.00    +0.000 A 
ATOM     10 CL   UNL     1       3.731   0.853  18.544  0.00  0.00    +0.000 Cl
ATOM     11  C   UNL     1       3.591   3.543  18.683  0.00  0.00    +0.000 A 
ATOM     12  C   UNL     1       3.021   4.714  19.152  0.00  0.00    +0.000 A 
ATOM     13  H   UNL     1       0.833   6.173  21.090  0.00  0.00    +0.000 HD
ENDROOT
BRANCH   1  17
ATOM     14  C   UNL     1       6.858   5.136  15.276  0.00  0.00    +0.000 A 
ATOM     15  C   UNL     1       5.586   5.533  14.863  0.00  0.00    +0.000 A 
ATOM     16  C   UNL     1       4.669   6.017  15.797  0.00  0.00    +0.000 A 
ATOM     17  C   UNL     1       5.010   6.104  17.153  0.00  0.00    +0.000 A 
ATOM     18  C   UNL     1       6.263   5.633  17.571  0.00  0.00    +0.000 A 
ATOM     19 BR   UNL     1       6.795   5.665  19.395  0.00  0.00    +0.000 Br
ATOM     20  C   UNL     1       7.181   5.148  16.633  0.00  0.00    +0.000 A 
BRANCH  14  22
ATOM     21  C   UNL     1       7.696   5.082  13.071  0.00  0.00    +0.000 C 
ATOM     22  O   UNL     1       7.847   4.700  14.436  0.00  0.00    +0.000 OA
ENDBRANCH  14  22
ENDBRANCH   1  17
TORSDOF 2
ENDMDL
MODEL 4
REMARK VINA RESULT:      -6.7      1.296      1.658
REMARK  Name = 
REMARK  3 active torsions:
REMARK  status: ('A' for Active; 'I' for Inactive)
REMARK    1  A    between atoms: C_1  and  O_2
REMARK    2  A    between atoms: O_2  and  C_3
REMARK    3  A    between atoms: C_6  and  C_7
REMARK                            x       y       z     vdW  Elec       q    Type
REMARK                         _______ _______ _______ _____ _____    ______ ____
ROOT
ATOM      1  C   UNL     1       4.594   3.552  19.269  0.00  0.00    +0.000 C 
ATOM      2  C   UNL     1       3.593   4.178  19.908  0.00  0.00    +0.000 C 
ATOM      3  C   UNL     1       2.938   3.547  21.107  0.00  0.00    +0.000 C 
ATOM      4  O   UNL     1       3.162   2.450  21.584  0.00  0.00    +0.000 OA
ATOM      5  N   UNL     1       2.021   4.486  21.548  0.00  0.00    +0.000 N 
ATOM      6  C   UNL     1       2.032   5.624  20.746  0.00  0.00    +0.000 A 
ATOM      7  C   UNL     1       1.263   6.758  20.915  0.00  0.00    +0.000 A 
ATOM      8  C   UNL     1       1.437   7.796  19.996  0.00  0.00    +0.000 A 
ATOM      9  C   UNL     1       2.350   7.662  18.937  0.00  0.00    +0.000 A 
ATOM     10 CL   UNL     1       2.541   8.957  17.817  0.00  0.00    +0.000 Cl
ATOM     11  C   UNL     1       3.113   6.503  18.777  0.00  0.00    +0.000 A 
ATOM     12  C   UNL     1       2.959   5.487  19.705  0.00  0.00    +0.000 A 
ATOM     13  H   UNL     1       1.435   4.336  22.355  0.00  0.00    +0.000 HD
ENDROOT
BRANCH   1  17
ATOM     14  C   UNL     1       6.885   4.910  15.942  0.00  0.00    +0.000 A 
ATOM     15  C   UNL     1       7.338   5.090  17.249  0.00  0.00    +0.000 A 
ATOM     16  C   UNL     1       6.545   4.687  18.325  0.00  0.00    +0.000 A 
ATOM     17  C   UNL     1       5.289   4.108  18.106  0.00  0.00    +0.000 A 
ATOM     18  C   UNL     1       4.807   4.000  16.794  0.00  0.00    +0.000 A 
ATOM     19 BR   UNL     1       3.096   3.273  16.403  0.00  0.00    +0.000 Br
ATOM     20  C   UNL     1       5.605   4.404  15.716  0.00  0.00    +0.000 A 
BRANCH  14  22
ATOM     21  C   UNL     1       7.044   4.757  13.594  0.00  0.00    +0.000 C 
ATOM     22  O   UNL     1       7.605   5.219  14.820  0.00  0.00    +0.000 OA
ENDBRANCH  14  22
ENDBRANCH   1  17
TORSDOF 2
ENDMDL
MODEL 5
REMARK VINA RESULT:      -6.6      2.613      3.441
REMARK  Name = 
REMARK  3 active torsions:
REMARK  status: ('A' for Active; 'I' for Inactive)
REMARK    1  A    between atoms: C_1  and  O_2
REMARK    2  A    between atoms: O_2  and  C_3
REMARK    3  A    between atoms: C_6  and  C_7
REMARK                            x       y       z     vdW  Elec       q    Type
REMARK                         _______ _______ _______ _____ _____    ______ ____
ROOT
ATOM      1  C   UNL     1       3.877   6.653  17.770  0.00  0.00    +0.000 C 
ATOM      2  C   UNL     1       3.307   6.171  18.887  0.00  0.00    +0.000 C 
ATOM      3  C   UNL     1       2.371   7.026  19.698  0.00  0.00    +0.000 C 
ATOM      4  O   UNL     1       2.076   8.191  19.506  0.00  0.00    +0.000 OA
ATOM      5  N   UNL     1       1.921   6.199  20.712  0.00  0.00    +0.000 N 
ATOM      6  C   UNL     1       2.485   4.929  20.621  0.00  0.00    +0.000 A 
ATOM      7  C   UNL     1       2.237   3.856  21.455  0.00  0.00    +0.000 A 
ATOM      8  C   UNL     1       2.905   2.661  21.180  0.00  0.00    +0.000 A 
ATOM      9  C   UNL     1       3.806   2.580  20.105  0.00  0.00    +0.000 A 
ATOM     10 CL   UNL     1       4.618   1.093  19.792  0.00  0.00    +0.000 Cl
ATOM     11  C   UNL     1       4.050   3.680  19.277  0.00  0.00    +0.000 A 
ATOM     12  C   UNL     1       3.365   4.854  19.534  0.00  0.00    +0.000 A 
ATOM     13  H   UNL     1       1.264   6.506  21.413  0.00  0.00    +0.000 HD
ENDROOT
BRANCH   1  17
ATOM     14  C   UNL     1       6.315   4.511  15.008  0.00  0.00    +0.000 A 
ATOM     15  C   UNL     1       5.001   4.119  15.262  0.00  0.00    +0.000 A 
ATOM     16  C   UNL     1       4.240   4.802  16.212  0.00  0.00    +0.000 A 
ATOM     17  C   UNL     1       4.786   5.878  16.923  0.00  0.00    +0.000 A 
ATOM     18  C   UNL     1       6.131   6.218  16.717  0.00  0.00    +0.000 A 
ATOM     19 BR   UNL     1       6.971   7.631  17.671  0.00  0.00    +0.000 Br
ATOM     20  C   UNL     1       6.892   5.533  15.763  0.00  0.00    +0.000 A 
BRANCH  14  22
ATOM     21  C   UNL     1       6.492   3.649  12.819  0.00  0.00    +0.000 C 
ATOM     22  O   UNL     1       7.126   3.946  14.061  0.00  0.00    +0.000 OA
ENDBRANCH  14  22
ENDBRANCH   1  17
TORSDOF 2
ENDMDL
MODEL 6
REMARK VINA RESULT:      -6.5      3.233      5.869
REMARK  Name = 
REMARK  3 active torsions:
REMARK  status: ('A' for Active; 'I' for Inactive)
REMARK    1  A    between atoms: C_1  and  O_2
REMARK    2  A    between atoms: O_2  and  C_3
REMARK    3  A    between atoms: C_6  and  C_7
REMARK                            x       y       z     vdW  Elec       q    Type
REMARK                         _______ _______ _______ _____ _____    ______ ____
ROOT
ATOM      1  C   UNL     1       2.256   5.371  17.959  0.00  0.00    +0.000 C 
ATOM      2  C   UNL     1       3.412   4.829  17.542  0.00  0.00    +0.000 C 
ATOM      3  C   UNL     1       3.459   3.402  17.065  0.00  0.00    +0.000 C 
ATOM      4  O   UNL     1       2.550   2.593  17.054  0.00  0.00    +0.000 OA
ATOM      5  N   UNL     1       4.764   3.208  16.647  0.00  0.00    +0.000 N 
ATOM      6  C   UNL     1       5.531   4.358  16.822  0.00  0.00    +0.000 A 
ATOM      7  C   UNL     1       6.861   4.519  16.489  0.00  0.00    +0.000 A 
ATOM      8  C   UNL     1       7.441   5.764  16.742  0.00  0.00    +0.000 A 
ATOM      9  C   UNL     1       6.687   6.793  17.331  0.00  0.00    +0.000 A 
ATOM     10 CL   UNL     1       7.429   8.318  17.634  0.00  0.00    +0.000 Cl
ATOM     11  C   UNL     1       5.343   6.608  17.669  0.00  0.00    +0.000 A 
ATOM     12  C   UNL     1       4.764   5.382  17.391  0.00  0.00    +0.000 A 
ATOM     13  H   UNL     1       5.088   2.333  16.264  0.00  0.00    +0.000 HD
ENDROOT
BRANCH   1  17
ATOM     14  C   UNL     1       1.561   9.413  19.117  0.00  0.00    +0.000 A 
ATOM     15  C   UNL     1       1.855   9.084  17.794  0.00  0.00    +0.000 A 
ATOM     16  C   UNL     1       2.135   7.761  17.449  0.00  0.00    +0.000 A 
ATOM     17  C   UNL     1       2.130   6.754  18.423  0.00  0.00    +0.000 A 
ATOM     18  C   UNL     1       1.907   7.104  19.763  0.00  0.00    +0.000 A 
ATOM     19 BR   UNL     1       1.930   5.814  21.158  0.00  0.00    +0.000 Br
ATOM     20  C   UNL     1       1.627   8.431  20.106  0.00  0.00    +0.000 A 
BRANCH  14  22
ATOM     21  C   UNL     1       0.867  10.756  20.928  0.00  0.00    +0.000 C 
ATOM     22  O   UNL     1       1.220  10.666  19.550  0.00  0.00    +0.000 OA
ENDBRANCH  14  22
ENDBRANCH   1  17
TORSDOF 2
ENDMDL
MODEL 7
REMARK VINA RESULT:      -5.9      7.164      9.489
REMARK  Name = 
REMARK  3 active torsions:
REMARK  status: ('A' for Active; 'I' for Inactive)
REMARK    1  A    between atoms: C_1  and  O_2
REMARK    2  A    between atoms: O_2  and  C_3
REMARK    3  A    between atoms: C_6  and  C_7
REMARK                            x       y       z     vdW  Elec       q    Type
REMARK                         _______ _______ _______ _____ _____    ______ ____
ROOT
ATOM      1  C   UNL     1      -1.707  12.259  21.031  0.00  0.00    +0.000 C 
ATOM      2  C   UNL     1      -2.954  12.372  20.547  0.00  0.00    +0.000 C 
ATOM      3  C   UNL     1      -4.052  12.960  21.392  0.00  0.00    +0.000 C 
ATOM      4  O   UNL     1      -3.981  13.323  22.551  0.00  0.00    +0.000 OA
ATOM      5  N   UNL     1      -5.161  12.993  20.565  0.00  0.00    +0.000 N 
ATOM      6  C   UNL     1      -4.870  12.481  19.303  0.00  0.00    +0.000 A 
ATOM      7  C   UNL     1      -5.736  12.388  18.232  0.00  0.00    +0.000 A 
ATOM      8  C   UNL     1      -5.236  11.847  17.045  0.00  0.00    +0.000 A 
ATOM      9  C   UNL     1      -3.905  11.402  16.971  0.00  0.00    +0.000 A 
ATOM     10 CL   UNL     1      -3.317  10.737  15.496  0.00  0.00    +0.000 Cl
ATOM     11  C   UNL     1      -3.046  11.497  18.069  0.00  0.00    +0.000 A 
ATOM     12  C   UNL     1      -3.536  12.059  19.235  0.00  0.00    +0.000 A 
ATOM     13  H   UNL     1      -6.053  13.353  20.866  0.00  0.00    +0.000 HD
ENDROOT
BRANCH   1  17
ATOM     14  C   UNL     1       1.301  10.470  18.598  0.00  0.00    +0.000 A 
ATOM     15  C   UNL     1       0.566   9.711  19.508  0.00  0.00    +0.000 A 
ATOM     16  C   UNL     1      -0.374  10.328  20.334  0.00  0.00    +0.000 A 
ATOM     17  C   UNL     1      -0.585  11.711  20.264  0.00  0.00    +0.000 A 
ATOM     18  C   UNL     1       0.210  12.479  19.402  0.00  0.00    +0.000 A 
ATOM     19 BR   UNL     1       0.030  14.366  19.275  0.00  0.00    +0.000 Br
ATOM     20  C   UNL     1       1.153  11.858  18.574  0.00  0.00    +0.000 A 
BRANCH  14  22
ATOM     21  C   UNL     1       2.368   8.542  17.756  0.00  0.00    +0.000 C 
ATOM     22  O   UNL     1       2.206   9.957  17.707  0.00  0.00    +0.000 OA
ENDBRANCH  14  22
ENDBRANCH   1  17
TORSDOF 2
ENDMDL
MODEL 8
REMARK VINA RESULT:      -5.9      6.545      8.788
REMARK  Name = 
REMARK  3 active torsions:
REMARK  status: ('A' for Active; 'I' for Inactive)
REMARK    1  A    between atoms: C_1  and  O_2
REMARK    2  A    between atoms: O_2  and  C_3
REMARK    3  A    between atoms: C_6  and  C_7
REMARK                            x       y       z     vdW  Elec       q    Type
REMARK                         _______ _______ _______ _____ _____    ______ ____
ROOT
ATOM      1  C   UNL     1      -1.086  11.925  20.561  0.00  0.00    +0.000 C 
ATOM      2  C   UNL     1      -2.309  12.083  20.029  0.00  0.00    +0.000 C 
ATOM      3  C   UNL     1      -3.351  12.907  20.738  0.00  0.00    +0.000 C 
ATOM      4  O   UNL     1      -3.258  13.442  21.827  0.00  0.00    +0.000 OA
ATOM      5  N   UNL     1      -4.439  12.917  19.883  0.00  0.00    +0.000 N 
ATOM      6  C   UNL     1      -4.186  12.183  18.728  0.00  0.00    +0.000 A 
ATOM      7  C   UNL     1      -5.044  12.007  17.660  0.00  0.00    +0.000 A 
ATOM      8  C   UNL     1      -4.587  11.235  16.589  0.00  0.00    +0.000 A 
ATOM      9  C   UNL     1      -3.309  10.653  16.626  0.00  0.00    +0.000 A 
ATOM     10 CL   UNL     1      -2.773   9.704  15.292  0.00  0.00    +0.000 Cl
ATOM     11  C   UNL     1      -2.459  10.836  17.720  0.00  0.00    +0.000 A 
ATOM     12  C   UNL     1      -2.903  11.624  18.767  0.00  0.00    +0.000 A 
ATOM     13  H   UNL     1      -5.294  13.408  20.098  0.00  0.00    +0.000 HD
ENDROOT
BRANCH   1  17
ATOM     14  C   UNL     1       1.752   9.478  18.531  0.00  0.00    +0.000 A 
ATOM     15  C   UNL     1       0.929   8.951  19.527  0.00  0.00    +0.000 A 
ATOM     16  C   UNL     1       0.047   9.784  20.217  0.00  0.00    +0.000 A 
ATOM     17  C   UNL     1      -0.018  11.152  19.924  0.00  0.00    +0.000 A 
ATOM     18  C   UNL     1       0.865  11.688  18.976  0.00  0.00    +0.000 A 
ATOM     19 BR   UNL     1       0.884  13.540  18.549  0.00  0.00    +0.000 Br
ATOM     20  C   UNL     1       1.749  10.851  18.285  0.00  0.00    +0.000 A 
BRANCH  14  22
ATOM     21  C   UNL     1       2.769   7.382  18.160  0.00  0.00    +0.000 C 
ATOM     22  O   UNL     1       2.609   8.741  17.760  0.00  0.00    +0.000 OA
ENDBRANCH  14  22
ENDBRANCH   1  17
TORSDOF 2
ENDMDL
MODEL 9
REMARK VINA RESULT:      -5.9      7.158     10.463
REMARK  Name = 
REMARK  3 active torsions:
REMARK  status: ('A' for Active; 'I' for Inactive)
REMARK    1  A    between atoms: C_1  and  O_2
REMARK    2  A    between atoms: O_2  and  C_3
REMARK    3  A    between atoms: C_6  and  C_7
REMARK                            x       y       z     vdW  Elec       q    Type
REMARK                         _______ _______ _______ _____ _____    ______ ____
ROOT
ATOM      1  C   UNL     1       0.597  11.629  20.354  0.00  0.00    +0.000 C 
ATOM      2  C   UNL     1      -0.038  11.074  19.309  0.00  0.00    +0.000 C 
ATOM      3  C   UNL     1       0.685  10.126  18.390  0.00  0.00    +0.000 C 
ATOM      4  O   UNL     1       1.859   9.809  18.427  0.00  0.00    +0.000 OA
ATOM      5  N   UNL     1      -0.276   9.697  17.492  0.00  0.00    +0.000 N 
ATOM      6  C   UNL     1      -1.512  10.284  17.750  0.00  0.00    +0.000 A 
ATOM      7  C   UNL     1      -2.689  10.061  17.063  0.00  0.00    +0.000 A 
ATOM      8  C   UNL     1      -3.825  10.751  17.493  0.00  0.00    +0.000 A 
ATOM      9  C   UNL     1      -3.747  11.647  18.572  0.00  0.00    +0.000 A 
ATOM     10 CL   UNL     1      -5.164  12.486  19.080  0.00  0.00    +0.000 Cl
ATOM     11  C   UNL     1      -2.544  11.866  19.249  0.00  0.00    +0.000 A 
ATOM     12  C   UNL     1      -1.427  11.160  18.839  0.00  0.00    +0.000 A 
ATOM     13  H   UNL     1      -0.076   9.038  16.755  0.00  0.00    +0.000 HD
ENDROOT
BRANCH   1  17
ATOM     14  C   UNL     1      -1.512  14.387  22.825  0.00  0.00    +0.000 A 
ATOM     15  C   UNL     1      -0.760  14.827  21.735  0.00  0.00    +0.000 A 
ATOM     16  C   UNL     1      -0.032  13.911  20.974  0.00  0.00    +0.000 A 
ATOM     17  C   UNL     1      -0.043  12.548  21.298  0.00  0.00    +0.000 A 
ATOM     18  C   UNL     1      -0.739  12.124  22.439  0.00  0.00    +0.000 A 
ATOM     19 BR   UNL     1      -0.769  10.304  22.983  0.00  0.00    +0.000 Br
ATOM     20  C   UNL     1      -1.468  13.044  23.200  0.00  0.00    +0.000 A 
BRANCH  14  22
ATOM     21  C   UNL     1      -2.948  14.539  24.690  0.00  0.00    +0.000 C 
ATOM     22  O   UNL     1      -2.302  15.193  23.601  0.00  0.00    +0.000 OA
ENDBRANCH  14  22
ENDBRANCH   1  17
TORSDOF 2
ENDMDL
