MODEL 1
REMARK VINA RESULT:      -3.9      0.000      0.000
REMARK  Name = 
REMARK  7 active torsions:
REMARK  status: ('A' for Active; 'I' for Inactive)
REMARK    1  A    between atoms: C_1  and  C_2
REMARK    2  A    between atoms: C_2  and  C_3
REMARK    3  A    between atoms: C_3  and  C_4
REMARK    4  A    between atoms: C_4  and  C_5
REMARK    5  A    between atoms: C_5  and  N_6
REMARK    6  A    between atoms: C_5  and  C_7
REMARK    7  A    between atoms: C_7  and  S_8
REMARK                            x       y       z     vdW  Elec       q    Type
REMARK                         _______ _______ _______ _____ _____    ______ ____
ROOT
ATOM      1  C   UNL     1       3.309   2.835  18.000  0.00  0.00    +0.000 C 
ENDROOT
BRANCH   1   2
ATOM      2  N   UNL     1       3.124   1.418  18.341  0.00  0.00    +0.000 NA
ATOM      3  H   UNL     1       3.870   0.876  17.901  0.00  0.00    +0.000 HD
ATOM      4  H   UNL     1       2.264   1.077  17.915  0.00  0.00    +0.000 HD
ENDBRANCH   1   2
BRANCH   1   5
ATOM      5  C   UNL     1       1.982   3.611  18.144  0.00  0.00    +0.000 C 
BRANCH   5   6
ATOM      6  C   UNL     1       0.978   2.937  19.089  0.00  0.00    +0.000 C 
BRANCH   6   8
ATOM      7  C   UNL     1       1.615   2.751  21.522  0.00  0.00    +0.000 C 
ATOM      8  C   UNL     1       0.966   3.621  20.458  0.00  0.00    +0.000 C 
ENDBRANCH   6   8
ENDBRANCH   5   6
ENDBRANCH   1   5
BRANCH   1   9
ATOM      9  C   UNL     1       4.451   3.474  18.831  0.00  0.00    +0.000 C 
BRANCH   9  10
ATOM     10  S   UNL     1       4.208   5.241  19.227  0.00  0.00    +0.000 S 
ATOM     11  H   UNL     1       2.950   5.137  19.678  0.00  0.00    +0.000 HD
ENDBRANCH   9  10
ENDBRANCH   1   9
TORSDOF 6
ENDMDL
MODEL 2
REMARK VINA RESULT:      -3.8      1.142      1.183
REMARK  Name = 
REMARK  7 active torsions:
REMARK  status: ('A' for Active; 'I' for Inactive)
REMARK    1  A    between atoms: C_1  and  C_2
REMARK    2  A    between atoms: C_2  and  C_3
REMARK    3  A    between atoms: C_3  and  C_4
REMARK    4  A    between atoms: C_4  and  C_5
REMARK    5  A    between atoms: C_5  and  N_6
REMARK    6  A    between atoms: C_5  and  C_7
REMARK    7  A    between atoms: C_7  and  S_8
REMARK                            x       y       z     vdW  Elec       q    Type
REMARK                         _______ _______ _______ _____ _____    ______ ____
ROOT
ATOM      1  C   UNL     1       3.756   2.590  18.561  0.00  0.00    +0.000 C 
ENDROOT
BRANCH   1   2
ATOM      2  N   UNL     1       4.811   2.407  19.567  0.00  0.00    +0.000 NA
ATOM      3  H   UNL     1       4.371   2.271  20.480  0.00  0.00    +0.000 HD
ATOM      4  H   UNL     1       5.345   3.269  19.658  0.00  0.00    +0.000 HD
ENDBRANCH   1   2
BRANCH   1   5
ATOM      5  C   UNL     1       2.393   2.107  19.103  0.00  0.00    +0.000 C 
BRANCH   5   6
ATOM      6  C   UNL     1       1.323   3.207  19.134  0.00  0.00    +0.000 C 
BRANCH   6   8
ATOM      7  C   UNL     1       1.508   2.679  21.592  0.00  0.00    +0.000 C 
ATOM      8  C   UNL     1       1.094   3.714  20.558  0.00  0.00    +0.000 C 
ENDBRANCH   6   8
ENDBRANCH   5   6
ENDBRANCH   1   5
BRANCH   1   9
ATOM      9  C   UNL     1       3.698   4.056  18.060  0.00  0.00    +0.000 C 
BRANCH   9  10
ATOM     10  S   UNL     1       4.630   5.247  19.085  0.00  0.00    +0.000 S 
ATOM     11  H   UNL     1       5.633   4.425  19.422  0.00  0.00    +0.000 HD
ENDBRANCH   9  10
ENDBRANCH   1   9
TORSDOF 6
ENDMDL
MODEL 3
REMARK VINA RESULT:      -3.7      5.045      6.260
REMARK  Name = 
REMARK  7 active torsions:
REMARK  status: ('A' for Active; 'I' for Inactive)
REMARK    1  A    between atoms: C_1  and  C_2
REMARK    2  A    between atoms: C_2  and  C_3
REMARK    3  A    between atoms: C_3  and  C_4
REMARK    4  A    between atoms: C_4  and  C_5
REMARK    5  A    between atoms: C_5  and  N_6
REMARK    6  A    between atoms: C_5  and  C_7
REMARK    7  A    between atoms: C_7  and  S_8
REMARK                            x       y       z     vdW  Elec       q    Type
REMARK                         _______ _______ _______ _____ _____    ______ ____
ROOT
ATOM      1  C   UNL     1       6.920   4.930  16.539  0.00  0.00    +0.000 C 
ENDROOT
BRANCH   1   2
ATOM      2  N   UNL     1       7.979   4.219  17.268  0.00  0.00    +0.000 NA
ATOM      3  H   UNL     1       7.548   3.487  17.837  0.00  0.00    +0.000 HD
ATOM      4  H   UNL     1       8.413   4.853  17.937  0.00  0.00    +0.000 HD
ENDBRANCH   1   2
BRANCH   1   5
ATOM      5  C   UNL     1       5.992   3.933  15.811  0.00  0.00    +0.000 C 
BRANCH   5   6
ATOM      6  C   UNL     1       5.510   4.433  14.442  0.00  0.00    +0.000 C 
BRANCH   6   8
ATOM      7  C   UNL     1       5.595   3.264  12.210  0.00  0.00    +0.000 C 
ATOM      8  C   UNL     1       6.408   3.913  13.318  0.00  0.00    +0.000 C 
ENDBRANCH   6   8
ENDBRANCH   5   6
ENDBRANCH   1   5
BRANCH   1   9
ATOM      9  C   UNL     1       6.132   5.885  17.472  0.00  0.00    +0.000 C 
BRANCH   9  10
ATOM     10  S   UNL     1       5.359   5.073  18.915  0.00  0.00    +0.000 S 
ATOM     11  H   UNL     1       6.425   5.131  19.726  0.00  0.00    +0.000 HD
ENDBRANCH   9  10
ENDBRANCH   1   9
TORSDOF 6
ENDMDL
MODEL 4
REMARK VINA RESULT:      -3.7      1.784      2.209
REMARK  Name = 
REMARK  7 active torsions:
REMARK  status: ('A' for Active; 'I' for Inactive)
REMARK    1  A    between atoms: C_1  and  C_2
REMARK    2  A    between atoms: C_2  and  C_3
REMARK    3  A    between atoms: C_3  and  C_4
REMARK    4  A    between atoms: C_4  and  C_5
REMARK    5  A    between atoms: C_5  and  N_6
REMARK    6  A    between atoms: C_5  and  C_7
REMARK    7  A    between atoms: C_7  and  S_8
REMARK                            x       y       z     vdW  Elec       q    Type
REMARK                         _______ _______ _______ _____ _____    ______ ____
ROOT
ATOM      1  C   UNL     1       3.960   2.176  19.574  0.00  0.00    +0.000 C 
ENDROOT
BRANCH   1   2
ATOM      2  N   UNL     1       5.216   2.937  19.534  0.00  0.00    +0.000 NA
ATOM      3  H   UNL     1       5.898   2.474  20.138  0.00  0.00    +0.000 HD
ATOM      4  H   UNL     1       5.070   3.853  19.956  0.00  0.00    +0.000 HD
ENDBRANCH   1   2
BRANCH   1   5
ATOM      5  C   UNL     1       3.039   2.698  20.698  0.00  0.00    +0.000 C 
BRANCH   5   6
ATOM      6  C   UNL     1       1.548   2.648  20.339  0.00  0.00    +0.000 C 
BRANCH   6   8
ATOM      7  C   UNL     1       1.971   5.116  20.631  0.00  0.00    +0.000 C 
ATOM      8  C   UNL     1       0.923   4.043  20.384  0.00  0.00    +0.000 C 
ENDBRANCH   6   8
ENDBRANCH   5   6
ENDBRANCH   1   5
BRANCH   1   9
ATOM      9  C   UNL     1       3.254   2.174  18.194  0.00  0.00    +0.000 C 
BRANCH   9  10
ATOM     10  S   UNL     1       3.480   3.704  17.221  0.00  0.00    +0.000 S 
ATOM     11  H   UNL     1       3.956   4.463  18.218  0.00  0.00    +0.000 HD
ENDBRANCH   9  10
ENDBRANCH   1   9
TORSDOF 6
ENDMDL
MODEL 5
REMARK VINA RESULT:      -3.7      1.301      1.337
REMARK  Name = 
REMARK  7 active torsions:
REMARK  status: ('A' for Active; 'I' for Inactive)
REMARK    1  A    between atoms: C_1  and  C_2
REMARK    2  A    between atoms: C_2  and  C_3
REMARK    3  A    between atoms: C_3  and  C_4
REMARK    4  A    between atoms: C_4  and  C_5
REMARK    5  A    between atoms: C_5  and  N_6
REMARK    6  A    between atoms: C_5  and  C_7
REMARK    7  A    between atoms: C_7  and  S_8
REMARK                            x       y       z     vdW  Elec       q    Type
REMARK                         _______ _______ _______ _____ _____    ______ ____
ROOT
ATOM      1  C   UNL     1       3.107   2.284  17.898  0.00  0.00    +0.000 C 
ENDROOT
BRANCH   1   2
ATOM      2  N   UNL     1       3.708   1.079  18.484  0.00  0.00    +0.000 NA
ATOM      3  H   UNL     1       3.042   0.669  19.142  0.00  0.00    +0.000 HD
ATOM      4  H   UNL     1       4.510   1.344  19.053  0.00  0.00    +0.000 HD
ENDBRANCH   1   2
BRANCH   1   5
ATOM      5  C   UNL     1       1.710   2.548  18.500  0.00  0.00    +0.000 C 
BRANCH   5   6
ATOM      6  C   UNL     1       1.486   4.011  18.907  0.00  0.00    +0.000 C 
BRANCH   6   8
ATOM      7  C   UNL     1       1.309   2.783  21.102  0.00  0.00    +0.000 C 
ATOM      8  C   UNL     1       1.185   4.127  20.402  0.00  0.00    +0.000 C 
ENDBRANCH   6   8
ENDBRANCH   5   6
ENDBRANCH   1   5
BRANCH   1   9
ATOM      9  C   UNL     1       4.044   3.511  18.038  0.00  0.00    +0.000 C 
BRANCH   9  10
ATOM     10  S   UNL     1       4.812   4.065  16.475  0.00  0.00    +0.000 S 
ATOM     11  H   UNL     1       4.782   2.881  15.848  0.00  0.00    +0.000 HD
ENDBRANCH   9  10
ENDBRANCH   1   9
TORSDOF 6
ENDMDL
MODEL 6
REMARK VINA RESULT:      -3.6      1.366      1.894
REMARK  Name = 
REMARK  7 active torsions:
REMARK  status: ('A' for Active; 'I' for Inactive)
REMARK    1  A    between atoms: C_1  and  C_2
REMARK    2  A    between atoms: C_2  and  C_3
REMARK    3  A    between atoms: C_3  and  C_4
REMARK    4  A    between atoms: C_4  and  C_5
REMARK    5  A    between atoms: C_5  and  N_6
REMARK    6  A    between atoms: C_5  and  C_7
REMARK    7  A    between atoms: C_7  and  S_8
REMARK                            x       y       z     vdW  Elec       q    Type
REMARK                         _______ _______ _______ _____ _____    ______ ____
ROOT
ATOM      1  C   UNL     1       1.724   2.431  18.232  0.00  0.00    +0.000 C 
ENDROOT
BRANCH   1   2
ATOM      2  N   UNL     1       2.704   1.451  18.720  0.00  0.00    +0.000 NA
ATOM      3  H   UNL     1       3.329   1.916  19.382  0.00  0.00    +0.000 HD
ATOM      4  H   UNL     1       3.305   1.162  17.950  0.00  0.00    +0.000 HD
ENDBRANCH   1   2
BRANCH   1   5
ATOM      5  C   UNL     1       0.878   2.986  19.398  0.00  0.00    +0.000 C 
BRANCH   5   6
ATOM      6  C   UNL     1       1.469   2.682  20.782  0.00  0.00    +0.000 C 
BRANCH   6   8
ATOM      7  C   UNL     1       1.697   5.190  20.681  0.00  0.00    +0.000 C 
ATOM      8  C   UNL     1       2.153   3.916  21.372  0.00  0.00    +0.000 C 
ENDBRANCH   6   8
ENDBRANCH   5   6
ENDBRANCH   1   5
BRANCH   1   9
ATOM      9  C   UNL     1       2.407   3.559  17.419  0.00  0.00    +0.000 C 
BRANCH   9  10
ATOM     10  S   UNL     1       4.178   3.805  17.796  0.00  0.00    +0.000 S 
ATOM     11  H   UNL     1       4.532   4.307  16.605  0.00  0.00    +0.000 HD
ENDBRANCH   9  10
ENDBRANCH   1   9
TORSDOF 6
ENDMDL
MODEL 7
REMARK VINA RESULT:      -3.6      1.319      1.439
REMARK  Name = 
REMARK  7 active torsions:
REMARK  status: ('A' for Active; 'I' for Inactive)
REMARK    1  A    between atoms: C_1  and  C_2
REMARK    2  A    between atoms: C_2  and  C_3
REMARK    3  A    between atoms: C_3  and  C_4
REMARK    4  A    between atoms: C_4  and  C_5
REMARK    5  A    between atoms: C_5  and  N_6
REMARK    6  A    between atoms: C_5  and  C_7
REMARK    7  A    between atoms: C_7  and  S_8
REMARK                            x       y       z     vdW  Elec       q    Type
REMARK                         _______ _______ _______ _____ _____    ______ ____
ROOT
ATOM      1  C   UNL     1       3.260   2.042  18.306  0.00  0.00    +0.000 C 
ENDROOT
BRANCH   1   2
ATOM      2  N   UNL     1       4.023   0.788  18.349  0.00  0.00    +0.000 NA
ATOM      3  H   UNL     1       4.175   0.532  19.327  0.00  0.00    +0.000 HD
ATOM      4  H   UNL     1       4.955   0.945  17.971  0.00  0.00    +0.000 HD
ENDBRANCH   1   2
BRANCH   1   5
ATOM      5  C   UNL     1       2.873   2.497  19.730  0.00  0.00    +0.000 C 
BRANCH   5   6
ATOM      6  C   UNL     1       1.357   2.584  19.953  0.00  0.00    +0.000 C 
BRANCH   6   8
ATOM      7  C   UNL     1       2.098   4.795  20.910  0.00  0.00    +0.000 C 
ATOM      8  C   UNL     1       0.936   4.004  20.332  0.00  0.00    +0.000 C 
ENDBRANCH   6   8
ENDBRANCH   5   6
ENDBRANCH   1   5
BRANCH   1   9
ATOM      9  C   UNL     1       4.025   3.144  17.529  0.00  0.00    +0.000 C 
BRANCH   9  10
ATOM     10  S   UNL     1       5.051   4.238  18.573  0.00  0.00    +0.000 S 
ATOM     11  H   UNL     1       5.666   4.887  17.575  0.00  0.00    +0.000 HD
ENDBRANCH   9  10
ENDBRANCH   1   9
TORSDOF 6
ENDMDL
MODEL 8
REMARK VINA RESULT:      -3.6      1.326      1.452
REMARK  Name = 
REMARK  7 active torsions:
REMARK  status: ('A' for Active; 'I' for Inactive)
REMARK    1  A    between atoms: C_1  and  C_2
REMARK    2  A    between atoms: C_2  and  C_3
REMARK    3  A    between atoms: C_3  and  C_4
REMARK    4  A    between atoms: C_4  and  C_5
REMARK    5  A    between atoms: C_5  and  N_6
REMARK    6  A    between atoms: C_5  and  C_7
REMARK    7  A    between atoms: C_7  and  S_8
REMARK                            x       y       z     vdW  Elec       q    Type
REMARK                         _______ _______ _______ _____ _____    ______ ____
ROOT
ATOM      1  C   UNL     1       4.249   3.555  18.745  0.00  0.00    +0.000 C 
ENDROOT
BRANCH   1   2
ATOM      2  N   UNL     1       4.830   2.536  19.629  0.00  0.00    +0.000 NA
ATOM      3  H   UNL     1       5.174   1.764  19.055  0.00  0.00    +0.000 HD
ATOM      4  H   UNL     1       4.095   2.129  20.205  0.00  0.00    +0.000 HD
ENDBRANCH   1   2
BRANCH   1   5
ATOM      5  C   UNL     1       2.892   3.081  18.181  0.00  0.00    +0.000 C 
BRANCH   5   6
ATOM      6  C   UNL     1       2.150   2.108  19.108  0.00  0.00    +0.000 C 
BRANCH   6   8
ATOM      7  C   UNL     1       1.519   2.832  21.439  0.00  0.00    +0.000 C 
ATOM      8  C   UNL     1       1.124   2.843  19.972  0.00  0.00    +0.000 C 
ENDBRANCH   6   8
ENDBRANCH   5   6
ENDBRANCH   1   5
BRANCH   1   9
ATOM      9  C   UNL     1       4.137   4.927  19.458  0.00  0.00    +0.000 C 
BRANCH   9  10
ATOM     10  S   UNL     1       3.153   6.175  18.556  0.00  0.00    +0.000 S 
ATOM     11  H   UNL     1       4.058   7.162  18.601  0.00  0.00    +0.000 HD
ENDBRANCH   9  10
ENDBRANCH   1   9
TORSDOF 6
ENDMDL
MODEL 9
REMARK VINA RESULT:      -3.6      1.722      2.222
REMARK  Name = 
REMARK  7 active torsions:
REMARK  status: ('A' for Active; 'I' for Inactive)
REMARK    1  A    between atoms: C_1  and  C_2
REMARK    2  A    between atoms: C_2  and  C_3
REMARK    3  A    between atoms: C_3  and  C_4
REMARK    4  A    between atoms: C_4  and  C_5
REMARK    5  A    between atoms: C_5  and  N_6
REMARK    6  A    between atoms: C_5  and  C_7
REMARK    7  A    between atoms: C_7  and  S_8
REMARK                            x       y       z     vdW  Elec       q    Type
REMARK                         _______ _______ _______ _____ _____    ______ ____
ROOT
ATOM      1  C   UNL     1       4.132   2.432  19.771  0.00  0.00    +0.000 C 
ENDROOT
BRANCH   1   2
ATOM      2  N   UNL     1       5.210   1.587  20.301  0.00  0.00    +0.000 NA
ATOM      3  H   UNL     1       4.928   1.234  21.217  0.00  0.00    +0.000 HD
ATOM      4  H   UNL     1       6.032   2.162  20.482  0.00  0.00    +0.000 HD
ENDBRANCH   1   2
BRANCH   1   5
ATOM      5  C   UNL     1       3.083   2.731  20.865  0.00  0.00    +0.000 C 
BRANCH   5   6
ATOM      6  C   UNL     1       2.178   3.925  20.534  0.00  0.00    +0.000 C 
BRANCH   6   8
ATOM      7  C   UNL     1       0.756   2.641  18.896  0.00  0.00    +0.000 C 
ATOM      8  C   UNL     1       0.765   3.463  20.174  0.00  0.00    +0.000 C 
ENDBRANCH   6   8
ENDBRANCH   5   6
ENDBRANCH   1   5
BRANCH   1   9
ATOM      9  C   UNL     1       4.689   3.727  19.128  0.00  0.00    +0.000 C 
BRANCH   9  10
ATOM     10  S   UNL     1       4.353   3.894  17.339  0.00  0.00    +0.000 S 
ATOM     11  H   UNL     1       4.958   2.763  16.952  0.00  0.00    +0.000 HD
ENDBRANCH   9  10
ENDBRANCH   1   9
TORSDOF 6
ENDMDL
