MODEL 1
REMARK VINA RESULT:      -7.1      0.000      0.000
REMARK  Name = 
REMARK  13 active torsions:
REMARK  status: ('A' for Active; 'I' for Inactive)
REMARK    1  A    between atoms: C_1  and  C_2
REMARK    2  A    between atoms: C_5  and  C_6
REMARK    3  A    between atoms: C_6  and  N_7
REMARK    4  A    between atoms: N_7  and  C_8
REMARK    5  A    between atoms: N_7  and  C_20
REMARK    6  A    between atoms: C_8  and  C_9
REMARK    7  A    between atoms: C_9  and  O_10
REMARK    8  A    between atoms: C_9  and  C_11
REMARK    9  A    between atoms: C_11  and  O_12
REMARK   10  A    between atoms: O_12  and  C_13
REMARK   11  A    between atoms: C_13  and  C_14
REMARK   12  A    between atoms: C_20  and  C_21
REMARK   13  A    between atoms: C_20  and  C_22
REMARK                            x       y       z     vdW  Elec       q    Type
REMARK                         _______ _______ _______ _____ _____    ______ ____
ROOT
ATOM      1  C   UNL     1       5.168   5.120  19.292  0.00  0.00    +0.000 C 
ENDROOT
BRANCH   1   2
ATOM      2  N   UNL     1       3.890   5.196  18.533  0.00  0.00    +0.000 NA
BRANCH   2   3
ATOM      3  C   UNL     1       3.542   3.912  17.856  0.00  0.00    +0.000 C 
ATOM      4  C   UNL     1       3.782   2.671  18.741  0.00  0.00    +0.000 C 
ATOM      5  C   UNL     1       2.068   3.862  17.416  0.00  0.00    +0.000 C 
ENDBRANCH   2   3
BRANCH   2   6
ATOM      6  C   UNL     1       2.761   5.674  19.365  0.00  0.00    +0.000 C 
BRANCH   6  11
ATOM      7  C   UNL     1       0.268  10.881  18.744  0.00  0.00    +0.000 C 
ATOM      8  C   UNL     1       1.095   9.645  18.940  0.00  0.00    +0.000 A 
ATOM      9  C   UNL     1       1.749   9.048  17.857  0.00  0.00    +0.000 A 
ATOM     10  C   UNL     1       2.361   7.799  17.997  0.00  0.00    +0.000 A 
ATOM     11  C   UNL     1       2.351   7.132  19.229  0.00  0.00    +0.000 A 
ATOM     12  C   UNL     1       1.746   7.766  20.327  0.00  0.00    +0.000 A 
ATOM     13  C   UNL     1       1.119   9.005  20.182  0.00  0.00    +0.000 A 
ENDBRANCH   6  11
ENDBRANCH   2   6
ENDBRANCH   1   2
BRANCH   1  14
ATOM     14  C   UNL     1       6.498   5.262  18.511  0.00  0.00    +0.000 C 
BRANCH  14  15
ATOM     15  O   UNL     1       7.616   5.348  19.408  0.00  0.00    +0.000 OA
ATOM     16  H   UNL     1       8.168   6.095  19.115  0.00  0.00    +0.000 HD
ENDBRANCH  14  15
BRANCH  14  17
ATOM     17  C   UNL     1       6.485   6.517  17.619  0.00  0.00    +0.000 C 
BRANCH  17  18
ATOM     18  O   UNL     1       7.074   6.161  16.368  0.00  0.00    +0.000 OA
BRANCH  18  19
ATOM     19  C   UNL     1       6.999   4.767  16.085  0.00  0.00    +0.000 C 
BRANCH  19  20
ATOM     20  C   UNL     1       6.901   4.573  14.593  0.00  0.00    +0.000 A 
ATOM     21  C   UNL     1       7.774   5.250  13.731  0.00  0.00    +0.000 A 
ATOM     22  C   UNL     1       7.690   5.062  12.348  0.00  0.00    +0.000 A 
ATOM     23  C   UNL     1       6.747   4.186  11.814  0.00  0.00    +0.000 A 
ATOM     24  C   UNL     1       5.890   3.487  12.657  0.00  0.00    +0.000 A 
ATOM     25  C   UNL     1       5.967   3.676  14.041  0.00  0.00    +0.000 A 
ENDBRANCH  19  20
ENDBRANCH  18  19
ENDBRANCH  17  18
ENDBRANCH  14  17
ENDBRANCH   1  14
TORSDOF 10
ENDMDL
MODEL 2
REMARK VINA RESULT:      -7.1      2.304      5.601
REMARK  Name = 
REMARK  13 active torsions:
REMARK  status: ('A' for Active; 'I' for Inactive)
REMARK    1  A    between atoms: C_1  and  C_2
REMARK    2  A    between atoms: C_5  and  C_6
REMARK    3  A    between atoms: C_6  and  N_7
REMARK    4  A    between atoms: N_7  and  C_8
REMARK    5  A    between atoms: N_7  and  C_20
REMARK    6  A    between atoms: C_8  and  C_9
REMARK    7  A    between atoms: C_9  and  O_10
REMARK    8  A    between atoms: C_9  and  C_11
REMARK    9  A    between atoms: C_11  and  O_12
REMARK   10  A    between atoms: O_12  and  C_13
REMARK   11  A    between atoms: C_13  and  C_14
REMARK   12  A    between atoms: C_20  and  C_21
REMARK   13  A    between atoms: C_20  and  C_22
REMARK                            x       y       z     vdW  Elec       q    Type
REMARK                         _______ _______ _______ _____ _____    ______ ____
ROOT
ATOM      1  C   UNL     1       6.576   4.715  16.676  0.00  0.00    +0.000 C 
ENDROOT
BRANCH   1   2
ATOM      2  N   UNL     1       5.918   5.592  17.683  0.00  0.00    +0.000 NA
BRANCH   2   3
ATOM      3  C   UNL     1       6.888   6.462  18.413  0.00  0.00    +0.000 C 
ATOM      4  C   UNL     1       7.993   5.667  19.139  0.00  0.00    +0.000 C 
ATOM      5  C   UNL     1       7.601   7.456  17.480  0.00  0.00    +0.000 C 
ENDBRANCH   2   3
BRANCH   2   6
ATOM      6  C   UNL     1       4.822   6.401  17.103  0.00  0.00    +0.000 C 
BRANCH   6  11
ATOM      7  C   UNL     1       0.979   8.320  21.011  0.00  0.00    +0.000 C 
ATOM      8  C   UNL     1       1.806   7.718  19.914  0.00  0.00    +0.000 A 
ATOM      9  C   UNL     1       2.413   6.470  20.083  0.00  0.00    +0.000 A 
ATOM     10  C   UNL     1       3.334   5.993  19.144  0.00  0.00    +0.000 A 
ATOM     11  C   UNL     1       3.646   6.745  18.004  0.00  0.00    +0.000 A 
ATOM     12  C   UNL     1       2.985   7.969  17.809  0.00  0.00    +0.000 A 
ATOM     13  C   UNL     1       2.080   8.453  18.757  0.00  0.00    +0.000 A 
ENDBRANCH   6  11
ENDBRANCH   2   6
ENDBRANCH   1   2
BRANCH   1  14
ATOM     14  C   UNL     1       5.682   3.806  15.796  0.00  0.00    +0.000 C 
BRANCH  14  15
ATOM     15  O   UNL     1       5.499   4.373  14.489  0.00  0.00    +0.000 OA
ATOM     16  H   UNL     1       5.065   5.238  14.604  0.00  0.00    +0.000 HD
ENDBRANCH  14  15
BRANCH  14  17
ATOM     17  C   UNL     1       4.300   3.596  16.439  0.00  0.00    +0.000 C 
BRANCH  17  18
ATOM     18  O   UNL     1       4.482   2.775  17.592  0.00  0.00    +0.000 OA
BRANCH  18  19
ATOM     19  C   UNL     1       3.382   1.906  17.846  0.00  0.00    +0.000 C 
BRANCH  19  20
ATOM     20  C   UNL     1       2.660   2.375  19.084  0.00  0.00    +0.000 A 
ATOM     21  C   UNL     1       1.326   2.798  19.008  0.00  0.00    +0.000 A 
ATOM     22  C   UNL     1       0.652   3.224  20.158  0.00  0.00    +0.000 A 
ATOM     23  C   UNL     1       1.296   3.214  21.393  0.00  0.00    +0.000 A 
ATOM     24  C   UNL     1       2.612   2.773  21.489  0.00  0.00    +0.000 A 
ATOM     25  C   UNL     1       3.291   2.352  20.342  0.00  0.00    +0.000 A 
ENDBRANCH  19  20
ENDBRANCH  18  19
ENDBRANCH  17  18
ENDBRANCH  14  17
ENDBRANCH   1  14
TORSDOF 10
ENDMDL
MODEL 3
REMARK VINA RESULT:      -7.0      2.316      5.602
REMARK  Name = 
REMARK  13 active torsions:
REMARK  status: ('A' for Active; 'I' for Inactive)
REMARK    1  A    between atoms: C_1  and  C_2
REMARK    2  A    between atoms: C_5  and  C_6
REMARK    3  A    between atoms: C_6  and  N_7
REMARK    4  A    between atoms: N_7  and  C_8
REMARK    5  A    between atoms: N_7  and  C_20
REMARK    6  A    between atoms: C_8  and  C_9
REMARK    7  A    between atoms: C_9  and  O_10
REMARK    8  A    between atoms: C_9  and  C_11
REMARK    9  A    between atoms: C_11  and  O_12
REMARK   10  A    between atoms: O_12  and  C_13
REMARK   11  A    between atoms: C_13  and  C_14
REMARK   12  A    between atoms: C_20  and  C_21
REMARK   13  A    between atoms: C_20  and  C_22
REMARK                            x       y       z     vdW  Elec       q    Type
REMARK                         _______ _______ _______ _____ _____    ______ ____
ROOT
ATOM      1  C   UNL     1       6.520   5.318  15.764  0.00  0.00    +0.000 C 
ENDROOT
BRANCH   1   2
ATOM      2  N   UNL     1       6.274   6.118  16.996  0.00  0.00    +0.000 NA
BRANCH   2   3
ATOM      3  C   UNL     1       7.519   6.734  17.543  0.00  0.00    +0.000 C 
ATOM      4  C   UNL     1       7.440   8.270  17.658  0.00  0.00    +0.000 C 
ATOM      5  C   UNL     1       7.867   6.203  18.945  0.00  0.00    +0.000 C 
ENDBRANCH   2   3
BRANCH   2   6
ATOM      6  C   UNL     1       5.220   7.142  16.809  0.00  0.00    +0.000 C 
BRANCH   6  11
ATOM      7  C   UNL     1       1.148   7.675  20.914  0.00  0.00    +0.000 C 
ATOM      8  C   UNL     1       2.061   7.405  19.755  0.00  0.00    +0.000 A 
ATOM      9  C   UNL     1       2.948   6.324  19.784  0.00  0.00    +0.000 A 
ATOM     10  C   UNL     1       3.927   6.180  18.796  0.00  0.00    +0.000 A 
ATOM     11  C   UNL     1       4.023   7.102  17.745  0.00  0.00    +0.000 A 
ATOM     12  C   UNL     1       3.089   8.149  17.688  0.00  0.00    +0.000 A 
ATOM     13  C   UNL     1       2.123   8.303  18.686  0.00  0.00    +0.000 A 
ENDBRANCH   6  11
ENDBRANCH   2   6
ENDBRANCH   1   2
BRANCH   1  14
ATOM     14  C   UNL     1       5.944   3.882  15.692  0.00  0.00    +0.000 C 
BRANCH  14  15
ATOM     15  O   UNL     1       4.869   3.805  14.742  0.00  0.00    +0.000 OA
ATOM     16  H   UNL     1       4.221   4.493  14.979  0.00  0.00    +0.000 HD
ENDBRANCH  14  15
BRANCH  14  17
ATOM     17  C   UNL     1       5.421   3.424  17.065  0.00  0.00    +0.000 C 
BRANCH  17  18
ATOM     18  O   UNL     1       4.032   3.131  16.921  0.00  0.00    +0.000 OA
BRANCH  18  19
ATOM     19  C   UNL     1       3.611   2.003  17.683  0.00  0.00    +0.000 C 
BRANCH  19  20
ATOM     20  C   UNL     1       2.798   2.480  18.860  0.00  0.00    +0.000 A 
ATOM     21  C   UNL     1       3.342   2.460  20.151  0.00  0.00    +0.000 A 
ATOM     22  C   UNL     1       2.592   2.912  21.242  0.00  0.00    +0.000 A 
ATOM     23  C   UNL     1       1.302   3.402  21.053  0.00  0.00    +0.000 A 
ATOM     24  C   UNL     1       0.757   3.452  19.774  0.00  0.00    +0.000 A 
ATOM     25  C   UNL     1       1.501   2.997  18.681  0.00  0.00    +0.000 A 
ENDBRANCH  19  20
ENDBRANCH  18  19
ENDBRANCH  17  18
ENDBRANCH  14  17
ENDBRANCH   1  14
TORSDOF 10
ENDMDL
MODEL 4
REMARK VINA RESULT:      -7.0      2.358      3.710
REMARK  Name = 
REMARK  13 active torsions:
REMARK  status: ('A' for Active; 'I' for Inactive)
REMARK    1  A    between atoms: C_1  and  C_2
REMARK    2  A    between atoms: C_5  and  C_6
REMARK    3  A    between atoms: C_6  and  N_7
REMARK    4  A    between atoms: N_7  and  C_8
REMARK    5  A    between atoms: N_7  and  C_20
REMARK    6  A    between atoms: C_8  and  C_9
REMARK    7  A    between atoms: C_9  and  O_10
REMARK    8  A    between atoms: C_9  and  C_11
REMARK    9  A    between atoms: C_11  and  O_12
REMARK   10  A    between atoms: O_12  and  C_13
REMARK   11  A    between atoms: C_13  and  C_14
REMARK   12  A    between atoms: C_20  and  C_21
REMARK   13  A    between atoms: C_20  and  C_22
REMARK                            x       y       z     vdW  Elec       q    Type
REMARK                         _______ _______ _______ _____ _____    ______ ____
ROOT
ATOM      1  C   UNL     1       3.707   3.351  19.307  0.00  0.00    +0.000 C 
ENDROOT
BRANCH   1   2
ATOM      2  N   UNL     1       2.672   4.388  19.571  0.00  0.00    +0.000 NA
BRANCH   2   3
ATOM      3  C   UNL     1       1.731   4.001  20.663  0.00  0.00    +0.000 C 
ATOM      4  C   UNL     1       0.485   3.246  20.154  0.00  0.00    +0.000 C 
ATOM      5  C   UNL     1       2.395   3.096  21.716  0.00  0.00    +0.000 C 
ENDBRANCH   2   3
BRANCH   2   6
ATOM      6  C   UNL     1       3.258   5.723  19.833  0.00  0.00    +0.000 C 
BRANCH   6  11
ATOM      7  C   UNL     1       0.901  10.889  18.620  0.00  0.00    +0.000 C 
ATOM      8  C   UNL     1       1.315   9.473  18.890  0.00  0.00    +0.000 A 
ATOM      9  C   UNL     1       1.178   8.923  20.169  0.00  0.00    +0.000 A 
ATOM     10  C   UNL     1       1.733   7.676  20.470  0.00  0.00    +0.000 A 
ATOM     11  C   UNL     1       2.416   6.943  19.491  0.00  0.00    +0.000 A 
ATOM     12  C   UNL     1       2.496   7.473  18.193  0.00  0.00    +0.000 A 
ATOM     13  C   UNL     1       1.957   8.727  17.897  0.00  0.00    +0.000 A 
ENDBRANCH   6  11
ENDBRANCH   2   6
ENDBRANCH   1   2
BRANCH   1  14
ATOM     14  C   UNL     1       3.378   2.223  18.297  0.00  0.00    +0.000 C 
BRANCH  14  15
ATOM     15  O   UNL     1       4.244   1.093  18.486  0.00  0.00    +0.000 OA
ATOM     16  H   UNL     1       4.788   1.271  19.274  0.00  0.00    +0.000 HD
ENDBRANCH  14  15
BRANCH  14  17
ATOM     17  C   UNL     1       3.522   2.718  16.847  0.00  0.00    +0.000 C 
BRANCH  17  18
ATOM     18  O   UNL     1       4.019   4.055  16.895  0.00  0.00    +0.000 OA
BRANCH  18  19
ATOM     19  C   UNL     1       5.222   4.238  16.155  0.00  0.00    +0.000 C 
BRANCH  19  20
ATOM     20  C   UNL     1       6.133   5.167  16.918  0.00  0.00    +0.000 A 
ATOM     21  C   UNL     1       6.102   6.546  16.674  0.00  0.00    +0.000 A 
ATOM     22  C   UNL     1       6.940   7.410  17.388  0.00  0.00    +0.000 A 
ATOM     23  C   UNL     1       7.800   6.908  18.362  0.00  0.00    +0.000 A 
ATOM     24  C   UNL     1       7.824   5.544  18.634  0.00  0.00    +0.000 A 
ATOM     25  C   UNL     1       6.993   4.676  17.919  0.00  0.00    +0.000 A 
ENDBRANCH  19  20
ENDBRANCH  18  19
ENDBRANCH  17  18
ENDBRANCH  14  17
ENDBRANCH   1  14
TORSDOF 10
ENDMDL
MODEL 5
REMARK VINA RESULT:      -6.9      1.125      1.628
REMARK  Name = 
REMARK  13 active torsions:
REMARK  status: ('A' for Active; 'I' for Inactive)
REMARK    1  A    between atoms: C_1  and  C_2
REMARK    2  A    between atoms: C_5  and  C_6
REMARK    3  A    between atoms: C_6  and  N_7
REMARK    4  A    between atoms: N_7  and  C_8
REMARK    5  A    between atoms: N_7  and  C_20
REMARK    6  A    between atoms: C_8  and  C_9
REMARK    7  A    between atoms: C_9  and  O_10
REMARK    8  A    between atoms: C_9  and  C_11
REMARK    9  A    between atoms: C_11  and  O_12
REMARK   10  A    between atoms: O_12  and  C_13
REMARK   11  A    between atoms: C_13  and  C_14
REMARK   12  A    between atoms: C_20  and  C_21
REMARK   13  A    between atoms: C_20  and  C_22
REMARK                            x       y       z     vdW  Elec       q    Type
REMARK                         _______ _______ _______ _____ _____    ______ ____
ROOT
ATOM      1  C   UNL     1       3.929   4.023  19.420  0.00  0.00    +0.000 C 
ENDROOT
BRANCH   1   2
ATOM      2  N   UNL     1       2.761   4.915  19.189  0.00  0.00    +0.000 NA
BRANCH   2   3
ATOM      3  C   UNL     1       1.485   4.161  19.002  0.00  0.00    +0.000 C 
ATOM      4  C   UNL     1       1.654   2.877  18.163  0.00  0.00    +0.000 C 
ATOM      5  C   UNL     1       0.855   3.735  20.339  0.00  0.00    +0.000 C 
ENDBRANCH   2   3
BRANCH   2   6
ATOM      6  C   UNL     1       2.612   5.943  20.245  0.00  0.00    +0.000 C 
BRANCH   6  11
ATOM      7  C   UNL     1       0.040  10.848  18.501  0.00  0.00    +0.000 C 
ATOM      8  C   UNL     1       0.880   9.703  18.982  0.00  0.00    +0.000 A 
ATOM      9  C   UNL     1       1.648   8.956  18.083  0.00  0.00    +0.000 A 
ATOM     10  C   UNL     1       2.279   7.778  18.494  0.00  0.00    +0.000 A 
ATOM     11  C   UNL     1       2.175   7.336  19.819  0.00  0.00    +0.000 A 
ATOM     12  C   UNL     1       1.455   8.124  20.732  0.00  0.00    +0.000 A 
ATOM     13  C   UNL     1       0.808   9.291  20.316  0.00  0.00    +0.000 A 
ENDBRANCH   6  11
ENDBRANCH   2   6
ENDBRANCH   1   2
BRANCH   1  14
ATOM     14  C   UNL     1       5.303   4.444  18.840  0.00  0.00    +0.000 C 
BRANCH  14  15
ATOM     15  O   UNL     1       6.115   5.073  19.843  0.00  0.00    +0.000 OA
ATOM     16  H   UNL     1       6.866   4.479  20.025  0.00  0.00    +0.000 HD
ENDBRANCH  14  15
BRANCH  14  17
ATOM     17  C   UNL     1       5.131   5.420  17.662  0.00  0.00    +0.000 C 
BRANCH  17  18
ATOM     18  O   UNL     1       5.509   4.729  16.471  0.00  0.00    +0.000 OA
BRANCH  18  19
ATOM     19  C   UNL     1       6.706   5.230  15.884  0.00  0.00    +0.000 C 
BRANCH  19  20
ATOM     20  C   UNL     1       6.776   4.777  14.447  0.00  0.00    +0.000 A 
ATOM     21  C   UNL     1       5.882   3.812  13.965  0.00  0.00    +0.000 A 
ATOM     22  C   UNL     1       5.939   3.398  12.630  0.00  0.00    +0.000 A 
ATOM     23  C   UNL     1       6.875   3.955  11.761  0.00  0.00    +0.000 A 
ATOM     24  C   UNL     1       7.753   4.932  12.218  0.00  0.00    +0.000 A 
ATOM     25  C   UNL     1       7.703   5.345  13.553  0.00  0.00    +0.000 A 
ENDBRANCH  19  20
ENDBRANCH  18  19
ENDBRANCH  17  18
ENDBRANCH  14  17
ENDBRANCH   1  14
TORSDOF 10
ENDMDL
MODEL 6
REMARK VINA RESULT:      -6.8      1.659      7.257
REMARK  Name = 
REMARK  13 active torsions:
REMARK  status: ('A' for Active; 'I' for Inactive)
REMARK    1  A    between atoms: C_1  and  C_2
REMARK    2  A    between atoms: C_5  and  C_6
REMARK    3  A    between atoms: C_6  and  N_7
REMARK    4  A    between atoms: N_7  and  C_8
REMARK    5  A    between atoms: N_7  and  C_20
REMARK    6  A    between atoms: C_8  and  C_9
REMARK    7  A    between atoms: C_9  and  O_10
REMARK    8  A    between atoms: C_9  and  C_11
REMARK    9  A    between atoms: C_11  and  O_12
REMARK   10  A    between atoms: O_12  and  C_13
REMARK   11  A    between atoms: C_13  and  C_14
REMARK   12  A    between atoms: C_20  and  C_21
REMARK   13  A    between atoms: C_20  and  C_22
REMARK                            x       y       z     vdW  Elec       q    Type
REMARK                         _______ _______ _______ _____ _____    ______ ____
ROOT
ATOM      1  C   UNL     1       5.870   4.478  17.935  0.00  0.00    +0.000 C 
ENDROOT
BRANCH   1   2
ATOM      2  N   UNL     1       6.094   5.914  17.613  0.00  0.00    +0.000 NA
BRANCH   2   3
ATOM      3  C   UNL     1       7.494   6.357  17.887  0.00  0.00    +0.000 C 
ATOM      4  C   UNL     1       7.700   7.874  17.702  0.00  0.00    +0.000 C 
ATOM      5  C   UNL     1       7.945   6.021  19.319  0.00  0.00    +0.000 C 
ENDBRANCH   2   3
BRANCH   2   6
ATOM      6  C   UNL     1       5.698   6.255  16.228  0.00  0.00    +0.000 C 
BRANCH   6  11
ATOM      7  C   UNL     1       6.681   3.130  11.433  0.00  0.00    +0.000 C 
ATOM      8  C   UNL     1       6.480   3.758  12.780  0.00  0.00    +0.000 A 
ATOM      9  C   UNL     1       5.240   3.685  13.422  0.00  0.00    +0.000 A 
ATOM     10  C   UNL     1       4.994   4.427  14.582  0.00  0.00    +0.000 A 
ATOM     11  C   UNL     1       5.993   5.237  15.137  0.00  0.00    +0.000 A 
ATOM     12  C   UNL     1       7.256   5.256  14.523  0.00  0.00    +0.000 A 
ATOM     13  C   UNL     1       7.495   4.530  13.353  0.00  0.00    +0.000 A 
ENDBRANCH   6  11
ENDBRANCH   2   6
ENDBRANCH   1   2
BRANCH   1  14
ATOM     14  C   UNL     1       4.793   4.119  18.988  0.00  0.00    +0.000 C 
BRANCH  14  15
ATOM     15  O   UNL     1       5.176   2.959  19.743  0.00  0.00    +0.000 OA
ATOM     16  H   UNL     1       4.372   2.430  19.893  0.00  0.00    +0.000 HD
ENDBRANCH  14  15
BRANCH  14  17
ATOM     17  C   UNL     1       3.434   3.844  18.320  0.00  0.00    +0.000 C 
BRANCH  17  18
ATOM     18  O   UNL     1       2.481   4.733  18.902  0.00  0.00    +0.000 OA
BRANCH  18  19
ATOM     19  C   UNL     1       3.072   5.739  19.719  0.00  0.00    +0.000 C 
BRANCH  19  20
ATOM     20  C   UNL     1       2.439   7.069  19.396  0.00  0.00    +0.000 A 
ATOM     21  C   UNL     1       1.686   7.749  20.363  0.00  0.00    +0.000 A 
ATOM     22  C   UNL     1       1.107   8.987  20.068  0.00  0.00    +0.000 A 
ATOM     23  C   UNL     1       1.288   9.566  18.814  0.00  0.00    +0.000 A 
ATOM     24  C   UNL     1       2.054   8.916  17.851  0.00  0.00    +0.000 A 
ATOM     25  C   UNL     1       2.630   7.676  18.140  0.00  0.00    +0.000 A 
ENDBRANCH  19  20
ENDBRANCH  18  19
ENDBRANCH  17  18
ENDBRANCH  14  17
ENDBRANCH   1  14
TORSDOF 10
ENDMDL
MODEL 7
REMARK VINA RESULT:      -6.8      2.974      7.810
REMARK  Name = 
REMARK  13 active torsions:
REMARK  status: ('A' for Active; 'I' for Inactive)
REMARK    1  A    between atoms: C_1  and  C_2
REMARK    2  A    between atoms: C_5  and  C_6
REMARK    3  A    between atoms: C_6  and  N_7
REMARK    4  A    between atoms: N_7  and  C_8
REMARK    5  A    between atoms: N_7  and  C_20
REMARK    6  A    between atoms: C_8  and  C_9
REMARK    7  A    between atoms: C_9  and  O_10
REMARK    8  A    between atoms: C_9  and  C_11
REMARK    9  A    between atoms: C_11  and  O_12
REMARK   10  A    between atoms: O_12  and  C_13
REMARK   11  A    between atoms: C_13  and  C_14
REMARK   12  A    between atoms: C_20  and  C_21
REMARK   13  A    between atoms: C_20  and  C_22
REMARK                            x       y       z     vdW  Elec       q    Type
REMARK                         _______ _______ _______ _____ _____    ______ ____
ROOT
ATOM      1  C   UNL     1       2.255   4.993  18.380  0.00  0.00    +0.000 C 
ENDROOT
BRANCH   1   2
ATOM      2  N   UNL     1       3.237   3.914  18.084  0.00  0.00    +0.000 NA
BRANCH   2   3
ATOM      3  C   UNL     1       2.601   2.567  17.974  0.00  0.00    +0.000 C 
ATOM      4  C   UNL     1       3.502   1.425  18.486  0.00  0.00    +0.000 C 
ATOM      5  C   UNL     1       1.282   2.476  18.761  0.00  0.00    +0.000 C 
ENDBRANCH   2   3
BRANCH   2   6
ATOM      6  C   UNL     1       4.058   4.206  16.887  0.00  0.00    +0.000 C 
BRANCH   6  11
ATOM      7  C   UNL     1       8.357   7.779  18.457  0.00  0.00    +0.000 C 
ATOM      8  C   UNL     1       7.372   6.805  17.884  0.00  0.00    +0.000 A 
ATOM      9  C   UNL     1       6.421   7.222  16.947  0.00  0.00    +0.000 A 
ATOM     10  C   UNL     1       5.387   6.367  16.554  0.00  0.00    +0.000 A 
ATOM     11  C   UNL     1       5.296   5.069  17.073  0.00  0.00    +0.000 A 
ATOM     12  C   UNL     1       6.291   4.635  17.966  0.00  0.00    +0.000 A 
ATOM     13  C   UNL     1       7.313   5.496  18.372  0.00  0.00    +0.000 A 
ENDBRANCH   6  11
ENDBRANCH   2   6
ENDBRANCH   1   2
BRANCH   1  14
ATOM     14  C   UNL     1       2.723   6.203  19.225  0.00  0.00    +0.000 C 
BRANCH  14  15
ATOM     15  O   UNL     1       2.131   6.180  20.533  0.00  0.00    +0.000 OA
ATOM     16  H   UNL     1       2.839   5.975  21.170  0.00  0.00    +0.000 HD
ENDBRANCH  14  15
BRANCH  14  17
ATOM     17  C   UNL     1       2.355   7.533  18.541  0.00  0.00    +0.000 C 
BRANCH  17  18
ATOM     18  O   UNL     1       2.069   8.481  19.569  0.00  0.00    +0.000 OA
BRANCH  18  19
ATOM     19  C   UNL     1       0.936   9.295  19.287  0.00  0.00    +0.000 C 
BRANCH  19  20
ATOM     20  C   UNL     1       0.315   9.741  20.586  0.00  0.00    +0.000 A 
ATOM     21  C   UNL     1      -0.002   8.804  21.579  0.00  0.00    +0.000 A 
ATOM     22  C   UNL     1      -0.569   9.218  22.789  0.00  0.00    +0.000 A 
ATOM     23  C   UNL     1      -0.808  10.570  23.026  0.00  0.00    +0.000 A 
ATOM     24  C   UNL     1      -0.476  11.516  22.061  0.00  0.00    +0.000 A 
ATOM     25  C   UNL     1       0.086  11.106  20.848  0.00  0.00    +0.000 A 
ENDBRANCH  19  20
ENDBRANCH  18  19
ENDBRANCH  17  18
ENDBRANCH  14  17
ENDBRANCH   1  14
TORSDOF 10
ENDMDL
MODEL 8
REMARK VINA RESULT:      -6.8      0.716      1.396
REMARK  Name = 
REMARK  13 active torsions:
REMARK  status: ('A' for Active; 'I' for Inactive)
REMARK    1  A    between atoms: C_1  and  C_2
REMARK    2  A    between atoms: C_5  and  C_6
REMARK    3  A    between atoms: C_6  and  N_7
REMARK    4  A    between atoms: N_7  and  C_8
REMARK    5  A    between atoms: N_7  and  C_20
REMARK    6  A    between atoms: C_8  and  C_9
REMARK    7  A    between atoms: C_9  and  O_10
REMARK    8  A    between atoms: C_9  and  C_11
REMARK    9  A    between atoms: C_11  and  O_12
REMARK   10  A    between atoms: O_12  and  C_13
REMARK   11  A    between atoms: C_13  and  C_14
REMARK   12  A    between atoms: C_20  and  C_21
REMARK   13  A    between atoms: C_20  and  C_22
REMARK                            x       y       z     vdW  Elec       q    Type
REMARK                         _______ _______ _______ _____ _____    ______ ____
ROOT
ATOM      1  C   UNL     1       4.898   4.005  18.777  0.00  0.00    +0.000 C 
ENDROOT
BRANCH   1   2
ATOM      2  N   UNL     1       3.557   4.646  18.690  0.00  0.00    +0.000 NA
BRANCH   2   3
ATOM      3  C   UNL     1       2.446   3.653  18.598  0.00  0.00    +0.000 C 
ATOM      4  C   UNL     1       1.354   4.052  17.584  0.00  0.00    +0.000 C 
ATOM      5  C   UNL     1       2.942   2.256  18.185  0.00  0.00    +0.000 C 
ENDBRANCH   2   3
BRANCH   2   6
ATOM      6  C   UNL     1       3.312   5.606  19.790  0.00  0.00    +0.000 C 
BRANCH   6  11
ATOM      7  C   UNL     1       0.903  10.782  18.726  0.00  0.00    +0.000 C 
ATOM      8  C   UNL     1       1.331   9.363  18.956  0.00  0.00    +0.000 A 
ATOM      9  C   UNL     1       1.204   8.777  20.220  0.00  0.00    +0.000 A 
ATOM     10  C   UNL     1       1.772   7.527  20.486  0.00  0.00    +0.000 A 
ATOM     11  C   UNL     1       2.458   6.827  19.485  0.00  0.00    +0.000 A 
ATOM     12  C   UNL     1       2.527   7.393  18.201  0.00  0.00    +0.000 A 
ATOM     13  C   UNL     1       1.976   8.650  17.942  0.00  0.00    +0.000 A 
ENDBRANCH   6  11
ENDBRANCH   2   6
ENDBRANCH   1   2
BRANCH   1  14
ATOM     14  C   UNL     1       6.133   4.816  18.314  0.00  0.00    +0.000 C 
BRANCH  14  15
ATOM     15  O   UNL     1       7.000   5.113  19.420  0.00  0.00    +0.000 OA
ATOM     16  H   UNL     1       7.788   5.558  19.061  0.00  0.00    +0.000 HD
ENDBRANCH  14  15
BRANCH  14  17
ATOM     17  C   UNL     1       5.711   6.140  17.650  0.00  0.00    +0.000 C 
BRANCH  17  18
ATOM     18  O   UNL     1       5.776   5.953  16.237  0.00  0.00    +0.000 OA
BRANCH  18  19
ATOM     19  C   UNL     1       6.982   5.330  15.805  0.00  0.00    +0.000 C 
BRANCH  19  20
ATOM     20  C   UNL     1       6.781   4.778  14.416  0.00  0.00    +0.000 A 
ATOM     21  C   UNL     1       7.698   5.069  13.398  0.00  0.00    +0.000 A 
ATOM     22  C   UNL     1       7.518   4.550  12.112  0.00  0.00    +0.000 A 
ATOM     23  C   UNL     1       6.431   3.723  11.835  0.00  0.00    +0.000 A 
ATOM     24  C   UNL     1       5.525   3.404  12.841  0.00  0.00    +0.000 A 
ATOM     25  C   UNL     1       5.699   3.925  14.126  0.00  0.00    +0.000 A 
ENDBRANCH  19  20
ENDBRANCH  18  19
ENDBRANCH  17  18
ENDBRANCH  14  17
ENDBRANCH   1  14
TORSDOF 10
ENDMDL
MODEL 9
REMARK VINA RESULT:      -6.7      0.768      1.252
REMARK  Name = 
REMARK  13 active torsions:
REMARK  status: ('A' for Active; 'I' for Inactive)
REMARK    1  A    between atoms: C_1  and  C_2
REMARK    2  A    between atoms: C_5  and  C_6
REMARK    3  A    between atoms: C_6  and  N_7
REMARK    4  A    between atoms: N_7  and  C_8
REMARK    5  A    between atoms: N_7  and  C_20
REMARK    6  A    between atoms: C_8  and  C_9
REMARK    7  A    between atoms: C_9  and  O_10
REMARK    8  A    between atoms: C_9  and  C_11
REMARK    9  A    between atoms: C_11  and  O_12
REMARK   10  A    between atoms: O_12  and  C_13
REMARK   11  A    between atoms: C_13  and  C_14
REMARK   12  A    between atoms: C_20  and  C_21
REMARK   13  A    between atoms: C_20  and  C_22
REMARK                            x       y       z     vdW  Elec       q    Type
REMARK                         _______ _______ _______ _____ _____    ______ ____
ROOT
ATOM      1  C   UNL     1       5.050   5.834  18.619  0.00  0.00    +0.000 C 
ENDROOT
BRANCH   1   2
ATOM      2  N   UNL     1       3.644   5.357  18.512  0.00  0.00    +0.000 NA
BRANCH   2   3
ATOM      3  C   UNL     1       3.541   3.868  18.466  0.00  0.00    +0.000 C 
ATOM      4  C   UNL     1       2.895   3.262  19.729  0.00  0.00    +0.000 C 
ATOM      5  C   UNL     1       2.713   3.375  17.267  0.00  0.00    +0.000 C 
ENDBRANCH   2   3
BRANCH   2   6
ATOM      6  C   UNL     1       2.772   5.911  19.574  0.00  0.00    +0.000 C 
BRANCH   6  11
ATOM      7  C   UNL     1      -0.080  10.914  18.827  0.00  0.00    +0.000 C 
ATOM      8  C   UNL     1       0.833   9.744  19.049  0.00  0.00    +0.000 A 
ATOM      9  C   UNL     1       1.512   9.158  17.976  0.00  0.00    +0.000 A 
ATOM     10  C   UNL     1       2.209   7.958  18.146  0.00  0.00    +0.000 A 
ATOM     11  C   UNL     1       2.262   7.332  19.398  0.00  0.00    +0.000 A 
ATOM     12  C   UNL     1       1.630   7.960  20.485  0.00  0.00    +0.000 A 
ATOM     13  C   UNL     1       0.918   9.148  20.311  0.00  0.00    +0.000 A 
ENDBRANCH   6  11
ENDBRANCH   2   6
ENDBRANCH   1   2
BRANCH   1  14
ATOM     14  C   UNL     1       6.166   4.788  18.860  0.00  0.00    +0.000 C 
BRANCH  14  15
ATOM     15  O   UNL     1       7.021   5.187  19.943  0.00  0.00    +0.000 OA
ATOM     16  H   UNL     1       6.890   6.143  20.081  0.00  0.00    +0.000 HD
ENDBRANCH  14  15
BRANCH  14  17
ATOM     17  C   UNL     1       7.027   4.594  17.599  0.00  0.00    +0.000 C 
BRANCH  17  18
ATOM     18  O   UNL     1       6.381   5.282  16.527  0.00  0.00    +0.000 OA
BRANCH  18  19
ATOM     19  C   UNL     1       7.245   5.551  15.427  0.00  0.00    +0.000 C 
BRANCH  19  20
ATOM     20  C   UNL     1       6.766   4.777  14.225  0.00  0.00    +0.000 A 
ATOM     21  C   UNL     1       5.515   4.145  14.241  0.00  0.00    +0.000 A 
ATOM     22  C   UNL     1       5.065   3.436  13.123  0.00  0.00    +0.000 A 
ATOM     23  C   UNL     1       5.850   3.365  11.974  0.00  0.00    +0.000 A 
ATOM     24  C   UNL     1       7.083   4.008  11.932  0.00  0.00    +0.000 A 
ATOM     25  C   UNL     1       7.539   4.714  13.050  0.00  0.00    +0.000 A 
ENDBRANCH  19  20
ENDBRANCH  18  19
ENDBRANCH  17  18
ENDBRANCH  14  17
ENDBRANCH   1  14
TORSDOF 10
ENDMDL
