MODEL 1
REMARK VINA RESULT:      -7.5      0.000      0.000
REMARK  Name = 
REMARK  12 active torsions:
REMARK  status: ('A' for Active; 'I' for Inactive)
REMARK    1  A    between atoms: C_1  and  O_2
REMARK    2  A    between atoms: O_2  and  C_3
REMARK    3  A    between atoms: C_7  and  C_8
REMARK    4  A    between atoms: C_8  and  C_10
REMARK    5  A    between atoms: C_12  and  O_13
REMARK    6  A    between atoms: O_13  and  C_14
REMARK    7  A    between atoms: C_15  and  O_16
REMARK    8  A    between atoms: O_16  and  C_17
REMARK    9  A    between atoms: C_18  and  O_19
REMARK   10  A    between atoms: O_19  and  C_20
REMARK   11  A    between atoms: C_25  and  O_26
REMARK   12  A    between atoms: O_26  and  C_27
REMARK                            x       y       z     vdW  Elec       q    Type
REMARK                         _______ _______ _______ _____ _____    ______ ____
ROOT
ATOM      1  C   UNL     1       3.547   4.545  17.436  0.00  0.00    +0.000 C 
ATOM      2  O   UNL     1       3.044   3.431  17.559  0.00  0.00    +0.000 OA
ENDROOT
BRANCH   1   7
ATOM      3  C   UNL     1       1.156   9.961  19.201  0.00  0.00    +0.000 A 
ATOM      4  C   UNL     1       1.837   9.232  18.212  0.00  0.00    +0.000 A 
ATOM      5  C   UNL     1       2.241   7.899  18.437  0.00  0.00    +0.000 A 
ATOM      6  C   UNL     1       2.824   6.949  17.547  0.00  0.00    +0.000 A 
ATOM      7  C   UNL     1       2.997   5.703  18.118  0.00  0.00    +0.000 A 
ATOM      8  S   UNL     1       2.600   5.725  19.773  0.00  0.00    +0.000 S 
ATOM      9  C   UNL     1       2.052   7.356  19.705  0.00  0.00    +0.000 A 
ATOM     10  C   UNL     1       1.484   8.118  20.740  0.00  0.00    +0.000 A 
ATOM     11  C   UNL     1       1.020   9.419  20.484  0.00  0.00    +0.000 A 
BRANCH   3  13
ATOM     12  C   UNL     1       1.615  12.210  18.618  0.00  0.00    +0.000 C 
ATOM     13  O   UNL     1       0.647  11.201  18.917  0.00  0.00    +0.000 OA
ENDBRANCH   3  13
BRANCH  11  14
ATOM     14  O   UNL     1       0.449   9.972  21.599  0.00  0.00    +0.000 OA
ATOM     15  C   UNL     1      -0.374   9.173  22.432  0.00  0.00    +0.000 C 
ENDBRANCH  11  14
ENDBRANCH   1   7
BRANCH   1  16
ATOM     16  C   UNL     1       4.766   4.633  16.588  0.00  0.00    +0.000 A 
ATOM     17  C   UNL     1       5.706   5.601  16.928  0.00  0.00    +0.000 A 
ATOM     18  C   UNL     1       6.842   5.797  16.145  0.00  0.00    +0.000 A 
ATOM     19  C   UNL     1       7.028   5.032  14.969  0.00  0.00    +0.000 A 
ATOM     20  C   UNL     1       6.064   4.063  14.608  0.00  0.00    +0.000 A 
ATOM     21  C   UNL     1       4.940   3.872  15.424  0.00  0.00    +0.000 A 
BRANCH  18  22
ATOM     22  O   UNL     1       7.797   6.739  16.449  0.00  0.00    +0.000 OA
ATOM     23  C   UNL     1       7.580   7.477  17.649  0.00  0.00    +0.000 C 
ENDBRANCH  18  22
BRANCH  19  24
ATOM     24  O   UNL     1       8.131   5.379  14.222  0.00  0.00    +0.000 OA
ATOM     25  C   UNL     1       7.927   5.670  12.846  0.00  0.00    +0.000 C 
ENDBRANCH  19  24
BRANCH  20  26
ATOM     26  O   UNL     1       6.247   3.387  13.428  0.00  0.00    +0.000 OA
ATOM     27  C   UNL     1       5.211   3.423  12.457  0.00  0.00    +0.000 C 
ENDBRANCH  20  26
ENDBRANCH   1  16
TORSDOF 7
ENDMDL
MODEL 2
REMARK VINA RESULT:      -7.4      3.481      9.187
REMARK  Name = 
REMARK  12 active torsions:
REMARK  status: ('A' for Active; 'I' for Inactive)
REMARK    1  A    between atoms: C_1  and  O_2
REMARK    2  A    between atoms: O_2  and  C_3
REMARK    3  A    between atoms: C_7  and  C_8
REMARK    4  A    between atoms: C_8  and  C_10
REMARK    5  A    between atoms: C_12  and  O_13
REMARK    6  A    between atoms: O_13  and  C_14
REMARK    7  A    between atoms: C_15  and  O_16
REMARK    8  A    between atoms: O_16  and  C_17
REMARK    9  A    between atoms: C_18  and  O_19
REMARK   10  A    between atoms: O_19  and  C_20
REMARK   11  A    between atoms: C_25  and  O_26
REMARK   12  A    between atoms: O_26  and  C_27
REMARK                            x       y       z     vdW  Elec       q    Type
REMARK                         _______ _______ _______ _____ _____    ______ ____
ROOT
ATOM      1  C   UNL     1       0.691  10.647  19.265  0.00  0.00    +0.000 C 
ATOM      2  O   UNL     1       1.310  11.622  19.685  0.00  0.00    +0.000 OA
ENDROOT
BRANCH   1   7
ATOM      3  C   UNL     1       2.498   4.852  20.414  0.00  0.00    +0.000 A 
ATOM      4  C   UNL     1       1.941   6.042  20.914  0.00  0.00    +0.000 A 
ATOM      5  C   UNL     1       1.850   7.198  20.110  0.00  0.00    +0.000 A 
ATOM      6  C   UNL     1       1.222   8.453  20.368  0.00  0.00    +0.000 A 
ATOM      7  C   UNL     1       1.269   9.316  19.290  0.00  0.00    +0.000 A 
ATOM      8  S   UNL     1       2.206   8.668  18.025  0.00  0.00    +0.000 S 
ATOM      9  C   UNL     1       2.430   7.171  18.846  0.00  0.00    +0.000 A 
ATOM     10  C   UNL     1       3.101   6.027  18.382  0.00  0.00    +0.000 A 
ATOM     11  C   UNL     1       3.121   4.858  19.162  0.00  0.00    +0.000 A 
BRANCH   3  13
ATOM     12  C   UNL     1       1.289   2.889  20.959  0.00  0.00    +0.000 C 
ATOM     13  O   UNL     1       2.449   3.702  21.157  0.00  0.00    +0.000 OA
ENDBRANCH   3  13
BRANCH  11  14
ATOM     14  O   UNL     1       3.768   3.839  18.515  0.00  0.00    +0.000 OA
ATOM     15  C   UNL     1       3.543   3.637  17.130  0.00  0.00    +0.000 C 
ENDBRANCH  11  14
ENDBRANCH   1   7
BRANCH   1  16
ATOM     16  C   UNL     1      -0.690  10.900  18.773  0.00  0.00    +0.000 A 
ATOM     17  C   UNL     1      -1.485  11.758  19.527  0.00  0.00    +0.000 A 
ATOM     18  C   UNL     1      -2.813  11.993  19.174  0.00  0.00    +0.000 A 
ATOM     19  C   UNL     1      -3.375  11.326  18.060  0.00  0.00    +0.000 A 
ATOM     20  C   UNL     1      -2.577  10.436  17.306  0.00  0.00    +0.000 A 
ATOM     21  C   UNL     1      -1.239  10.232  17.669  0.00  0.00    +0.000 A 
BRANCH  18  22
ATOM     22  O   UNL     1      -3.629  12.838  19.889  0.00  0.00    +0.000 OA
ATOM     23  C   UNL     1      -3.481  12.793  21.306  0.00  0.00    +0.000 C 
ENDBRANCH  18  22
BRANCH  19  24
ATOM     24  O   UNL     1      -4.718  11.556  17.866  0.00  0.00    +0.000 OA
ATOM     25  C   UNL     1      -5.632  10.621  18.421  0.00  0.00    +0.000 C 
ENDBRANCH  19  24
BRANCH  20  26
ATOM     26  O   UNL     1      -3.175   9.760  16.272  0.00  0.00    +0.000 OA
ATOM     27  C   UNL     1      -3.053  10.284  14.957  0.00  0.00    +0.000 C 
ENDBRANCH  20  26
ENDBRANCH   1  16
TORSDOF 7
ENDMDL
MODEL 3
REMARK VINA RESULT:      -7.3      3.349      9.294
REMARK  Name = 
REMARK  12 active torsions:
REMARK  status: ('A' for Active; 'I' for Inactive)
REMARK    1  A    between atoms: C_1  and  O_2
REMARK    2  A    between atoms: O_2  and  C_3
REMARK    3  A    between atoms: C_7  and  C_8
REMARK    4  A    between atoms: C_8  and  C_10
REMARK    5  A    between atoms: C_12  and  O_13
REMARK    6  A    between atoms: O_13  and  C_14
REMARK    7  A    between atoms: C_15  and  O_16
REMARK    8  A    between atoms: O_16  and  C_17
REMARK    9  A    between atoms: C_18  and  O_19
REMARK   10  A    between atoms: O_19  and  C_20
REMARK   11  A    between atoms: C_25  and  O_26
REMARK   12  A    between atoms: O_26  and  C_27
REMARK                            x       y       z     vdW  Elec       q    Type
REMARK                         _______ _______ _______ _____ _____    ______ ____
ROOT
ATOM      1  C   UNL     1       0.930  10.564  18.950  0.00  0.00    +0.000 C 
ATOM      2  O   UNL     1       1.684  11.533  18.987  0.00  0.00    +0.000 OA
ENDROOT
BRANCH   1   7
ATOM      3  C   UNL     1       3.701   5.061  18.492  0.00  0.00    +0.000 A 
ATOM      4  C   UNL     1       3.318   6.253  17.854  0.00  0.00    +0.000 A 
ATOM      5  C   UNL     1       2.530   7.216  18.519  0.00  0.00    +0.000 A 
ATOM      6  C   UNL     1       2.136   8.525  18.112  0.00  0.00    +0.000 A 
ATOM      7  C   UNL     1       1.433   9.209  19.085  0.00  0.00    +0.000 A 
ATOM      8  S   UNL     1       1.115   8.211  20.428  0.00  0.00    +0.000 S 
ATOM      9  C   UNL     1       2.042   6.910  19.786  0.00  0.00    +0.000 A 
ATOM     10  C   UNL     1       2.315   5.669  20.386  0.00  0.00    +0.000 A 
ATOM     11  C   UNL     1       3.161   4.748  19.744  0.00  0.00    +0.000 A 
BRANCH   3  13
ATOM     12  C   UNL     1       5.965   4.522  18.050  0.00  0.00    +0.000 C 
ATOM     13  O   UNL     1       4.581   4.204  17.885  0.00  0.00    +0.000 OA
ENDBRANCH   3  13
BRANCH  11  14
ATOM     14  O   UNL     1       3.352   3.630  20.511  0.00  0.00    +0.000 OA
ATOM     15  C   UNL     1       2.351   3.237  21.436  0.00  0.00    +0.000 C 
ENDBRANCH  11  14
ENDBRANCH   1   7
BRANCH   1  16
ATOM     16  C   UNL     1      -0.520  10.857  18.802  0.00  0.00    +0.000 A 
ATOM     17  C   UNL     1      -1.185  10.251  17.740  0.00  0.00    +0.000 A 
ATOM     18  C   UNL     1      -2.528  10.528  17.488  0.00  0.00    +0.000 A 
ATOM     19  C   UNL     1      -3.218  11.462  18.296  0.00  0.00    +0.000 A 
ATOM     20  C   UNL     1      -2.540  12.096  19.362  0.00  0.00    +0.000 A 
ATOM     21  C   UNL     1      -1.196  11.786  19.607  0.00  0.00    +0.000 A 
BRANCH  18  22
ATOM     22  O   UNL     1      -3.221   9.947  16.453  0.00  0.00    +0.000 OA
ATOM     23  C   UNL     1      -2.903  10.424  15.147  0.00  0.00    +0.000 C 
ENDBRANCH  18  22
BRANCH  19  24
ATOM     24  O   UNL     1      -4.507  11.731  17.895  0.00  0.00    +0.000 OA
ATOM     25  C   UNL     1      -5.559  11.058  18.572  0.00  0.00    +0.000 C 
ENDBRANCH  19  24
BRANCH  20  26
ATOM     26  O   UNL     1      -3.225  13.042  20.083  0.00  0.00    +0.000 OA
ATOM     27  C   UNL     1      -3.562  12.755  21.433  0.00  0.00    +0.000 C 
ENDBRANCH  20  26
ENDBRANCH   1  16
TORSDOF 7
ENDMDL
MODEL 4
REMARK VINA RESULT:      -7.2      3.324      9.075
REMARK  Name = 
REMARK  12 active torsions:
REMARK  status: ('A' for Active; 'I' for Inactive)
REMARK    1  A    between atoms: C_1  and  O_2
REMARK    2  A    between atoms: O_2  and  C_3
REMARK    3  A    between atoms: C_7  and  C_8
REMARK    4  A    between atoms: C_8  and  C_10
REMARK    5  A    between atoms: C_12  and  O_13
REMARK    6  A    between atoms: O_13  and  C_14
REMARK    7  A    between atoms: C_15  and  O_16
REMARK    8  A    between atoms: O_16  and  C_17
REMARK    9  A    between atoms: C_18  and  O_19
REMARK   10  A    between atoms: O_19  and  C_20
REMARK   11  A    between atoms: C_25  and  O_26
REMARK   12  A    between atoms: O_26  and  C_27
REMARK                            x       y       z     vdW  Elec       q    Type
REMARK                         _______ _______ _______ _____ _____    ______ ____
ROOT
ATOM      1  C   UNL     1       0.638  10.649  19.614  0.00  0.00    +0.000 C 
ATOM      2  O   UNL     1       1.106  11.524  20.339  0.00  0.00    +0.000 OA
ENDROOT
BRANCH   1   7
ATOM      3  C   UNL     1       4.107   5.951  17.597  0.00  0.00    +0.000 A 
ATOM      4  C   UNL     1       3.471   7.169  17.300  0.00  0.00    +0.000 A 
ATOM      5  C   UNL     1       2.645   7.809  18.247  0.00  0.00    +0.000 A 
ATOM      6  C   UNL     1       2.011   9.087  18.204  0.00  0.00    +0.000 A 
ATOM      7  C   UNL     1       1.349   9.406  19.374  0.00  0.00    +0.000 A 
ATOM      8  S   UNL     1       1.362   8.097  20.463  0.00  0.00    +0.000 S 
ATOM      9  C   UNL     1       2.379   7.152  19.445  0.00  0.00    +0.000 A 
ATOM     10  C   UNL     1       2.909   5.876  19.702  0.00  0.00    +0.000 A 
ATOM     11  C   UNL     1       3.789   5.281  18.782  0.00  0.00    +0.000 A 
BRANCH   3  13
ATOM     12  C   UNL     1       6.343   5.939  16.815  0.00  0.00    +0.000 C 
ATOM     13  O   UNL     1       5.016   5.416  16.722  0.00  0.00    +0.000 OA
ENDBRANCH   3  13
BRANCH  11  14
ATOM     14  O   UNL     1       4.243   4.072  19.239  0.00  0.00    +0.000 OA
ATOM     15  C   UNL     1       3.631   2.877  18.782  0.00  0.00    +0.000 C 
ENDBRANCH  11  14
ENDBRANCH   1   7
BRANCH   1  16
ATOM     16  C   UNL     1      -0.705  10.915  19.035  0.00  0.00    +0.000 A 
ATOM     17  C   UNL     1      -1.519  11.819  19.710  0.00  0.00    +0.000 A 
ATOM     18  C   UNL     1      -2.819  12.072  19.274  0.00  0.00    +0.000 A 
ATOM     19  C   UNL     1      -3.334  11.376  18.155  0.00  0.00    +0.000 A 
ATOM     20  C   UNL     1      -2.517  10.440  17.480  0.00  0.00    +0.000 A 
ATOM     21  C   UNL     1      -1.208  10.219  17.927  0.00  0.00    +0.000 A 
BRANCH  18  22
ATOM     22  O   UNL     1      -3.652  12.962  19.909  0.00  0.00    +0.000 OA
ATOM     23  C   UNL     1      -3.844  12.745  21.305  0.00  0.00    +0.000 C 
ENDBRANCH  18  22
BRANCH  19  24
ATOM     24  O   UNL     1      -4.657  11.631  17.876  0.00  0.00    +0.000 OA
ATOM     25  C   UNL     1      -5.624  10.730  18.399  0.00  0.00    +0.000 C 
ENDBRANCH  19  24
BRANCH  20  26
ATOM     26  O   UNL     1      -3.074   9.739  16.439  0.00  0.00    +0.000 OA
ATOM     27  C   UNL     1      -2.941  10.259  15.123  0.00  0.00    +0.000 C 
ENDBRANCH  20  26
ENDBRANCH   1  16
TORSDOF 7
ENDMDL
MODEL 5
REMARK VINA RESULT:      -7.2      0.661      2.563
REMARK  Name = 
REMARK  12 active torsions:
REMARK  status: ('A' for Active; 'I' for Inactive)
REMARK    1  A    between atoms: C_1  and  O_2
REMARK    2  A    between atoms: O_2  and  C_3
REMARK    3  A    between atoms: C_7  and  C_8
REMARK    4  A    between atoms: C_8  and  C_10
REMARK    5  A    between atoms: C_12  and  O_13
REMARK    6  A    between atoms: O_13  and  C_14
REMARK    7  A    between atoms: C_15  and  O_16
REMARK    8  A    between atoms: O_16  and  C_17
REMARK    9  A    between atoms: C_18  and  O_19
REMARK   10  A    between atoms: O_19  and  C_20
REMARK   11  A    between atoms: C_25  and  O_26
REMARK   12  A    between atoms: O_26  and  C_27
REMARK                            x       y       z     vdW  Elec       q    Type
REMARK                         _______ _______ _______ _____ _____    ______ ____
ROOT
ATOM      1  C   UNL     1       3.264   5.111  17.693  0.00  0.00    +0.000 C 
ATOM      2  O   UNL     1       2.750   3.998  17.762  0.00  0.00    +0.000 OA
ENDROOT
BRANCH   1   7
ATOM      3  C   UNL     1       0.794  10.411  19.688  0.00  0.00    +0.000 A 
ATOM      4  C   UNL     1       1.423   9.716  18.642  0.00  0.00    +0.000 A 
ATOM      5  C   UNL     1       1.901   8.401  18.823  0.00  0.00    +0.000 A 
ATOM      6  C   UNL     1       2.450   7.481  17.881  0.00  0.00    +0.000 A 
ATOM      7  C   UNL     1       2.722   6.241  18.426  0.00  0.00    +0.000 A 
ATOM      8  S   UNL     1       2.461   6.240  20.109  0.00  0.00    +0.000 S 
ATOM      9  C   UNL     1       1.839   7.845  20.098  0.00  0.00    +0.000 A 
ATOM     10  C   UNL     1       1.325   8.577  21.181  0.00  0.00    +0.000 A 
ATOM     11  C   UNL     1       0.786   9.858  20.973  0.00  0.00    +0.000 A 
BRANCH   3  13
ATOM     12  C   UNL     1       1.088  12.756  19.530  0.00  0.00    +0.000 C 
ATOM     13  O   UNL     1       0.211  11.629  19.456  0.00  0.00    +0.000 OA
ENDBRANCH   3  13
BRANCH  11  14
ATOM     14  O   UNL     1       0.284  10.381  22.135  0.00  0.00    +0.000 OA
ATOM     15  C   UNL     1      -0.314   9.519  23.089  0.00  0.00    +0.000 C 
ENDBRANCH  11  14
ENDBRANCH   1   7
BRANCH   1  16
ATOM     16  C   UNL     1       4.488   5.227  16.856  0.00  0.00    +0.000 A 
ATOM     17  C   UNL     1       4.666   4.274  15.857  0.00  0.00    +0.000 A 
ATOM     18  C   UNL     1       5.819   4.269  15.074  0.00  0.00    +0.000 A 
ATOM     19  C   UNL     1       6.841   5.217  15.318  0.00  0.00    +0.000 A 
ATOM     20  C   UNL     1       6.673   6.172  16.346  0.00  0.00    +0.000 A 
ATOM     21  C   UNL     1       5.495   6.169  17.106  0.00  0.00    +0.000 A 
BRANCH  18  22
ATOM     22  O   UNL     1       6.030   3.348  14.075  0.00  0.00    +0.000 OA
ATOM     23  C   UNL     1       5.270   3.539  12.884  0.00  0.00    +0.000 C 
ENDBRANCH  18  22
BRANCH  19  24
ATOM     24  O   UNL     1       7.973   5.055  14.554  0.00  0.00    +0.000 OA
ATOM     25  C   UNL     1       8.027   5.733  13.307  0.00  0.00    +0.000 C 
ENDBRANCH  19  24
BRANCH  20  26
ATOM     26  O   UNL     1       7.712   7.034  16.594  0.00  0.00    +0.000 OA
ATOM     27  C   UNL     1       7.910   7.495  17.923  0.00  0.00    +0.000 C 
ENDBRANCH  20  26
ENDBRANCH   1  16
TORSDOF 7
ENDMDL
MODEL 6
REMARK VINA RESULT:      -7.2      1.176      3.254
REMARK  Name = 
REMARK  12 active torsions:
REMARK  status: ('A' for Active; 'I' for Inactive)
REMARK    1  A    between atoms: C_1  and  O_2
REMARK    2  A    between atoms: O_2  and  C_3
REMARK    3  A    between atoms: C_7  and  C_8
REMARK    4  A    between atoms: C_8  and  C_10
REMARK    5  A    between atoms: C_12  and  O_13
REMARK    6  A    between atoms: O_13  and  C_14
REMARK    7  A    between atoms: C_15  and  O_16
REMARK    8  A    between atoms: O_16  and  C_17
REMARK    9  A    between atoms: C_18  and  O_19
REMARK   10  A    between atoms: O_19  and  C_20
REMARK   11  A    between atoms: C_25  and  O_26
REMARK   12  A    between atoms: O_26  and  C_27
REMARK                            x       y       z     vdW  Elec       q    Type
REMARK                         _______ _______ _______ _____ _____    ______ ____
ROOT
ATOM      1  C   UNL     1       3.450   5.273  18.201  0.00  0.00    +0.000 C 
ATOM      2  O   UNL     1       3.095   4.145  18.535  0.00  0.00    +0.000 OA
ENDROOT
BRANCH   1   7
ATOM      3  C   UNL     1       0.861   9.784  21.536  0.00  0.00    +0.000 A 
ATOM      4  C   UNL     1       1.286   8.446  21.479  0.00  0.00    +0.000 A 
ATOM      5  C   UNL     1       1.770   7.885  20.278  0.00  0.00    +0.000 A 
ATOM      6  C   UNL     1       2.358   6.609  20.028  0.00  0.00    +0.000 A 
ATOM      7  C   UNL     1       2.796   6.458  18.726  0.00  0.00    +0.000 A 
ATOM      8  S   UNL     1       2.355   7.797  17.771  0.00  0.00    +0.000 S 
ATOM      9  C   UNL     1       1.712   8.653  19.119  0.00  0.00    +0.000 A 
ATOM     10  C   UNL     1       1.173   9.950  19.138  0.00  0.00    +0.000 A 
ATOM     11  C   UNL     1       0.761  10.524  20.353  0.00  0.00    +0.000 A 
BRANCH   3  13
ATOM     12  C   UNL     1      -0.838  10.199  23.134  0.00  0.00    +0.000 C 
ATOM     13  O   UNL     1       0.527  10.352  22.737  0.00  0.00    +0.000 OA
ENDBRANCH   3  13
BRANCH  11  14
ATOM     14  O   UNL     1       0.324  11.809  20.173  0.00  0.00    +0.000 OA
ATOM     15  C   UNL     1      -1.036  12.047  19.847  0.00  0.00    +0.000 C 
ENDBRANCH  11  14
ENDBRANCH   1   7
BRANCH   1  16
ATOM     16  C   UNL     1       4.606   5.357  17.269  0.00  0.00    +0.000 A 
ATOM     17  C   UNL     1       4.711   4.364  16.299  0.00  0.00    +0.000 A 
ATOM     18  C   UNL     1       5.801   4.329  15.431  0.00  0.00    +0.000 A 
ATOM     19  C   UNL     1       6.834   5.288  15.557  0.00  0.00    +0.000 A 
ATOM     20  C   UNL     1       6.740   6.285  16.555  0.00  0.00    +0.000 A 
ATOM     21  C   UNL     1       5.624   6.311  17.402  0.00  0.00    +0.000 A 
BRANCH  18  22
ATOM     22  O   UNL     1       5.940   3.368  14.457  0.00  0.00    +0.000 OA
ATOM     23  C   UNL     1       5.225   3.603  13.247  0.00  0.00    +0.000 C 
ENDBRANCH  18  22
BRANCH  19  24
ATOM     24  O   UNL     1       7.905   5.097  14.715  0.00  0.00    +0.000 OA
ATOM     25  C   UNL     1       7.836   5.678  13.420  0.00  0.00    +0.000 C 
ENDBRANCH  19  24
BRANCH  20  26
ATOM     26  O   UNL     1       7.791   7.158  16.686  0.00  0.00    +0.000 OA
ATOM     27  C   UNL     1       7.753   8.113  17.738  0.00  0.00    +0.000 C 
ENDBRANCH  20  26
ENDBRANCH   1  16
TORSDOF 7
ENDMDL
MODEL 7
REMARK VINA RESULT:      -7.1      3.787      9.853
REMARK  Name = 
REMARK  12 active torsions:
REMARK  status: ('A' for Active; 'I' for Inactive)
REMARK    1  A    between atoms: C_1  and  O_2
REMARK    2  A    between atoms: O_2  and  C_3
REMARK    3  A    between atoms: C_7  and  C_8
REMARK    4  A    between atoms: C_8  and  C_10
REMARK    5  A    between atoms: C_12  and  O_13
REMARK    6  A    between atoms: O_13  and  C_14
REMARK    7  A    between atoms: C_15  and  O_16
REMARK    8  A    between atoms: O_16  and  C_17
REMARK    9  A    between atoms: C_18  and  O_19
REMARK   10  A    between atoms: O_19  and  C_20
REMARK   11  A    between atoms: C_25  and  O_26
REMARK   12  A    between atoms: O_26  and  C_27
REMARK                            x       y       z     vdW  Elec       q    Type
REMARK                         _______ _______ _______ _____ _____    ______ ____
ROOT
ATOM      1  C   UNL     1       0.092  11.306  19.462  0.00  0.00    +0.000 C 
ATOM      2  O   UNL     1       0.634  12.322  19.890  0.00  0.00    +0.000 OA
ENDROOT
BRANCH   1   7
ATOM      3  C   UNL     1       2.662   5.699  19.809  0.00  0.00    +0.000 A 
ATOM      4  C   UNL     1       1.991   6.739  20.475  0.00  0.00    +0.000 A 
ATOM      5  C   UNL     1       1.714   7.960  19.825  0.00  0.00    +0.000 A 
ATOM      6  C   UNL     1       0.951   9.084  20.261  0.00  0.00    +0.000 A 
ATOM      7  C   UNL     1       0.831  10.067  19.298  0.00  0.00    +0.000 A 
ATOM      8  S   UNL     1       1.769   9.700  17.926  0.00  0.00    +0.000 S 
ATOM      9  C   UNL     1       2.222   8.158  18.544  0.00  0.00    +0.000 A 
ATOM     10  C   UNL     1       3.002   7.173  17.916  0.00  0.00    +0.000 A 
ATOM     11  C   UNL     1       3.210   5.933  18.544  0.00  0.00    +0.000 A 
BRANCH   3  13
ATOM     12  C   UNL     1       1.607   3.936  20.988  0.00  0.00    +0.000 C 
ATOM     13  O   UNL     1       2.798   4.472  20.405  0.00  0.00    +0.000 OA
ENDBRANCH   3  13
BRANCH  11  14
ATOM     14  O   UNL     1       3.940   5.090  17.749  0.00  0.00    +0.000 OA
ATOM     15  C   UNL     1       5.339   4.976  17.951  0.00  0.00    +0.000 C 
ENDBRANCH  11  14
ENDBRANCH   1   7
BRANCH   1  16
ATOM     16  C   UNL     1      -1.362  11.404  19.164  0.00  0.00    +0.000 A 
ATOM     17  C   UNL     1      -1.811  10.798  17.994  0.00  0.00    +0.000 A 
ATOM     18  C   UNL     1      -3.145  10.903  17.604  0.00  0.00    +0.000 A 
ATOM     19  C   UNL     1      -4.049  11.665  18.383  0.00  0.00    +0.000 A 
ATOM     20  C   UNL     1      -3.591  12.300  19.560  0.00  0.00    +0.000 A 
ATOM     21  C   UNL     1      -2.249  12.162  19.940  0.00  0.00    +0.000 A 
BRANCH  18  22
ATOM     22  O   UNL     1      -3.630  10.316  16.459  0.00  0.00    +0.000 OA
ATOM     23  C   UNL     1      -2.773  10.374  15.321  0.00  0.00    +0.000 C 
ENDBRANCH  18  22
BRANCH  19  24
ATOM     24  O   UNL     1      -5.313  11.782  17.851  0.00  0.00    +0.000 OA
ATOM     25  C   UNL     1      -6.318  10.910  18.348  0.00  0.00    +0.000 C 
ENDBRANCH  19  24
BRANCH  20  26
ATOM     26  O   UNL     1      -4.482  13.081  20.253  0.00  0.00    +0.000 OA
ATOM     27  C   UNL     1      -4.831  12.700  21.577  0.00  0.00    +0.000 C 
ENDBRANCH  20  26
ENDBRANCH   1  16
TORSDOF 7
ENDMDL
MODEL 8
REMARK VINA RESULT:      -7.1      3.590      9.262
REMARK  Name = 
REMARK  12 active torsions:
REMARK  status: ('A' for Active; 'I' for Inactive)
REMARK    1  A    between atoms: C_1  and  O_2
REMARK    2  A    between atoms: O_2  and  C_3
REMARK    3  A    between atoms: C_7  and  C_8
REMARK    4  A    between atoms: C_8  and  C_10
REMARK    5  A    between atoms: C_12  and  O_13
REMARK    6  A    between atoms: O_13  and  C_14
REMARK    7  A    between atoms: C_15  and  O_16
REMARK    8  A    between atoms: O_16  and  C_17
REMARK    9  A    between atoms: C_18  and  O_19
REMARK   10  A    between atoms: O_19  and  C_20
REMARK   11  A    between atoms: C_25  and  O_26
REMARK   12  A    between atoms: O_26  and  C_27
REMARK                            x       y       z     vdW  Elec       q    Type
REMARK                         _______ _______ _______ _____ _____    ______ ____
ROOT
ATOM      1  C   UNL     1       1.650   9.891  18.515  0.00  0.00    +0.000 C 
ATOM      2  O   UNL     1       2.279  10.472  17.635  0.00  0.00    +0.000 OA
ENDROOT
BRANCH   1   7
ATOM      3  C   UNL     1       3.420   3.982  18.858  0.00  0.00    +0.000 A 
ATOM      4  C   UNL     1       3.219   5.114  18.051  0.00  0.00    +0.000 A 
ATOM      5  C   UNL     1       2.636   6.288  18.574  0.00  0.00    +0.000 A 
ATOM      6  C   UNL     1       2.454   7.571  17.978  0.00  0.00    +0.000 A 
ATOM      7  C   UNL     1       1.919   8.503  18.847  0.00  0.00    +0.000 A 
ATOM      8  S   UNL     1       1.493   7.786  20.331  0.00  0.00    +0.000 S 
ATOM      9  C   UNL     1       2.157   6.263  19.881  0.00  0.00    +0.000 A 
ATOM     10  C   UNL     1       2.240   5.095  20.658  0.00  0.00    +0.000 A 
ATOM     11  C   UNL     1       2.888   3.956  20.151  0.00  0.00    +0.000 A 
BRANCH   3  13
ATOM     12  C   UNL     1       3.319   1.780  17.991  0.00  0.00    +0.000 C 
ATOM     13  O   UNL     1       4.115   2.904  18.374  0.00  0.00    +0.000 OA
ENDBRANCH   3  13
BRANCH  11  14
ATOM     14  O   UNL     1       2.917   2.947  21.077  0.00  0.00    +0.000 OA
ATOM     15  C   UNL     1       1.718   2.556  21.724  0.00  0.00    +0.000 C 
ENDBRANCH  11  14
ENDBRANCH   1   7
BRANCH   1  16
ATOM     16  C   UNL     1       0.631  10.693  19.244  0.00  0.00    +0.000 A 
ATOM     17  C   UNL     1      -0.650  10.736  18.701  0.00  0.00    +0.000 A 
ATOM     18  C   UNL     1      -1.644  11.521  19.282  0.00  0.00    +0.000 A 
ATOM     19  C   UNL     1      -1.343  12.315  20.414  0.00  0.00    +0.000 A 
ATOM     20  C   UNL     1      -0.037  12.292  20.954  0.00  0.00    +0.000 A 
ATOM     21  C   UNL     1       0.939  11.478  20.364  0.00  0.00    +0.000 A 
BRANCH  18  22
ATOM     22  O   UNL     1      -2.922  11.586  18.781  0.00  0.00    +0.000 OA
ATOM     23  C   UNL     1      -3.249  10.619  17.786  0.00  0.00    +0.000 C 
ENDBRANCH  18  22
BRANCH  19  24
ATOM     24  O   UNL     1      -2.371  13.124  20.842  0.00  0.00    +0.000 OA
ATOM     25  C   UNL     1      -3.117  12.697  21.973  0.00  0.00    +0.000 C 
ENDBRANCH  19  24
BRANCH  20  26
ATOM     26  O   UNL     1       0.232  13.123  22.013  0.00  0.00    +0.000 OA
ATOM     27  C   UNL     1       0.829  14.386  21.749  0.00  0.00    +0.000 C 
ENDBRANCH  20  26
ENDBRANCH   1  16
TORSDOF 7
ENDMDL
MODEL 9
REMARK VINA RESULT:      -7.1      3.431      9.123
REMARK  Name = 
REMARK  12 active torsions:
REMARK  status: ('A' for Active; 'I' for Inactive)
REMARK    1  A    between atoms: C_1  and  O_2
REMARK    2  A    between atoms: O_2  and  C_3
REMARK    3  A    between atoms: C_7  and  C_8
REMARK    4  A    between atoms: C_8  and  C_10
REMARK    5  A    between atoms: C_12  and  O_13
REMARK    6  A    between atoms: O_13  and  C_14
REMARK    7  A    between atoms: C_15  and  O_16
REMARK    8  A    between atoms: O_16  and  C_17
REMARK    9  A    between atoms: C_18  and  O_19
REMARK   10  A    between atoms: O_19  and  C_20
REMARK   11  A    between atoms: C_25  and  O_26
REMARK   12  A    between atoms: O_26  and  C_27
REMARK                            x       y       z     vdW  Elec       q    Type
REMARK                         _______ _______ _______ _____ _____    ______ ____
ROOT
ATOM      1  C   UNL     1       0.621  10.671  19.811  0.00  0.00    +0.000 C 
ATOM      2  O   UNL     1       1.229  11.587  20.358  0.00  0.00    +0.000 OA
ENDROOT
BRANCH   1   7
ATOM      3  C   UNL     1       3.565   5.379  18.588  0.00  0.00    +0.000 A 
ATOM      4  C   UNL     1       3.140   6.635  18.121  0.00  0.00    +0.000 A 
ATOM      5  C   UNL     1       2.326   7.470  18.915  0.00  0.00    +0.000 A 
ATOM      6  C   UNL     1       1.887   8.809  18.695  0.00  0.00    +0.000 A 
ATOM      7  C   UNL     1       1.168   9.327  19.755  0.00  0.00    +0.000 A 
ATOM      8  S   UNL     1       0.890   8.143  20.945  0.00  0.00    +0.000 S 
ATOM      9  C   UNL     1       1.855   6.975  20.128  0.00  0.00    +0.000 A 
ATOM     10  C   UNL     1       2.171   5.672  20.548  0.00  0.00    +0.000 A 
ATOM     11  C   UNL     1       3.042   4.877  19.783  0.00  0.00    +0.000 A 
BRANCH   3  13
ATOM     12  C   UNL     1       3.905   3.695  16.956  0.00  0.00    +0.000 C 
ATOM     13  O   UNL     1       4.469   4.644  17.865  0.00  0.00    +0.000 OA
ENDBRANCH   3  13
BRANCH  11  14
ATOM     14  O   UNL     1       3.273   3.670  20.388  0.00  0.00    +0.000 OA
ATOM     15  C   UNL     1       2.340   3.169  21.330  0.00  0.00    +0.000 C 
ENDBRANCH  11  14
ENDBRANCH   1   7
BRANCH   1  16
ATOM     16  C   UNL     1      -0.715  11.004  19.248  0.00  0.00    +0.000 A 
ATOM     17  C   UNL     1      -1.506  11.889  19.975  0.00  0.00    +0.000 A 
ATOM     18  C   UNL     1      -2.799  12.199  19.554  0.00  0.00    +0.000 A 
ATOM     19  C   UNL     1      -3.331  11.581  18.398  0.00  0.00    +0.000 A 
ATOM     20  C   UNL     1      -2.538  10.664  17.671  0.00  0.00    +0.000 A 
ATOM     21  C   UNL     1      -1.235  10.385  18.103  0.00  0.00    +0.000 A 
BRANCH  18  22
ATOM     22  O   UNL     1      -3.610  13.072  20.240  0.00  0.00    +0.000 OA
ATOM     23  C   UNL     1      -2.956  14.191  20.835  0.00  0.00    +0.000 C 
ENDBRANCH  18  22
BRANCH  19  24
ATOM     24  O   UNL     1      -4.647  11.884  18.135  0.00  0.00    +0.000 OA
ATOM     25  C   UNL     1      -5.631  10.937  18.527  0.00  0.00    +0.000 C 
ENDBRANCH  19  24
BRANCH  20  26
ATOM     26  O   UNL     1      -3.112  10.038  16.592  0.00  0.00    +0.000 OA
ATOM     27  C   UNL     1      -2.842  10.544  15.292  0.00  0.00    +0.000 C 
ENDBRANCH  20  26
ENDBRANCH   1  16
TORSDOF 7
ENDMDL
