MODEL 1
REMARK VINA RESULT:      -6.1      0.000      0.000
REMARK  Name = 
REMARK  9 active torsions:
REMARK  status: ('A' for Active; 'I' for Inactive)
REMARK    1  A    between atoms: C_1  and  C_2
REMARK    2  A    between atoms: C_2  and  O_3
REMARK    3  A    between atoms: O_3  and  C_4
REMARK    4  A    between atoms: C_4  and  C_6
REMARK    5  A    between atoms: C_12  and  O_13
REMARK    6  A    between atoms: O_13  and  C_14
REMARK    7  A    between atoms: N_23  and  C_24
REMARK    8  A    between atoms: C_24  and  C_25
REMARK    9  A    between atoms: C_32  and  C_33
REMARK                            x       y       z     vdW  Elec       q    Type
REMARK                         _______ _______ _______ _____ _____    ______ ____
ROOT
ATOM      1  C   UNL     1      -1.818  14.347  22.722  0.00  0.00    +0.000 C 
ATOM      2  C   UNL     1      -1.291  12.887  22.923  0.00  0.00    +0.000 C 
ATOM      3  C   UNL     1      -2.097  11.655  23.279  0.00  0.00    +0.000 C 
ATOM      4  O   UNL     1      -1.217  10.498  23.360  0.00  0.00    +0.000 OA
ATOM      5  C   UNL     1      -0.400  10.303  22.267  0.00  0.00    +0.000 A 
ATOM      6  C   UNL     1       0.153   9.031  22.080  0.00  0.00    +0.000 A 
ATOM      7  C   UNL     1       0.918   8.762  20.938  0.00  0.00    +0.000 A 
ATOM      8  C   UNL     1       1.087   9.752  19.971  0.00  0.00    +0.000 A 
ATOM      9  C   UNL     1       0.566  11.022  20.173  0.00  0.00    +0.000 A 
ATOM     10  C   UNL     1      -0.112  11.323  21.360  0.00  0.00    +0.000 A 
ATOM     11  C   UNL     1      -0.640  12.686  21.589  0.00  0.00    +0.000 C 
ATOM     12  N   UNL     1       0.201  13.867  21.606  0.00  0.00    +0.000 N 
ATOM     13  C   UNL     1       1.546  13.931  21.335  0.00  0.00    +0.000 C 
ATOM     14  O   UNL     1       2.344  13.007  21.428  0.00  0.00    +0.000 OA
ATOM     15  C   UNL     1       1.967  15.327  20.956  0.00  0.00    +0.000 C 
ATOM     16  N   UNL     1       0.926  15.810  20.027  0.00  0.00    +0.000 N 
ATOM     17  C   UNL     1      -0.475  15.752  20.457  0.00  0.00    +0.000 C 
ATOM     18  O   UNL     1      -1.378  16.307  19.840  0.00  0.00    +0.000 OA
ATOM     19  C   UNL     1      -0.644  15.057  21.896  0.00  0.00    +0.000 C 
ATOM     20  C   UNL     1      -0.147  16.153  22.875  0.00  0.00    +0.000 C 
ENDROOT
BRANCH   1  21
ATOM     21  C   UNL     1      -3.256  14.428  22.303  0.00  0.00    +0.000 C 
ATOM     22  O   UNL     1      -3.623  14.161  21.165  0.00  0.00    +0.000 OA
BRANCH  21  23
ATOM     23  O   UNL     1      -4.086  14.623  23.349  0.00  0.00    +0.000 OA
BRANCH  23  25
ATOM     24  C   UNL     1      -4.194  16.537  24.845  0.00  0.00    +0.000 C 
ATOM     25  C   UNL     1      -3.472  15.250  24.490  0.00  0.00    +0.000 C 
ENDBRANCH  23  25
ENDBRANCH  21  23
ENDBRANCH   1  21
BRANCH   7  26
ATOM     26  O   UNL     1       1.539   7.587  20.620  0.00  0.00    +0.000 OA
ATOM     27  C   UNL     1       2.236   7.536  19.387  0.00  0.00    +0.000 C 
ENDBRANCH   7  26
BRANCH  16  28
ATOM     28  C   UNL     1       1.381  16.674  18.926  0.00  0.00    +0.000 C 
BRANCH  28  29
ATOM     29  C   UNL     1       2.779  16.350  18.418  0.00  0.00    +0.000 A 
ATOM     30  C   UNL     1       3.326  15.371  17.603  0.00  0.00    +0.000 A 
ATOM     31  C   UNL     1       4.730  15.591  17.581  0.00  0.00    +0.000 A 
ATOM     32  C   UNL     1       4.957  16.685  18.383  0.00  0.00    +0.000 A 
ATOM     33  O   UNL     1       3.783  17.134  18.893  0.00  0.00    +0.000 OA
ENDBRANCH  28  29
ENDBRANCH  16  28
TORSDOF 6
ENDMDL
MODEL 2
REMARK VINA RESULT:      -6.1      3.287      4.077
REMARK  Name = 
REMARK  9 active torsions:
REMARK  status: ('A' for Active; 'I' for Inactive)
REMARK    1  A    between atoms: C_1  and  C_2
REMARK    2  A    between atoms: C_2  and  O_3
REMARK    3  A    between atoms: O_3  and  C_4
REMARK    4  A    between atoms: C_4  and  C_6
REMARK    5  A    between atoms: C_12  and  O_13
REMARK    6  A    between atoms: O_13  and  C_14
REMARK    7  A    between atoms: N_23  and  C_24
REMARK    8  A    between atoms: C_24  and  C_25
REMARK    9  A    between atoms: C_32  and  C_33
REMARK                            x       y       z     vdW  Elec       q    Type
REMARK                         _______ _______ _______ _____ _____    ______ ____
ROOT
ATOM      1  C   UNL     1      -2.962  13.466  21.869  0.00  0.00    +0.000 C 
ATOM      2  C   UNL     1      -3.689  12.566  20.816  0.00  0.00    +0.000 C 
ATOM      3  C   UNL     1      -5.059  12.780  20.206  0.00  0.00    +0.000 C 
ATOM      4  O   UNL     1      -5.350  11.711  19.262  0.00  0.00    +0.000 OA
ATOM      5  C   UNL     1      -4.376  11.482  18.315  0.00  0.00    +0.000 A 
ATOM      6  C   UNL     1      -4.738  10.787  17.155  0.00  0.00    +0.000 A 
ATOM      7  C   UNL     1      -3.804  10.607  16.126  0.00  0.00    +0.000 A 
ATOM      8  C   UNL     1      -2.530  11.161  16.246  0.00  0.00    +0.000 A 
ATOM      9  C   UNL     1      -2.161  11.821  17.410  0.00  0.00    +0.000 A 
ATOM     10  C   UNL     1      -3.059  11.914  18.480  0.00  0.00    +0.000 A 
ATOM     11  C   UNL     1      -2.654  12.590  19.732  0.00  0.00    +0.000 C 
ATOM     12  N   UNL     1      -1.527  12.158  20.534  0.00  0.00    +0.000 N 
ATOM     13  C   UNL     1      -0.632  11.160  20.237  0.00  0.00    +0.000 C 
ATOM     14  O   UNL     1      -0.832  10.212  19.489  0.00  0.00    +0.000 OA
ATOM     15  C   UNL     1       0.654  11.324  21.006  0.00  0.00    +0.000 C 
ATOM     16  N   UNL     1       0.980  12.761  20.920  0.00  0.00    +0.000 N 
ATOM     17  C   UNL     1      -0.038  13.734  21.329  0.00  0.00    +0.000 C 
ATOM     18  O   UNL     1       0.210  14.926  21.478  0.00  0.00    +0.000 OA
ATOM     19  C   UNL     1      -1.426  13.032  21.735  0.00  0.00    +0.000 C 
ATOM     20  C   UNL     1      -1.116  12.421  23.127  0.00  0.00    +0.000 C 
ENDROOT
BRANCH   1  21
ATOM     21  C   UNL     1      -3.393  14.902  21.851  0.00  0.00    +0.000 C 
ATOM     22  O   UNL     1      -3.175  15.640  20.898  0.00  0.00    +0.000 OA
BRANCH  21  23
ATOM     23  O   UNL     1      -4.201  15.209  22.888  0.00  0.00    +0.000 OA
BRANCH  23  25
ATOM     24  C   UNL     1      -3.274  15.112  25.134  0.00  0.00    +0.000 C 
ATOM     25  C   UNL     1      -4.031  14.371  24.046  0.00  0.00    +0.000 C 
ENDBRANCH  23  25
ENDBRANCH  21  23
ENDBRANCH   1  21
BRANCH   7  26
ATOM     26  O   UNL     1      -3.994   9.941  14.949  0.00  0.00    +0.000 OA
ATOM     27  C   UNL     1      -2.932   9.971  14.009  0.00  0.00    +0.000 C 
ENDBRANCH   7  26
BRANCH  16  28
ATOM     28  C   UNL     1       2.408  13.104  20.821  0.00  0.00    +0.000 C 
BRANCH  28  29
ATOM     29  C   UNL     1       2.762  13.951  19.608  0.00  0.00    +0.000 A 
ATOM     30  C   UNL     1       2.922  13.709  18.252  0.00  0.00    +0.000 A 
ATOM     31  C   UNL     1       3.334  14.934  17.660  0.00  0.00    +0.000 A 
ATOM     32  C   UNL     1       3.403  15.848  18.686  0.00  0.00    +0.000 A 
ATOM     33  O   UNL     1       3.069  15.253  19.858  0.00  0.00    +0.000 OA
ENDBRANCH  28  29
ENDBRANCH  16  28
TORSDOF 6
ENDMDL
MODEL 3
REMARK VINA RESULT:      -6.1      2.411      7.117
REMARK  Name = 
REMARK  9 active torsions:
REMARK  status: ('A' for Active; 'I' for Inactive)
REMARK    1  A    between atoms: C_1  and  C_2
REMARK    2  A    between atoms: C_2  and  O_3
REMARK    3  A    between atoms: O_3  and  C_4
REMARK    4  A    between atoms: C_4  and  C_6
REMARK    5  A    between atoms: C_12  and  O_13
REMARK    6  A    between atoms: O_13  and  C_14
REMARK    7  A    between atoms: N_23  and  C_24
REMARK    8  A    between atoms: C_24  and  C_25
REMARK    9  A    between atoms: C_32  and  C_33
REMARK                            x       y       z     vdW  Elec       q    Type
REMARK                         _______ _______ _______ _____ _____    ______ ____
ROOT
ATOM      1  C   UNL     1      -0.295  11.097  19.673  0.00  0.00    +0.000 C 
ATOM      2  C   UNL     1       1.074  11.789  19.361  0.00  0.00    +0.000 C 
ATOM      3  C   UNL     1       1.918  11.645  18.111  0.00  0.00    +0.000 C 
ATOM      4  O   UNL     1       3.112  12.470  18.226  0.00  0.00    +0.000 OA
ATOM      5  C   UNL     1       2.886  13.785  18.569  0.00  0.00    +0.000 A 
ATOM      6  C   UNL     1       3.897  14.716  18.301  0.00  0.00    +0.000 A 
ATOM      7  C   UNL     1       3.680  16.077  18.551  0.00  0.00    +0.000 A 
ATOM      8  C   UNL     1       2.440  16.502  19.025  0.00  0.00    +0.000 A 
ATOM      9  C   UNL     1       1.450  15.576  19.322  0.00  0.00    +0.000 A 
ATOM     10  C   UNL     1       1.699  14.207  19.169  0.00  0.00    +0.000 A 
ATOM     11  C   UNL     1       0.655  13.219  19.516  0.00  0.00    +0.000 C 
ATOM     12  N   UNL     1       0.081  13.108  20.842  0.00  0.00    +0.000 N 
ATOM     13  C   UNL     1       0.327  13.919  21.922  0.00  0.00    +0.000 C 
ATOM     14  O   UNL     1       1.329  14.600  22.099  0.00  0.00    +0.000 OA
ATOM     15  C   UNL     1      -0.781  13.834  22.941  0.00  0.00    +0.000 C 
ATOM     16  N   UNL     1      -2.033  13.877  22.159  0.00  0.00    +0.000 N 
ATOM     17  C   UNL     1      -2.209  12.912  21.069  0.00  0.00    +0.000 C 
ATOM     18  O   UNL     1      -3.284  12.745  20.503  0.00  0.00    +0.000 OA
ATOM     19  C   UNL     1      -0.908  11.995  20.849  0.00  0.00    +0.000 C 
ATOM     20  C   UNL     1      -0.970  11.007  22.043  0.00  0.00    +0.000 C 
ENDROOT
BRANCH   1  21
ATOM     21  C   UNL     1      -1.085  10.722  18.455  0.00  0.00    +0.000 C 
ATOM     22  O   UNL     1      -1.231   9.558  18.102  0.00  0.00    +0.000 OA
BRANCH  21  23
ATOM     23  O   UNL     1      -1.759  11.770  17.937  0.00  0.00    +0.000 OA
BRANCH  23  25
ATOM     24  C   UNL     1      -2.805  11.112  15.843  0.00  0.00    +0.000 C 
ATOM     25  C   UNL     1      -3.010  11.427  17.314  0.00  0.00    +0.000 C 
ENDBRANCH  23  25
ENDBRANCH  21  23
ENDBRANCH   1  21
BRANCH   7  26
ATOM     26  O   UNL     1       4.565  17.101  18.363  0.00  0.00    +0.000 OA
ATOM     27  C   UNL     1       5.626  17.218  19.296  0.00  0.00    +0.000 C 
ENDBRANCH   7  26
BRANCH  16  28
ATOM     28  C   UNL     1      -3.163  14.593  22.774  0.00  0.00    +0.000 C 
BRANCH  28  29
ATOM     29  C   UNL     1      -4.136  13.694  23.522  0.00  0.00    +0.000 A 
ATOM     30  C   UNL     1      -4.014  12.661  24.439  0.00  0.00    +0.000 A 
ATOM     31  C   UNL     1      -5.327  12.183  24.700  0.00  0.00    +0.000 A 
ATOM     32  C   UNL     1      -6.170  12.949  23.929  0.00  0.00    +0.000 A 
ATOM     33  O   UNL     1      -5.452  13.850  23.213  0.00  0.00    +0.000 OA
ENDBRANCH  28  29
ENDBRANCH  16  28
TORSDOF 6
ENDMDL
MODEL 4
REMARK VINA RESULT:      -6.1      2.884      6.668
REMARK  Name = 
REMARK  9 active torsions:
REMARK  status: ('A' for Active; 'I' for Inactive)
REMARK    1  A    between atoms: C_1  and  C_2
REMARK    2  A    between atoms: C_2  and  O_3
REMARK    3  A    between atoms: O_3  and  C_4
REMARK    4  A    between atoms: C_4  and  C_6
REMARK    5  A    between atoms: C_12  and  O_13
REMARK    6  A    between atoms: O_13  and  C_14
REMARK    7  A    between atoms: N_23  and  C_24
REMARK    8  A    between atoms: C_24  and  C_25
REMARK    9  A    between atoms: C_32  and  C_33
REMARK                            x       y       z     vdW  Elec       q    Type
REMARK                         _______ _______ _______ _____ _____    ______ ____
ROOT
ATOM      1  C   UNL     1       0.170  12.690  18.979  0.00  0.00    +0.000 C 
ATOM      2  C   UNL     1      -1.350  12.468  18.682  0.00  0.00    +0.000 C 
ATOM      3  C   UNL     1      -2.020  11.203  18.187  0.00  0.00    +0.000 C 
ATOM      4  O   UNL     1      -3.452  11.425  18.051  0.00  0.00    +0.000 OA
ATOM      5  C   UNL     1      -4.072  11.957  19.160  0.00  0.00    +0.000 A 
ATOM      6  C   UNL     1      -5.461  11.817  19.266  0.00  0.00    +0.000 A 
ATOM      7  C   UNL     1      -6.124  12.265  20.417  0.00  0.00    +0.000 A 
ATOM      8  C   UNL     1      -5.389  12.807  21.469  0.00  0.00    +0.000 A 
ATOM      9  C   UNL     1      -4.016  12.976  21.350  0.00  0.00    +0.000 A 
ATOM     10  C   UNL     1      -3.365  12.624  20.162  0.00  0.00    +0.000 A 
ATOM     11  C   UNL     1      -1.908  12.833  20.024  0.00  0.00    +0.000 C 
ATOM     12  N   UNL     1      -1.282  14.135  20.144  0.00  0.00    +0.000 N 
ATOM     13  C   UNL     1      -1.889  15.319  20.482  0.00  0.00    +0.000 C 
ATOM     14  O   UNL     1      -3.077  15.583  20.350  0.00  0.00    +0.000 OA
ATOM     15  C   UNL     1      -0.891  16.325  20.996  0.00  0.00    +0.000 C 
ATOM     16  N   UNL     1      -0.014  15.570  21.913  0.00  0.00    +0.000 N 
ATOM     17  C   UNL     1       0.635  14.353  21.414  0.00  0.00    +0.000 C 
ATOM     18  O   UNL     1       1.525  13.779  22.032  0.00  0.00    +0.000 OA
ATOM     19  C   UNL     1       0.182  13.989  19.915  0.00  0.00    +0.000 C 
ATOM     20  C   UNL     1       0.949  15.029  19.057  0.00  0.00    +0.000 C 
ENDROOT
BRANCH   1  21
ATOM     21  C   UNL     1       0.915  11.438  19.336  0.00  0.00    +0.000 C 
ATOM     22  O   UNL     1       0.846  10.930  20.448  0.00  0.00    +0.000 OA
BRANCH  21  23
ATOM     23  O   UNL     1       1.481  10.853  18.259  0.00  0.00    +0.000 OA
BRANCH  23  25
ATOM     24  C   UNL     1       2.432   8.659  17.817  0.00  0.00    +0.000 C 
ATOM     25  C   UNL     1       1.172   9.456  18.107  0.00  0.00    +0.000 C 
ENDBRANCH  23  25
ENDBRANCH  21  23
ENDBRANCH   1  21
BRANCH   7  26
ATOM     26  O   UNL     1      -7.467  12.218  20.664  0.00  0.00    +0.000 OA
ATOM     27  C   UNL     1      -7.916  11.280  21.627  0.00  0.00    +0.000 C 
ENDBRANCH   7  26
BRANCH  16  28
ATOM     28  C   UNL     1       0.466  16.293  23.102  0.00  0.00    +0.000 C 
BRANCH  28  29
ATOM     29  C   UNL     1      -0.329  16.004  24.367  0.00  0.00    +0.000 A 
ATOM     30  C   UNL     1      -1.596  15.514  24.642  0.00  0.00    +0.000 A 
ATOM     31  C   UNL     1      -1.758  15.557  26.053  0.00  0.00    +0.000 A 
ATOM     32  C   UNL     1      -0.586  16.071  26.556  0.00  0.00    +0.000 A 
ATOM     33  O   UNL     1       0.269  16.349  25.540  0.00  0.00    +0.000 OA
ENDBRANCH  28  29
ENDBRANCH  16  28
TORSDOF 6
ENDMDL
MODEL 5
REMARK VINA RESULT:      -6.1      2.187      6.264
REMARK  Name = 
REMARK  9 active torsions:
REMARK  status: ('A' for Active; 'I' for Inactive)
REMARK    1  A    between atoms: C_1  and  C_2
REMARK    2  A    between atoms: C_2  and  O_3
REMARK    3  A    between atoms: O_3  and  C_4
REMARK    4  A    between atoms: C_4  and  C_6
REMARK    5  A    between atoms: C_12  and  O_13
REMARK    6  A    between atoms: O_13  and  C_14
REMARK    7  A    between atoms: N_23  and  C_24
REMARK    8  A    between atoms: C_24  and  C_25
REMARK    9  A    between atoms: C_32  and  C_33
REMARK                            x       y       z     vdW  Elec       q    Type
REMARK                         _______ _______ _______ _____ _____    ______ ____
ROOT
ATOM      1  C   UNL     1       0.736  14.788  20.473  0.00  0.00    +0.000 C 
ATOM      2  C   UNL     1       1.165  13.675  19.460  0.00  0.00    +0.000 C 
ATOM      3  C   UNL     1       2.537  13.455  18.855  0.00  0.00    +0.000 C 
ATOM      4  O   UNL     1       2.504  12.302  17.967  0.00  0.00    +0.000 OA
ATOM      5  C   UNL     1       1.972  11.155  18.514  0.00  0.00    +0.000 A 
ATOM      6  C   UNL     1       2.275   9.934  17.899  0.00  0.00    +0.000 A 
ATOM      7  C   UNL     1       1.830   8.734  18.469  0.00  0.00    +0.000 A 
ATOM      8  C   UNL     1       1.125   8.761  19.671  0.00  0.00    +0.000 A 
ATOM      9  C   UNL     1       0.797   9.973  20.263  0.00  0.00    +0.000 A 
ATOM     10  C   UNL     1       1.152  11.176  19.642  0.00  0.00    +0.000 A 
ATOM     11  C   UNL     1       0.775  12.468  20.257  0.00  0.00    +0.000 C 
ATOM     12  N   UNL     1      -0.600  12.847  20.518  0.00  0.00    +0.000 N 
ATOM     13  C   UNL     1      -1.721  12.076  20.337  0.00  0.00    +0.000 C 
ATOM     14  O   UNL     1      -1.826  11.124  19.574  0.00  0.00    +0.000 OA
ATOM     15  C   UNL     1      -2.877  12.580  21.162  0.00  0.00    +0.000 C 
ATOM     16  N   UNL     1      -2.306  12.886  22.488  0.00  0.00    +0.000 N 
ATOM     17  C   UNL     1      -1.145  13.779  22.559  0.00  0.00    +0.000 C 
ATOM     18  O   UNL     1      -0.732  14.242  23.617  0.00  0.00    +0.000 OA
ATOM     19  C   UNL     1      -0.619  14.215  21.104  0.00  0.00    +0.000 C 
ATOM     20  C   UNL     1      -1.680  15.250  20.645  0.00  0.00    +0.000 C 
ENDROOT
BRANCH   1  21
ATOM     21  C   UNL     1       1.857  15.311  21.320  0.00  0.00    +0.000 C 
ATOM     22  O   UNL     1       2.275  14.706  22.300  0.00  0.00    +0.000 OA
BRANCH  21  23
ATOM     23  O   UNL     1       2.460  16.386  20.769  0.00  0.00    +0.000 OA
BRANCH  23  25
ATOM     24  C   UNL     1       2.096  17.376  18.579  0.00  0.00    +0.000 C 
ATOM     25  C   UNL     1       1.586  17.232  20.002  0.00  0.00    +0.000 C 
ENDBRANCH  23  25
ENDBRANCH  21  23
ENDBRANCH   1  21
BRANCH   7  26
ATOM     26  O   UNL     1       2.023   7.471  17.985  0.00  0.00    +0.000 OA
ATOM     27  C   UNL     1       3.364   7.026  17.855  0.00  0.00    +0.000 C 
ENDBRANCH   7  26
BRANCH  16  28
ATOM     28  C   UNL     1      -3.167  12.613  23.650  0.00  0.00    +0.000 C 
BRANCH  28  29
ATOM     29  C   UNL     1      -4.510  13.327  23.611  0.00  0.00    +0.000 A 
ATOM     30  C   UNL     1      -4.924  14.648  23.690  0.00  0.00    +0.000 A 
ATOM     31  C   UNL     1      -6.345  14.637  23.661  0.00  0.00    +0.000 A 
ATOM     32  C   UNL     1      -6.714  13.315  23.568  0.00  0.00    +0.000 A 
ATOM     33  O   UNL     1      -5.609  12.528  23.549  0.00  0.00    +0.000 OA
ENDBRANCH  28  29
ENDBRANCH  16  28
TORSDOF 6
ENDMDL
MODEL 6
REMARK VINA RESULT:      -6.0      3.109      7.261
REMARK  Name = 
REMARK  9 active torsions:
REMARK  status: ('A' for Active; 'I' for Inactive)
REMARK    1  A    between atoms: C_1  and  C_2
REMARK    2  A    between atoms: C_2  and  O_3
REMARK    3  A    between atoms: O_3  and  C_4
REMARK    4  A    between atoms: C_4  and  C_6
REMARK    5  A    between atoms: C_12  and  O_13
REMARK    6  A    between atoms: O_13  and  C_14
REMARK    7  A    between atoms: N_23  and  C_24
REMARK    8  A    between atoms: C_24  and  C_25
REMARK    9  A    between atoms: C_32  and  C_33
REMARK                            x       y       z     vdW  Elec       q    Type
REMARK                         _______ _______ _______ _____ _____    ______ ____
ROOT
ATOM      1  C   UNL     1       0.078  11.087  19.888  0.00  0.00    +0.000 C 
ATOM      2  C   UNL     1      -0.997  11.315  18.774  0.00  0.00    +0.000 C 
ATOM      3  C   UNL     1      -1.475  10.322  17.734  0.00  0.00    +0.000 C 
ATOM      4  O   UNL     1      -2.491  10.940  16.895  0.00  0.00    +0.000 OA
ATOM      5  C   UNL     1      -3.529  11.540  17.574  0.00  0.00    +0.000 A 
ATOM      6  C   UNL     1      -4.719  11.780  16.876  0.00  0.00    +0.000 A 
ATOM      7  C   UNL     1      -5.829  12.308  17.548  0.00  0.00    +0.000 A 
ATOM      8  C   UNL     1      -5.757  12.549  18.919  0.00  0.00    +0.000 A 
ATOM      9  C   UNL     1      -4.567  12.341  19.603  0.00  0.00    +0.000 A 
ATOM     10  C   UNL     1      -3.427  11.911  18.915  0.00  0.00    +0.000 A 
ATOM     11  C   UNL     1      -2.151  11.720  19.639  0.00  0.00    +0.000 C 
ATOM     12  N   UNL     1      -1.484  12.787  20.359  0.00  0.00    +0.000 N 
ATOM     13  C   UNL     1      -1.944  14.065  20.562  0.00  0.00    +0.000 C 
ATOM     14  O   UNL     1      -2.763  14.655  19.868  0.00  0.00    +0.000 OA
ATOM     15  C   UNL     1      -1.265  14.717  21.739  0.00  0.00    +0.000 C 
ATOM     16  N   UNL     1      -1.239  13.685  22.794  0.00  0.00    +0.000 N 
ATOM     17  C   UNL     1      -0.660  12.376  22.477  0.00  0.00    +0.000 C 
ATOM     18  O   UNL     1      -0.417  11.536  23.337  0.00  0.00    +0.000 OA
ATOM     19  C   UNL     1      -0.217  12.261  20.936  0.00  0.00    +0.000 C 
ATOM     20  C   UNL     1       1.081  13.109  20.881  0.00  0.00    +0.000 C 
ENDROOT
BRANCH   1  21
ATOM     21  C   UNL     1       0.231   9.656  20.309  0.00  0.00    +0.000 C 
ATOM     22  O   UNL     1      -0.583   9.095  21.031  0.00  0.00    +0.000 OA
BRANCH  21  23
ATOM     23  O   UNL     1       1.230   9.031  19.650  0.00  0.00    +0.000 OA
BRANCH  23  25
ATOM     24  C   UNL     1       2.448   6.951  19.332  0.00  0.00    +0.000 C 
ATOM     25  C   UNL     1       1.754   7.871  20.321  0.00  0.00    +0.000 C 
ENDBRANCH  23  25
ENDBRANCH  21  23
ENDBRANCH   1  21
BRANCH   7  26
ATOM     26  O   UNL     1      -7.047  12.615  17.009  0.00  0.00    +0.000 OA
ATOM     27  C   UNL     1      -7.832  13.578  17.693  0.00  0.00    +0.000 C 
ENDBRANCH   7  26
BRANCH  16  28
ATOM     28  C   UNL     1      -1.415  14.159  24.177  0.00  0.00    +0.000 C 
BRANCH  28  29
ATOM     29  C   UNL     1      -2.653  15.019  24.386  0.00  0.00    +0.000 A 
ATOM     30  C   UNL     1      -4.010  14.864  24.150  0.00  0.00    +0.000 A 
ATOM     31  C   UNL     1      -4.634  16.090  24.509  0.00  0.00    +0.000 A 
ATOM     32  C   UNL     1      -3.625  16.919  24.940  0.00  0.00    +0.000 A 
ATOM     33  O   UNL     1      -2.433  16.277  24.856  0.00  0.00    +0.000 OA
ENDBRANCH  28  29
ENDBRANCH  16  28
TORSDOF 6
ENDMDL
MODEL 7
REMARK VINA RESULT:      -5.9      0.860      1.543
REMARK  Name = 
REMARK  9 active torsions:
REMARK  status: ('A' for Active; 'I' for Inactive)
REMARK    1  A    between atoms: C_1  and  C_2
REMARK    2  A    between atoms: C_2  and  O_3
REMARK    3  A    between atoms: O_3  and  C_4
REMARK    4  A    between atoms: C_4  and  C_6
REMARK    5  A    between atoms: C_12  and  O_13
REMARK    6  A    between atoms: O_13  and  C_14
REMARK    7  A    between atoms: N_23  and  C_24
REMARK    8  A    between atoms: C_24  and  C_25
REMARK    9  A    between atoms: C_32  and  C_33
REMARK                            x       y       z     vdW  Elec       q    Type
REMARK                         _______ _______ _______ _____ _____    ______ ____
ROOT
ATOM      1  C   UNL     1      -1.817  14.638  22.451  0.00  0.00    +0.000 C 
ATOM      2  C   UNL     1      -1.389  13.166  22.767  0.00  0.00    +0.000 C 
ATOM      3  C   UNL     1      -2.282  12.011  23.171  0.00  0.00    +0.000 C 
ATOM      4  O   UNL     1      -1.479  10.812  23.361  0.00  0.00    +0.000 OA
ATOM      5  C   UNL     1      -0.639  10.495  22.316  0.00  0.00    +0.000 A 
ATOM      6  C   UNL     1      -0.159   9.183  22.234  0.00  0.00    +0.000 A 
ATOM      7  C   UNL     1       0.626   8.792  21.141  0.00  0.00    +0.000 A 
ATOM      8  C   UNL     1       0.890   9.703  20.120  0.00  0.00    +0.000 A 
ATOM      9  C   UNL     1       0.442  11.013  20.218  0.00  0.00    +0.000 A 
ATOM     10  C   UNL     1      -0.257  11.433  21.356  0.00  0.00    +0.000 A 
ATOM     11  C   UNL     1      -0.706  12.837  21.475  0.00  0.00    +0.000 C 
ATOM     12  N   UNL     1       0.206  13.963  21.448  0.00  0.00    +0.000 N 
ATOM     13  C   UNL     1       1.560  13.929  21.225  0.00  0.00    +0.000 C 
ATOM     14  O   UNL     1       2.296  12.968  21.408  0.00  0.00    +0.000 OA
ATOM     15  C   UNL     1       2.080  15.269  20.772  0.00  0.00    +0.000 C 
ATOM     16  N   UNL     1       1.104  15.749  19.775  0.00  0.00    +0.000 N 
ATOM     17  C   UNL     1      -0.312  15.804  20.153  0.00  0.00    +0.000 C 
ATOM     18  O   UNL     1      -1.156  16.370  19.467  0.00  0.00    +0.000 OA
ATOM     19  C   UNL     1      -0.573  15.219  21.627  0.00  0.00    +0.000 C 
ATOM     20  C   UNL     1      -0.042  16.347  22.550  0.00  0.00    +0.000 C 
ENDROOT
BRANCH   1  21
ATOM     21  C   UNL     1      -3.231  14.777  21.973  0.00  0.00    +0.000 C 
ATOM     22  O   UNL     1      -4.030  15.539  22.503  0.00  0.00    +0.000 OA
BRANCH  21  23
ATOM     23  O   UNL     1      -3.444  14.136  20.804  0.00  0.00    +0.000 OA
BRANCH  23  25
ATOM     24  C   UNL     1      -4.632  12.384  19.608  0.00  0.00    +0.000 C 
ATOM     25  C   UNL     1      -4.669  13.384  20.750  0.00  0.00    +0.000 C 
ENDBRANCH  23  25
ENDBRANCH  21  23
ENDBRANCH   1  21
BRANCH   7  26
ATOM     26  O   UNL     1       1.183   7.563  20.925  0.00  0.00    +0.000 OA
ATOM     27  C   UNL     1       2.120   7.454  19.867  0.00  0.00    +0.000 C 
ENDBRANCH   7  26
BRANCH  16  28
ATOM     28  C   UNL     1       1.650  16.508  18.638  0.00  0.00    +0.000 C 
BRANCH  28  29
ATOM     29  C   UNL     1       3.127  16.256  18.373  0.00  0.00    +0.000 A 
ATOM     30  C   UNL     1       3.857  15.261  17.742  0.00  0.00    +0.000 A 
ATOM     31  C   UNL     1       5.230  15.588  17.907  0.00  0.00    +0.000 A 
ATOM     32  C   UNL     1       5.258  16.759  18.628  0.00  0.00    +0.000 A 
ATOM     33  O   UNL     1       3.993  17.154  18.917  0.00  0.00    +0.000 OA
ENDBRANCH  28  29
ENDBRANCH  16  28
TORSDOF 6
ENDMDL
MODEL 8
REMARK VINA RESULT:      -5.9      2.652      6.445
REMARK  Name = 
REMARK  9 active torsions:
REMARK  status: ('A' for Active; 'I' for Inactive)
REMARK    1  A    between atoms: C_1  and  C_2
REMARK    2  A    between atoms: C_2  and  O_3
REMARK    3  A    between atoms: O_3  and  C_4
REMARK    4  A    between atoms: C_4  and  C_6
REMARK    5  A    between atoms: C_12  and  O_13
REMARK    6  A    between atoms: O_13  and  C_14
REMARK    7  A    between atoms: N_23  and  C_24
REMARK    8  A    between atoms: C_24  and  C_25
REMARK    9  A    between atoms: C_32  and  C_33
REMARK                            x       y       z     vdW  Elec       q    Type
REMARK                         _______ _______ _______ _____ _____    ______ ____
ROOT
ATOM      1  C   UNL     1       0.125  12.755  18.941  0.00  0.00    +0.000 C 
ATOM      2  C   UNL     1      -1.412  12.563  18.720  0.00  0.00    +0.000 C 
ATOM      3  C   UNL     1      -2.129  11.316  18.245  0.00  0.00    +0.000 C 
ATOM      4  O   UNL     1      -3.562  11.565  18.185  0.00  0.00    +0.000 OA
ATOM      5  C   UNL     1      -4.115  12.094  19.330  0.00  0.00    +0.000 A 
ATOM      6  C   UNL     1      -5.499  11.977  19.506  0.00  0.00    +0.000 A 
ATOM      7  C   UNL     1      -6.094  12.422  20.694  0.00  0.00    +0.000 A 
ATOM      8  C   UNL     1      -5.297  12.939  21.714  0.00  0.00    +0.000 A 
ATOM      9  C   UNL     1      -3.929  13.084  21.526  0.00  0.00    +0.000 A 
ATOM     10  C   UNL     1      -3.346  12.736  20.302  0.00  0.00    +0.000 A 
ATOM     11  C   UNL     1      -1.894  12.921  20.092  0.00  0.00    +0.000 C 
ATOM     12  N   UNL     1      -1.239  14.210  20.195  0.00  0.00    +0.000 N 
ATOM     13  C   UNL     1      -1.807  15.401  20.578  0.00  0.00    +0.000 C 
ATOM     14  O   UNL     1      -2.995  15.687  20.510  0.00  0.00    +0.000 OA
ATOM     15  C   UNL     1      -0.766  16.382  21.052  0.00  0.00    +0.000 C 
ATOM     16  N   UNL     1       0.144  15.601  21.913  0.00  0.00    +0.000 N 
ATOM     17  C   UNL     1       0.743  14.378  21.368  0.00  0.00    +0.000 C 
ATOM     18  O   UNL     1       1.653  13.782  21.933  0.00  0.00    +0.000 OA
ATOM     19  C   UNL     1       0.208  14.042  19.890  0.00  0.00    +0.000 C 
ATOM     20  C   UNL     1       0.949  15.078  19.005  0.00  0.00    +0.000 C 
ENDROOT
BRANCH   1  21
ATOM     21  C   UNL     1       0.864  11.486  19.244  0.00  0.00    +0.000 C 
ATOM     22  O   UNL     1       1.671  10.996  18.465  0.00  0.00    +0.000 OA
BRANCH  21  23
ATOM     23  O   UNL     1       0.688  11.081  20.520  0.00  0.00    +0.000 OA
BRANCH  23  25
ATOM     24  C   UNL     1       1.094   8.889  21.492  0.00  0.00    +0.000 C 
ATOM     25  C   UNL     1       0.162   9.748  20.656  0.00  0.00    +0.000 C 
ENDBRANCH  23  25
ENDBRANCH  21  23
ENDBRANCH   1  21
BRANCH   7  26
ATOM     26  O   UNL     1      -7.423  12.396  21.009  0.00  0.00    +0.000 OA
ATOM     27  C   UNL     1      -7.774  12.650  22.359  0.00  0.00    +0.000 C 
ENDBRANCH   7  26
BRANCH  16  28
ATOM     28  C   UNL     1       0.696  16.300  23.085  0.00  0.00    +0.000 C 
BRANCH  28  29
ATOM     29  C   UNL     1      -0.276  16.428  24.248  0.00  0.00    +0.000 A 
ATOM     30  C   UNL     1      -0.803  17.482  24.978  0.00  0.00    +0.000 A 
ATOM     31  C   UNL     1      -1.614  16.914  25.997  0.00  0.00    +0.000 A 
ATOM     32  C   UNL     1      -1.533  15.551  25.832  0.00  0.00    +0.000 A 
ATOM     33  O   UNL     1      -0.720  15.260  24.786  0.00  0.00    +0.000 OA
ENDBRANCH  28  29
ENDBRANCH  16  28
TORSDOF 6
ENDMDL
MODEL 9
REMARK VINA RESULT:      -5.8      2.191      6.641
REMARK  Name = 
REMARK  9 active torsions:
REMARK  status: ('A' for Active; 'I' for Inactive)
REMARK    1  A    between atoms: C_1  and  C_2
REMARK    2  A    between atoms: C_2  and  O_3
REMARK    3  A    between atoms: O_3  and  C_4
REMARK    4  A    between atoms: C_4  and  C_6
REMARK    5  A    between atoms: C_12  and  O_13
REMARK    6  A    between atoms: O_13  and  C_14
REMARK    7  A    between atoms: N_23  and  C_24
REMARK    8  A    between atoms: C_24  and  C_25
REMARK    9  A    between atoms: C_32  and  C_33
REMARK                            x       y       z     vdW  Elec       q    Type
REMARK                         _______ _______ _______ _____ _____    ______ ____
ROOT
ATOM      1  C   UNL     1      -1.616  12.119  19.577  0.00  0.00    +0.000 C 
ATOM      2  C   UNL     1      -0.751  13.341  19.123  0.00  0.00    +0.000 C 
ATOM      3  C   UNL     1      -0.992  14.806  19.424  0.00  0.00    +0.000 C 
ATOM      4  O   UNL     1       0.058  15.612  18.818  0.00  0.00    +0.000 OA
ATOM      5  C   UNL     1       1.345  15.213  19.106  0.00  0.00    +0.000 A 
ATOM      6  C   UNL     1       2.377  16.141  18.920  0.00  0.00    +0.000 A 
ATOM      7  C   UNL     1       3.690  15.809  19.282  0.00  0.00    +0.000 A 
ATOM      8  C   UNL     1       3.953  14.572  19.867  0.00  0.00    +0.000 A 
ATOM      9  C   UNL     1       2.935  13.640  20.020  0.00  0.00    +0.000 A 
ATOM     10  C   UNL     1       1.643  13.930  19.567  0.00  0.00    +0.000 A 
ATOM     11  C   UNL     1       0.567  12.925  19.702  0.00  0.00    +0.000 C 
ATOM     12  N   UNL     1       0.634  11.609  19.098  0.00  0.00    +0.000 N 
ATOM     13  C   UNL     1       1.692  11.064  18.413  0.00  0.00    +0.000 C 
ATOM     14  O   UNL     1       2.580  11.686  17.844  0.00  0.00    +0.000 OA
ATOM     15  C   UNL     1       1.611   9.559  18.377  0.00  0.00    +0.000 C 
ATOM     16  N   UNL     1       1.235   9.157  19.747  0.00  0.00    +0.000 N 
ATOM     17  C   UNL     1       0.042   9.761  20.350  0.00  0.00    +0.000 C 
ATOM     18  O   UNL     1      -0.453   9.345  21.392  0.00  0.00    +0.000 OA
ATOM     19  C   UNL     1      -0.625  10.874  19.401  0.00  0.00    +0.000 C 
ATOM     20  C   UNL     1      -1.322  10.026  18.305  0.00  0.00    +0.000 C 
ENDROOT
BRANCH   1  21
ATOM     21  C   UNL     1      -2.395  12.352  20.837  0.00  0.00    +0.000 C 
ATOM     22  O   UNL     1      -3.585  12.642  20.827  0.00  0.00    +0.000 OA
BRANCH  21  23
ATOM     23  O   UNL     1      -1.698  12.014  21.942  0.00  0.00    +0.000 OA
BRANCH  23  25
ATOM     24  C   UNL     1      -0.897  14.052  23.000  0.00  0.00    +0.000 C 
ATOM     25  C   UNL     1      -1.884  12.899  23.060  0.00  0.00    +0.000 C 
ENDBRANCH  23  25
ENDBRANCH  21  23
ENDBRANCH   1  21
BRANCH   7  26
ATOM     26  O   UNL     1       4.803  16.590  19.147  0.00  0.00    +0.000 OA
ATOM     27  C   UNL     1       6.003  15.944  18.756  0.00  0.00    +0.000 C 
ENDBRANCH   7  26
BRANCH  16  28
ATOM     28  C   UNL     1       1.829   7.906  20.248  0.00  0.00    +0.000 C 
BRANCH  28  29
ATOM     29  C   UNL     1       2.477   7.050  19.170  0.00  0.00    +0.000 A 
ATOM     30  C   UNL     1       3.520   7.223  18.272  0.00  0.00    +0.000 A 
ATOM     31  C   UNL     1       3.576   6.048  17.474  0.00  0.00    +0.000 A 
ATOM     32  C   UNL     1       2.566   5.232  17.927  0.00  0.00    +0.000 A 
ATOM     33  O   UNL     1       1.900   5.840  18.940  0.00  0.00    +0.000 OA
ENDBRANCH  28  29
ENDBRANCH  16  28
TORSDOF 6
ENDMDL
