MODEL 1
REMARK VINA RESULT:      -6.5      0.000      0.000
REMARK  Name = 
REMARK  5 active torsions:
REMARK  status: ('A' for Active; 'I' for Inactive)
REMARK    1  A    between atoms: C_1  and  C_2
REMARK    2  A    between atoms: C_6  and  C_7
REMARK    3  A    between atoms: C_7  and  N_8
REMARK    4  A    between atoms: C_13  and  C_14
REMARK    5  A    between atoms: C_14  and  N_15
REMARK                            x       y       z     vdW  Elec       q    Type
REMARK                         _______ _______ _______ _____ _____    ______ ____
ROOT
ATOM      1  N   UNL     1       4.275   4.210  18.087  0.00  0.00    +0.000 NA
ATOM      2  C   UNL     1       3.522   5.421  17.712  0.00  0.00    +0.000 C 
ATOM      3  C   UNL     1       2.112   5.221  18.247  0.00  0.00    +0.000 C 
ATOM      4  F   UNL     1       1.370   4.515  17.353  0.00  0.00    +0.000 F 
ATOM      5  C   UNL     1       2.297   4.390  19.495  0.00  0.00    +0.000 C 
ATOM      6  C   UNL     1       3.606   3.620  19.278  0.00  0.00    +0.000 C 
ENDROOT
BRANCH   1   7
ATOM      7  C   UNL     1       5.692   4.480  18.377  0.00  0.00    +0.000 C 
BRANCH   7  13
ATOM      8  C   UNL     1       7.503   7.242  17.683  0.00  0.00    +0.000 C 
ATOM      9  C   UNL     1       7.176   6.032  16.908  0.00  0.00    +0.000 A 
ATOM     10  O   UNL     1       7.655   5.995  15.635  0.00  0.00    +0.000 OA
ATOM     11  N   UNL     1       7.254   4.822  15.021  0.00  0.00    +0.000 NA
ATOM     12  C   UNL     1       6.543   4.174  15.944  0.00  0.00    +0.000 A 
ATOM     13  C   UNL     1       6.459   4.882  17.166  0.00  0.00    +0.000 A 
ENDBRANCH   7  13
ENDBRANCH   1   7
BRANCH   6  14
ATOM     14  C   UNL     1       3.375   2.100  19.084  0.00  0.00    +0.000 C 
BRANCH  14  15
ATOM     15  N   UNL     1       2.693   1.762  17.829  0.00  0.00    +0.000 NA
ATOM     16  H   UNL     1       2.110   0.944  18.027  0.00  0.00    +0.000 HD
ATOM     17  H   UNL     1       3.375   1.399  17.160  0.00  0.00    +0.000 HD
ENDBRANCH  14  15
ENDBRANCH   6  14
TORSDOF 4
ENDMDL
MODEL 2
REMARK VINA RESULT:      -6.5      1.887      2.831
REMARK  Name = 
REMARK  5 active torsions:
REMARK  status: ('A' for Active; 'I' for Inactive)
REMARK    1  A    between atoms: C_1  and  C_2
REMARK    2  A    between atoms: C_6  and  C_7
REMARK    3  A    between atoms: C_7  and  N_8
REMARK    4  A    between atoms: C_13  and  C_14
REMARK    5  A    between atoms: C_14  and  N_15
REMARK                            x       y       z     vdW  Elec       q    Type
REMARK                         _______ _______ _______ _____ _____    ______ ____
ROOT
ATOM      1  N   UNL     1       3.651   3.834  18.070  0.00  0.00    +0.000 NA
ATOM      2  C   UNL     1       3.126   2.457  18.021  0.00  0.00    +0.000 C 
ATOM      3  C   UNL     1       1.957   2.419  18.993  0.00  0.00    +0.000 C 
ATOM      4  F   UNL     1       2.406   2.173  20.253  0.00  0.00    +0.000 F 
ATOM      5  C   UNL     1       1.379   3.813  18.942  0.00  0.00    +0.000 C 
ATOM      6  C   UNL     1       2.542   4.718  18.518  0.00  0.00    +0.000 C 
ENDROOT
BRANCH   1   7
ATOM      7  C   UNL     1       4.184   4.294  16.779  0.00  0.00    +0.000 C 
BRANCH   7  13
ATOM      8  C   UNL     1       6.459   4.160  14.289  0.00  0.00    +0.000 C 
ATOM      9  C   UNL     1       6.571   4.350  15.746  0.00  0.00    +0.000 A 
ATOM     10  O   UNL     1       7.837   4.466  16.233  0.00  0.00    +0.000 OA
ATOM     11  N   UNL     1       7.794   4.613  17.608  0.00  0.00    +0.000 NA
ATOM     12  C   UNL     1       6.498   4.587  17.918  0.00  0.00    +0.000 A 
ATOM     13  C   UNL     1       5.667   4.429  16.785  0.00  0.00    +0.000 A 
ENDBRANCH   7  13
ENDBRANCH   1   7
BRANCH   6  14
ATOM     14  C   UNL     1       3.011   5.656  19.660  0.00  0.00    +0.000 C 
BRANCH  14  15
ATOM     15  N   UNL     1       2.283   5.462  20.920  0.00  0.00    +0.000 NA
ATOM     16  H   UNL     1       2.911   5.770  21.667  0.00  0.00    +0.000 HD
ATOM     17  H   UNL     1       2.183   4.461  21.102  0.00  0.00    +0.000 HD
ENDBRANCH  14  15
ENDBRANCH   6  14
TORSDOF 4
ENDMDL
MODEL 3
REMARK VINA RESULT:      -6.4      0.894      1.604
REMARK  Name = 
REMARK  5 active torsions:
REMARK  status: ('A' for Active; 'I' for Inactive)
REMARK    1  A    between atoms: C_1  and  C_2
REMARK    2  A    between atoms: C_6  and  C_7
REMARK    3  A    between atoms: C_7  and  N_8
REMARK    4  A    between atoms: C_13  and  C_14
REMARK    5  A    between atoms: C_14  and  N_15
REMARK                            x       y       z     vdW  Elec       q    Type
REMARK                         _______ _______ _______ _____ _____    ______ ____
ROOT
ATOM      1  N   UNL     1       4.239   4.239  18.131  0.00  0.00    +0.000 NA
ATOM      2  C   UNL     1       3.486   5.502  18.019  0.00  0.00    +0.000 C 
ATOM      3  C   UNL     1       2.066   5.184  18.459  0.00  0.00    +0.000 C 
ATOM      4  F   UNL     1       1.350   4.698  17.409  0.00  0.00    +0.000 F 
ATOM      5  C   UNL     1       2.225   4.093  19.491  0.00  0.00    +0.000 C 
ATOM      6  C   UNL     1       3.544   3.394  19.140  0.00  0.00    +0.000 C 
ENDROOT
BRANCH   1   7
ATOM      7  C   UNL     1       5.645   4.437  18.511  0.00  0.00    +0.000 C 
BRANCH   7  13
ATOM      8  C   UNL     1       6.373   3.928  15.254  0.00  0.00    +0.000 C 
ATOM      9  C   UNL     1       6.693   5.013  16.200  0.00  0.00    +0.000 A 
ATOM     10  O   UNL     1       7.466   6.020  15.708  0.00  0.00    +0.000 OA
ATOM     11  N   UNL     1       7.706   6.950  16.705  0.00  0.00    +0.000 NA
ATOM     12  C   UNL     1       7.065   6.482  17.776  0.00  0.00    +0.000 A 
ATOM     13  C   UNL     1       6.396   5.261  17.524  0.00  0.00    +0.000 A 
ENDBRANCH   7  13
ENDBRANCH   1   7
BRANCH   6  14
ATOM     14  C   UNL     1       3.329   1.957  18.601  0.00  0.00    +0.000 C 
BRANCH  14  15
ATOM     15  N   UNL     1       1.920   1.549  18.554  0.00  0.00    +0.000 NA
ATOM     16  H   UNL     1       1.915   0.525  18.527  0.00  0.00    +0.000 HD
ATOM     17  H   UNL     1       1.525   1.802  17.645  0.00  0.00    +0.000 HD
ENDBRANCH  14  15
ENDBRANCH   6  14
TORSDOF 4
ENDMDL
MODEL 4
REMARK VINA RESULT:      -6.3      1.832      2.422
REMARK  Name = 
REMARK  5 active torsions:
REMARK  status: ('A' for Active; 'I' for Inactive)
REMARK    1  A    between atoms: C_1  and  C_2
REMARK    2  A    between atoms: C_6  and  C_7
REMARK    3  A    between atoms: C_7  and  N_8
REMARK    4  A    between atoms: C_13  and  C_14
REMARK    5  A    between atoms: C_14  and  N_15
REMARK                            x       y       z     vdW  Elec       q    Type
REMARK                         _______ _______ _______ _____ _____    ______ ____
ROOT
ATOM      1  N   UNL     1       3.134   4.019  18.613  0.00  0.00    +0.000 NA
ATOM      2  C   UNL     1       1.694   4.200  18.353  0.00  0.00    +0.000 C 
ATOM      3  C   UNL     1       0.981   3.160  19.204  0.00  0.00    +0.000 C 
ATOM      4  F   UNL     1       0.923   1.974  18.540  0.00  0.00    +0.000 F 
ATOM      5  C   UNL     1       1.862   2.999  20.420  0.00  0.00    +0.000 C 
ATOM      6  C   UNL     1       3.270   3.389  19.954  0.00  0.00    +0.000 C 
ENDROOT
BRANCH   1   7
ATOM      7  C   UNL     1       3.892   5.278  18.559  0.00  0.00    +0.000 C 
BRANCH   7  13
ATOM      8  C   UNL     1       5.503   3.996  15.884  0.00  0.00    +0.000 C 
ATOM      9  C   UNL     1       5.965   4.520  17.182  0.00  0.00    +0.000 A 
ATOM     10  O   UNL     1       7.308   4.462  17.401  0.00  0.00    +0.000 OA
ATOM     11  N   UNL     1       7.595   4.960  18.659  0.00  0.00    +0.000 NA
ATOM     12  C   UNL     1       6.415   5.312  19.169  0.00  0.00    +0.000 A 
ATOM     13  C   UNL     1       5.340   5.066  18.283  0.00  0.00    +0.000 A 
ENDBRANCH   7  13
ENDBRANCH   1   7
BRANCH   6  14
ATOM     14  C   UNL     1       4.234   2.177  19.899  0.00  0.00    +0.000 C 
BRANCH  14  15
ATOM     15  N   UNL     1       4.157   1.419  18.644  0.00  0.00    +0.000 NA
ATOM     16  H   UNL     1       4.761   0.600  18.763  0.00  0.00    +0.000 HD
ATOM     17  H   UNL     1       4.628   1.943  17.903  0.00  0.00    +0.000 HD
ENDBRANCH  14  15
ENDBRANCH   6  14
TORSDOF 4
ENDMDL
MODEL 5
REMARK VINA RESULT:      -6.2      1.326      1.504
REMARK  Name = 
REMARK  5 active torsions:
REMARK  status: ('A' for Active; 'I' for Inactive)
REMARK    1  A    between atoms: C_1  and  C_2
REMARK    2  A    between atoms: C_6  and  C_7
REMARK    3  A    between atoms: C_7  and  N_8
REMARK    4  A    between atoms: C_13  and  C_14
REMARK    5  A    between atoms: C_14  and  N_15
REMARK                            x       y       z     vdW  Elec       q    Type
REMARK                         _______ _______ _______ _____ _____    ______ ____
ROOT
ATOM      1  N   UNL     1       3.407   4.105  18.387  0.00  0.00    +0.000 NA
ATOM      2  C   UNL     1       2.001   4.496  18.174  0.00  0.00    +0.000 C 
ATOM      3  C   UNL     1       1.178   3.631  19.116  0.00  0.00    +0.000 C 
ATOM      4  F   UNL     1       0.904   2.434  18.532  0.00  0.00    +0.000 F 
ATOM      5  C   UNL     1       2.081   3.402  20.304  0.00  0.00    +0.000 C 
ATOM      6  C   UNL     1       3.508   3.538  19.760  0.00  0.00    +0.000 C 
ENDROOT
BRANCH   1   7
ATOM      7  C   UNL     1       4.347   5.224  18.224  0.00  0.00    +0.000 C 
BRANCH   7  13
ATOM      8  C   UNL     1       7.638   5.655  18.843  0.00  0.00    +0.000 C 
ATOM      9  C   UNL     1       6.894   5.057  17.719  0.00  0.00    +0.000 A 
ATOM     10  O   UNL     1       7.650   4.603  16.682  0.00  0.00    +0.000 OA
ATOM     11  N   UNL     1       6.826   4.094  15.695  0.00  0.00    +0.000 NA
ATOM     12  C   UNL     1       5.588   4.249  16.163  0.00  0.00    +0.000 A 
ATOM     13  C   UNL     1       5.559   4.848  17.445  0.00  0.00    +0.000 A 
ENDBRANCH   7  13
ENDBRANCH   1   7
BRANCH   6  14
ATOM     14  C   UNL     1       4.269   2.188  19.743  0.00  0.00    +0.000 C 
BRANCH  14  15
ATOM     15  N   UNL     1       4.035   1.394  18.531  0.00  0.00    +0.000 NA
ATOM     16  H   UNL     1       4.475   0.483  18.693  0.00  0.00    +0.000 HD
ATOM     17  H   UNL     1       4.586   1.780  17.762  0.00  0.00    +0.000 HD
ENDBRANCH  14  15
ENDBRANCH   6  14
TORSDOF 4
ENDMDL
MODEL 6
REMARK VINA RESULT:      -6.2      1.741      1.957
REMARK  Name = 
REMARK  5 active torsions:
REMARK  status: ('A' for Active; 'I' for Inactive)
REMARK    1  A    between atoms: C_1  and  C_2
REMARK    2  A    between atoms: C_6  and  C_7
REMARK    3  A    between atoms: C_7  and  N_8
REMARK    4  A    between atoms: C_13  and  C_14
REMARK    5  A    between atoms: C_14  and  N_15
REMARK                            x       y       z     vdW  Elec       q    Type
REMARK                         _______ _______ _______ _____ _____    ______ ____
ROOT
ATOM      1  N   UNL     1       3.626   4.434  19.357  0.00  0.00    +0.000 NA
ATOM      2  C   UNL     1       2.772   5.174  20.304  0.00  0.00    +0.000 C 
ATOM      3  C   UNL     1       1.779   4.162  20.853  0.00  0.00    +0.000 C 
ATOM      4  F   UNL     1       0.711   4.056  20.018  0.00  0.00    +0.000 F 
ATOM      5  C   UNL     1       2.534   2.854  20.853  0.00  0.00    +0.000 C 
ATOM      6  C   UNL     1       3.597   3.001  19.757  0.00  0.00    +0.000 C 
ENDROOT
BRANCH   1   7
ATOM      7  C   UNL     1       5.011   4.928  19.321  0.00  0.00    +0.000 C 
BRANCH   7  13
ATOM      8  C   UNL     1       7.735   6.660  18.334  0.00  0.00    +0.000 C 
ATOM      9  C   UNL     1       6.476   6.293  17.660  0.00  0.00    +0.000 A 
ATOM     10  O   UNL     1       6.327   6.756  16.388  0.00  0.00    +0.000 OA
ATOM     11  N   UNL     1       5.098   6.360  15.891  0.00  0.00    +0.000 NA
ATOM     12  C   UNL     1       4.535   5.662  16.876  0.00  0.00    +0.000 A 
ATOM     13  C   UNL     1       5.357   5.574  18.025  0.00  0.00    +0.000 A 
ENDBRANCH   7  13
ENDBRANCH   1   7
BRANCH   6  14
ATOM     14  C   UNL     1       3.317   2.093  18.533  0.00  0.00    +0.000 C 
BRANCH  14  15
ATOM     15  N   UNL     1       4.186   0.912  18.464  0.00  0.00    +0.000 NA
ATOM     16  H   UNL     1       5.090   1.238  18.111  0.00  0.00    +0.000 HD
ATOM     17  H   UNL     1       3.859   0.294  17.718  0.00  0.00    +0.000 HD
ENDBRANCH  14  15
ENDBRANCH   6  14
TORSDOF 4
ENDMDL
MODEL 7
REMARK VINA RESULT:      -6.2      1.294      1.861
REMARK  Name = 
REMARK  5 active torsions:
REMARK  status: ('A' for Active; 'I' for Inactive)
REMARK    1  A    between atoms: C_1  and  C_2
REMARK    2  A    between atoms: C_6  and  C_7
REMARK    3  A    between atoms: C_7  and  N_8
REMARK    4  A    between atoms: C_13  and  C_14
REMARK    5  A    between atoms: C_14  and  N_15
REMARK                            x       y       z     vdW  Elec       q    Type
REMARK                         _______ _______ _______ _____ _____    ______ ____
ROOT
ATOM      1  N   UNL     1       4.467   4.646  18.601  0.00  0.00    +0.000 NA
ATOM      2  C   UNL     1       3.470   5.706  18.363  0.00  0.00    +0.000 C 
ATOM      3  C   UNL     1       2.133   5.130  18.801  0.00  0.00    +0.000 C 
ATOM      4  F   UNL     1       1.576   4.417  17.785  0.00  0.00    +0.000 F 
ATOM      5  C   UNL     1       2.479   4.187  19.929  0.00  0.00    +0.000 C 
ATOM      6  C   UNL     1       3.928   3.759  19.667  0.00  0.00    +0.000 C 
ENDROOT
BRANCH   1   7
ATOM      7  C   UNL     1       5.785   5.171  18.989  0.00  0.00    +0.000 C 
BRANCH   7  13
ATOM      8  C   UNL     1       6.285   4.115  15.822  0.00  0.00    +0.000 C 
ATOM      9  C   UNL     1       6.721   5.311  16.566  0.00  0.00    +0.000 A 
ATOM     10  O   UNL     1       7.518   6.177  15.881  0.00  0.00    +0.000 OA
ATOM     11  N   UNL     1       7.870   7.233  16.704  0.00  0.00    +0.000 NA
ATOM     12  C   UNL     1       7.270   6.980  17.866  0.00  0.00    +0.000 A 
ATOM     13  C   UNL     1       6.520   5.781  17.847  0.00  0.00    +0.000 A 
ENDBRANCH   7  13
ENDBRANCH   1   7
BRANCH   6  14
ATOM     14  C   UNL     1       4.042   2.269  19.254  0.00  0.00    +0.000 C 
BRANCH  14  15
ATOM     15  N   UNL     1       5.106   1.542  19.956  0.00  0.00    +0.000 NA
ATOM     16  H   UNL     1       5.231   2.011  20.857  0.00  0.00    +0.000 HD
ATOM     17  H   UNL     1       5.998   1.710  19.486  0.00  0.00    +0.000 HD
ENDBRANCH  14  15
ENDBRANCH   6  14
TORSDOF 4
ENDMDL
MODEL 8
REMARK VINA RESULT:      -6.2      1.726      2.117
REMARK  Name = 
REMARK  5 active torsions:
REMARK  status: ('A' for Active; 'I' for Inactive)
REMARK    1  A    between atoms: C_1  and  C_2
REMARK    2  A    between atoms: C_6  and  C_7
REMARK    3  A    between atoms: C_7  and  N_8
REMARK    4  A    between atoms: C_13  and  C_14
REMARK    5  A    between atoms: C_14  and  N_15
REMARK                            x       y       z     vdW  Elec       q    Type
REMARK                         _______ _______ _______ _____ _____    ______ ____
ROOT
ATOM      1  N   UNL     1       3.382   4.719  19.242  0.00  0.00    +0.000 NA
ATOM      2  C   UNL     1       2.536   5.216  20.343  0.00  0.00    +0.000 C 
ATOM      3  C   UNL     1       1.636   4.055  20.737  0.00  0.00    +0.000 C 
ATOM      4  F   UNL     1       0.534   4.028  19.940  0.00  0.00    +0.000 F 
ATOM      5  C   UNL     1       2.468   2.824  20.466  0.00  0.00    +0.000 C 
ATOM      6  C   UNL     1       3.461   3.239  19.373  0.00  0.00    +0.000 C 
ENDROOT
BRANCH   1   7
ATOM      7  C   UNL     1       4.731   5.306  19.242  0.00  0.00    +0.000 C 
BRANCH   7  13
ATOM      8  C   UNL     1       7.594   4.623  17.588  0.00  0.00    +0.000 C 
ATOM      9  C   UNL     1       6.386   5.392  17.236  0.00  0.00    +0.000 A 
ATOM     10  O   UNL     1       6.402   5.995  16.016  0.00  0.00    +0.000 OA
ATOM     11  N   UNL     1       5.225   6.698  15.830  0.00  0.00    +0.000 NA
ATOM     12  C   UNL     1       4.523   6.498  16.945  0.00  0.00    +0.000 A 
ATOM     13  C   UNL     1       5.197   5.673  17.876  0.00  0.00    +0.000 A 
ENDBRANCH   7  13
ENDBRANCH   1   7
BRANCH   6  14
ATOM     14  C   UNL     1       3.173   2.549  18.016  0.00  0.00    +0.000 C 
BRANCH  14  15
ATOM     15  N   UNL     1       2.206   3.272  17.180  0.00  0.00    +0.000 NA
ATOM     16  H   UNL     1       1.277   2.956  17.473  0.00  0.00    +0.000 HD
ATOM     17  H   UNL     1       2.270   2.932  16.218  0.00  0.00    +0.000 HD
ENDBRANCH  14  15
ENDBRANCH   6  14
TORSDOF 4
ENDMDL
MODEL 9
REMARK VINA RESULT:      -6.1      2.936      5.200
REMARK  Name = 
REMARK  5 active torsions:
REMARK  status: ('A' for Active; 'I' for Inactive)
REMARK    1  A    between atoms: C_1  and  C_2
REMARK    2  A    between atoms: C_6  and  C_7
REMARK    3  A    between atoms: C_7  and  N_8
REMARK    4  A    between atoms: C_13  and  C_14
REMARK    5  A    between atoms: C_14  and  N_15
REMARK                            x       y       z     vdW  Elec       q    Type
REMARK                         _______ _______ _______ _____ _____    ______ ____
ROOT
ATOM      1  N   UNL     1       5.231   5.171  17.975  0.00  0.00    +0.000 NA
ATOM      2  C   UNL     1       6.186   5.344  19.085  0.00  0.00    +0.000 C 
ATOM      3  C   UNL     1       7.538   5.601  18.439  0.00  0.00    +0.000 C 
ATOM      4  F   UNL     1       8.144   4.421  18.140  0.00  0.00    +0.000 F 
ATOM      5  C   UNL     1       7.211   6.324  17.154  0.00  0.00    +0.000 C 
ATOM      6  C   UNL     1       5.787   5.883  16.793  0.00  0.00    +0.000 C 
ENDROOT
BRANCH   1   7
ATOM      7  C   UNL     1       3.884   5.672  18.288  0.00  0.00    +0.000 C 
BRANCH   7  13
ATOM      8  C   UNL     1       1.522   4.901  20.574  0.00  0.00    +0.000 C 
ATOM      9  C   UNL     1       1.922   4.290  19.293  0.00  0.00    +0.000 A 
ATOM     10  O   UNL     1       1.247   3.162  18.938  0.00  0.00    +0.000 OA
ATOM     11  N   UNL     1       1.739   2.686  17.736  0.00  0.00    +0.000 NA
ATOM     12  C   UNL     1       2.699   3.543  17.391  0.00  0.00    +0.000 A 
ATOM     13  C   UNL     1       2.863   4.589  18.330  0.00  0.00    +0.000 A 
ENDBRANCH   7  13
ENDBRANCH   1   7
BRANCH   6  14
ATOM     14  C   UNL     1       5.746   4.980  15.535  0.00  0.00    +0.000 C 
BRANCH  14  15
ATOM     15  N   UNL     1       5.993   3.561  15.819  0.00  0.00    +0.000 NA
ATOM     16  H   UNL     1       5.885   3.065  14.930  0.00  0.00    +0.000 HD
ATOM     17  H   UNL     1       5.224   3.190  16.381  0.00  0.00    +0.000 HD
ENDBRANCH  14  15
ENDBRANCH   6  14
TORSDOF 4
ENDMDL
