MODEL 1
REMARK VINA RESULT:      -6.9      0.000      0.000
REMARK  Name = 
REMARK  7 active torsions:
REMARK  status: ('A' for Active; 'I' for Inactive)
REMARK    1  A    between atoms: C_1  and  N_2
REMARK    2  A    between atoms: N_2  and  C_3
REMARK    3  A    between atoms: N_2  and  C_12
REMARK    4  A    between atoms: C_3  and  C_4
REMARK    5  A    between atoms: N_6  and  C_7
REMARK    6  A    between atoms: C_7  and  C_8
REMARK    7  A    between atoms: C_12  and  C_13
REMARK                            x       y       z     vdW  Elec       q    Type
REMARK                         _______ _______ _______ _____ _____    ______ ____
ROOT
ATOM      1  C   UNL     1       7.936   6.230  18.588  0.00  0.00    +0.000 C 
ATOM      2  N   UNL     1       6.803   5.565  17.934  0.00  0.00    +0.000 NA
ENDROOT
BRANCH   2   3
ATOM      3  C   UNL     1       7.285   4.578  16.939  0.00  0.00    +0.000 C 
BRANCH   3   4
ATOM      4  C   UNL     1       6.917   4.911  15.493  0.00  0.00    +0.000 C 
ATOM      5  O   UNL     1       7.609   5.641  14.779  0.00  0.00    +0.000 OA
ATOM      6  N   UNL     1       5.748   4.347  15.038  0.00  0.00    +0.000 N 
ATOM      7  H   UNL     1       5.328   3.601  15.584  0.00  0.00    +0.000 HD
BRANCH   6   8
ATOM      8  C   UNL     1       5.339   4.533  13.649  0.00  0.00    +0.000 C 
BRANCH   8   9
ATOM      9  C   UNL     1       5.951   3.580  12.611  0.00  0.00    +0.000 C 
ATOM     10  F   UNL     1       6.429   2.442  13.156  0.00  0.00    +0.000 F 
ATOM     11  F   UNL     1       5.002   3.213  11.710  0.00  0.00    +0.000 F 
ATOM     12  F   UNL     1       6.953   4.163  11.916  0.00  0.00    +0.000 F 
ENDBRANCH   8   9
ENDBRANCH   6   8
ENDBRANCH   3   4
ENDBRANCH   2   3
BRANCH   2  13
ATOM     13  C   UNL     1       5.895   5.012  18.961  0.00  0.00    +0.000 C 
BRANCH  13  14
ATOM     14  C   UNL     1       4.414   5.118  18.640  0.00  0.00    +0.000 A 
ATOM     15  C   UNL     1       3.804   6.365  18.417  0.00  0.00    +0.000 A 
ATOM     16  C   UNL     1       2.464   6.449  18.036  0.00  0.00    +0.000 A 
ATOM     17  C   UNL     1       1.699   5.291  17.912  0.00  0.00    +0.000 A 
ATOM     18  C   UNL     1       2.268   4.052  18.193  0.00  0.00    +0.000 A 
ATOM     19  C   UNL     1       3.619   3.963  18.555  0.00  0.00    +0.000 A 
ATOM     20  O   UNL     1       4.223   2.760  18.823  0.00  0.00    +0.000 OA
ATOM     21  C   UNL     1       3.492   1.665  18.269  0.00  0.00    +0.000 C 
ATOM     22  C   UNL     1       2.021   1.776  18.620  0.00  0.00    +0.000 C 
ATOM     23  O   UNL     1       1.448   2.961  18.053  0.00  0.00    +0.000 OA
ENDBRANCH  13  14
ENDBRANCH   2  13
TORSDOF 6
ENDMDL
MODEL 2
REMARK VINA RESULT:      -6.9      5.497      7.545
REMARK  Name = 
REMARK  7 active torsions:
REMARK  status: ('A' for Active; 'I' for Inactive)
REMARK    1  A    between atoms: C_1  and  N_2
REMARK    2  A    between atoms: N_2  and  C_3
REMARK    3  A    between atoms: N_2  and  C_12
REMARK    4  A    between atoms: C_3  and  C_4
REMARK    5  A    between atoms: N_6  and  C_7
REMARK    6  A    between atoms: C_7  and  C_8
REMARK    7  A    between atoms: C_12  and  C_13
REMARK                            x       y       z     vdW  Elec       q    Type
REMARK                         _______ _______ _______ _____ _____    ______ ____
ROOT
ATOM      1  C   UNL     1       1.413   3.750  18.458  0.00  0.00    +0.000 C 
ATOM      2  N   UNL     1       2.628   4.555  18.630  0.00  0.00    +0.000 NA
ENDROOT
BRANCH   2   3
ATOM      3  C   UNL     1       2.610   5.249  19.939  0.00  0.00    +0.000 C 
BRANCH   3   4
ATOM      4  C   UNL     1       2.271   6.738  19.859  0.00  0.00    +0.000 C 
ATOM      5  O   UNL     1       2.520   7.426  18.866  0.00  0.00    +0.000 OA
ATOM      6  N   UNL     1       1.677   7.267  20.980  0.00  0.00    +0.000 N 
ATOM      7  H   UNL     1       1.310   6.628  21.679  0.00  0.00    +0.000 HD
BRANCH   6   8
ATOM      8  C   UNL     1       1.239   8.660  20.987  0.00  0.00    +0.000 C 
BRANCH   8   9
ATOM      9  C   UNL     1      -0.021   8.989  21.801  0.00  0.00    +0.000 C 
ATOM     10  F   UNL     1      -1.004   8.078  21.644  0.00  0.00    +0.000 F 
ATOM     11  F   UNL     1       0.282   9.010  23.126  0.00  0.00    +0.000 F 
ATOM     12  F   UNL     1      -0.523  10.204  21.490  0.00  0.00    +0.000 F 
ENDBRANCH   8   9
ENDBRANCH   6   8
ENDBRANCH   3   4
ENDBRANCH   2   3
BRANCH   2  13
ATOM     13  C   UNL     1       3.818   3.710  18.396  0.00  0.00    +0.000 C 
BRANCH  13  14
ATOM     14  C   UNL     1       5.123   4.466  18.215  0.00  0.00    +0.000 A 
ATOM     15  C   UNL     1       5.774   5.067  19.307  0.00  0.00    +0.000 A 
ATOM     16  C   UNL     1       7.016   5.683  19.150  0.00  0.00    +0.000 A 
ATOM     17  C   UNL     1       7.609   5.748  17.891  0.00  0.00    +0.000 A 
ATOM     18  C   UNL     1       6.949   5.218  16.785  0.00  0.00    +0.000 A 
ATOM     19  C   UNL     1       5.711   4.580  16.944  0.00  0.00    +0.000 A 
ATOM     20  O   UNL     1       5.035   4.028  15.884  0.00  0.00    +0.000 OA
ATOM     21  C   UNL     1       5.899   3.786  14.774  0.00  0.00    +0.000 C 
ATOM     22  C   UNL     1       6.740   5.013  14.476  0.00  0.00    +0.000 C 
ATOM     23  O   UNL     1       7.596   5.327  15.580  0.00  0.00    +0.000 OA
ENDBRANCH  13  14
ENDBRANCH   2  13
TORSDOF 6
ENDMDL
MODEL 3
REMARK VINA RESULT:      -6.8      3.012      5.658
REMARK  Name = 
REMARK  7 active torsions:
REMARK  status: ('A' for Active; 'I' for Inactive)
REMARK    1  A    between atoms: C_1  and  N_2
REMARK    2  A    between atoms: N_2  and  C_3
REMARK    3  A    between atoms: N_2  and  C_12
REMARK    4  A    between atoms: C_3  and  C_4
REMARK    5  A    between atoms: N_6  and  C_7
REMARK    6  A    between atoms: C_7  and  C_8
REMARK    7  A    between atoms: C_12  and  C_13
REMARK                            x       y       z     vdW  Elec       q    Type
REMARK                         _______ _______ _______ _____ _____    ______ ____
ROOT
ATOM      1  C   UNL     1       2.315   7.906  18.579  0.00  0.00    +0.000 C 
ATOM      2  N   UNL     1       2.988   6.703  19.080  0.00  0.00    +0.000 NA
ENDROOT
BRANCH   2   3
ATOM      3  C   UNL     1       2.093   5.945  19.986  0.00  0.00    +0.000 C 
BRANCH   3   4
ATOM      4  C   UNL     1       1.938   4.467  19.628  0.00  0.00    +0.000 C 
ATOM      5  O   UNL     1       0.987   4.036  18.971  0.00  0.00    +0.000 OA
ATOM      6  N   UNL     1       2.929   3.639  20.101  0.00  0.00    +0.000 N 
ATOM      7  H   UNL     1       3.783   4.062  20.453  0.00  0.00    +0.000 HD
BRANCH   6   8
ATOM      8  C   UNL     1       2.924   2.221  19.754  0.00  0.00    +0.000 C 
BRANCH   8   9
ATOM      9  C   UNL     1       3.452   1.844  18.362  0.00  0.00    +0.000 C 
ATOM     10  F   UNL     1       4.463   2.637  17.948  0.00  0.00    +0.000 F 
ATOM     11  F   UNL     1       3.935   0.574  18.382  0.00  0.00    +0.000 F 
ATOM     12  F   UNL     1       2.480   1.884  17.423  0.00  0.00    +0.000 F 
ENDBRANCH   8   9
ENDBRANCH   6   8
ENDBRANCH   3   4
ENDBRANCH   2   3
BRANCH   2  13
ATOM     13  C   UNL     1       3.516   5.923  17.941  0.00  0.00    +0.000 C 
BRANCH  13  14
ATOM     14  C   UNL     1       5.010   5.648  17.981  0.00  0.00    +0.000 A 
ATOM     15  C   UNL     1       5.740   5.768  19.177  0.00  0.00    +0.000 A 
ATOM     16  C   UNL     1       7.093   5.429  19.227  0.00  0.00    +0.000 A 
ATOM     17  C   UNL     1       7.750   5.005  18.073  0.00  0.00    +0.000 A 
ATOM     18  C   UNL     1       7.060   4.944  16.865  0.00  0.00    +0.000 A 
ATOM     19  C   UNL     1       5.696   5.264  16.817  0.00  0.00    +0.000 A 
ATOM     20  O   UNL     1       4.974   5.199  15.651  0.00  0.00    +0.000 OA
ATOM     21  C   UNL     1       5.616   4.378  14.675  0.00  0.00    +0.000 C 
ATOM     22  C   UNL     1       7.080   4.752  14.545  0.00  0.00    +0.000 C 
ATOM     23  O   UNL     1       7.778   4.523  15.775  0.00  0.00    +0.000 OA
ENDBRANCH  13  14
ENDBRANCH   2  13
TORSDOF 6
ENDMDL
MODEL 4
REMARK VINA RESULT:      -6.8      5.162      7.196
REMARK  Name = 
REMARK  7 active torsions:
REMARK  status: ('A' for Active; 'I' for Inactive)
REMARK    1  A    between atoms: C_1  and  N_2
REMARK    2  A    between atoms: N_2  and  C_3
REMARK    3  A    between atoms: N_2  and  C_12
REMARK    4  A    between atoms: C_3  and  C_4
REMARK    5  A    between atoms: N_6  and  C_7
REMARK    6  A    between atoms: C_7  and  C_8
REMARK    7  A    between atoms: C_12  and  C_13
REMARK                            x       y       z     vdW  Elec       q    Type
REMARK                         _______ _______ _______ _____ _____    ______ ____
ROOT
ATOM      1  C   UNL     1       2.617   2.523  18.406  0.00  0.00    +0.000 C 
ATOM      2  N   UNL     1       3.334   3.755  18.754  0.00  0.00    +0.000 NA
ENDROOT
BRANCH   2   3
ATOM      3  C   UNL     1       2.651   4.456  19.867  0.00  0.00    +0.000 C 
BRANCH   3   4
ATOM      4  C   UNL     1       2.508   5.965  19.668  0.00  0.00    +0.000 C 
ATOM      5  O   UNL     1       2.939   6.550  18.671  0.00  0.00    +0.000 OA
ATOM      6  N   UNL     1       1.873   6.636  20.686  0.00  0.00    +0.000 N 
ATOM      7  H   UNL     1       1.361   6.093  21.375  0.00  0.00    +0.000 HD
BRANCH   6   8
ATOM      8  C   UNL     1       1.611   8.067  20.568  0.00  0.00    +0.000 C 
BRANCH   8   9
ATOM      9  C   UNL     1       0.495   8.645  21.450  0.00  0.00    +0.000 C 
ATOM     10  F   UNL     1       0.900   8.908  22.711  0.00  0.00    +0.000 F 
ATOM     11  F   UNL     1       0.059   9.821  20.928  0.00  0.00    +0.000 F 
ATOM     12  F   UNL     1      -0.575   7.821  21.520  0.00  0.00    +0.000 F 
ENDBRANCH   8   9
ENDBRANCH   6   8
ENDBRANCH   3   4
ENDBRANCH   2   3
BRANCH   2  13
ATOM     13  C   UNL     1       4.757   3.445  19.002  0.00  0.00    +0.000 C 
BRANCH  13  14
ATOM     14  C   UNL     1       5.743   4.484  18.495  0.00  0.00    +0.000 A 
ATOM     15  C   UNL     1       6.399   5.359  19.380  0.00  0.00    +0.000 A 
ATOM     16  C   UNL     1       7.369   6.250  18.918  0.00  0.00    +0.000 A 
ATOM     17  C   UNL     1       7.669   6.314  17.559  0.00  0.00    +0.000 A 
ATOM     18  C   UNL     1       6.982   5.503  16.659  0.00  0.00    +0.000 A 
ATOM     19  C   UNL     1       6.023   4.592  17.123  0.00  0.00    +0.000 A 
ATOM     20  O   UNL     1       5.337   3.762  16.272  0.00  0.00    +0.000 OA
ATOM     21  C   UNL     1       6.006   3.618  15.018  0.00  0.00    +0.000 C 
ATOM     22  C   UNL     1       6.401   4.975  14.467  0.00  0.00    +0.000 C 
ATOM     23  O   UNL     1       7.331   5.629  15.338  0.00  0.00    +0.000 OA
ENDBRANCH  13  14
ENDBRANCH   2  13
TORSDOF 6
ENDMDL
MODEL 5
REMARK VINA RESULT:      -6.8      1.306      1.725
REMARK  Name = 
REMARK  7 active torsions:
REMARK  status: ('A' for Active; 'I' for Inactive)
REMARK    1  A    between atoms: C_1  and  N_2
REMARK    2  A    between atoms: N_2  and  C_3
REMARK    3  A    between atoms: N_2  and  C_12
REMARK    4  A    between atoms: C_3  and  C_4
REMARK    5  A    between atoms: N_6  and  C_7
REMARK    6  A    between atoms: C_7  and  C_8
REMARK    7  A    between atoms: C_12  and  C_13
REMARK                            x       y       z     vdW  Elec       q    Type
REMARK                         _______ _______ _______ _____ _____    ______ ____
ROOT
ATOM      1  C   UNL     1       7.835   6.576  18.639  0.00  0.00    +0.000 C 
ATOM      2  N   UNL     1       6.792   5.715  18.070  0.00  0.00    +0.000 NA
ENDROOT
BRANCH   2   3
ATOM      3  C   UNL     1       7.399   4.581  17.334  0.00  0.00    +0.000 C 
BRANCH   3   4
ATOM      4  C   UNL     1       6.828   4.360  15.933  0.00  0.00    +0.000 C 
ATOM      5  O   UNL     1       5.957   3.521  15.693  0.00  0.00    +0.000 OA
ATOM      6  N   UNL     1       7.362   5.156  14.947  0.00  0.00    +0.000 N 
ATOM      7  H   UNL     1       7.917   5.960  15.224  0.00  0.00    +0.000 HD
BRANCH   6   8
ATOM      8  C   UNL     1       6.838   5.086  13.587  0.00  0.00    +0.000 C 
BRANCH   8   9
ATOM      9  C   UNL     1       7.843   5.291  12.443  0.00  0.00    +0.000 C 
ATOM     10  F   UNL     1       7.684   6.470  11.806  0.00  0.00    +0.000 F 
ATOM     11  F   UNL     1       9.108   5.282  12.937  0.00  0.00    +0.000 F 
ATOM     12  F   UNL     1       7.770   4.305  11.521  0.00  0.00    +0.000 F 
ENDBRANCH   8   9
ENDBRANCH   6   8
ENDBRANCH   3   4
ENDBRANCH   2   3
BRANCH   2  13
ATOM     13  C   UNL     1       5.841   5.323  19.131  0.00  0.00    +0.000 C 
BRANCH  13  14
ATOM     14  C   UNL     1       4.375   5.378  18.738  0.00  0.00    +0.000 A 
ATOM     15  C   UNL     1       3.702   6.605  18.603  0.00  0.00    +0.000 A 
ATOM     16  C   UNL     1       2.380   6.651  18.156  0.00  0.00    +0.000 A 
ATOM     17  C   UNL     1       1.695   5.471  17.879  0.00  0.00    +0.000 A 
ATOM     18  C   UNL     1       2.323   4.243  18.071  0.00  0.00    +0.000 A 
ATOM     19  C   UNL     1       3.656   4.194  18.499  0.00  0.00    +0.000 A 
ATOM     20  O   UNL     1       4.319   3.006  18.684  0.00  0.00    +0.000 OA
ATOM     21  C   UNL     1       3.685   1.933  17.987  0.00  0.00    +0.000 C 
ATOM     22  C   UNL     1       2.194   1.926  18.263  0.00  0.00    +0.000 C 
ATOM     23  O   UNL     1       1.579   3.127  17.781  0.00  0.00    +0.000 OA
ENDBRANCH  13  14
ENDBRANCH   2  13
TORSDOF 6
ENDMDL
MODEL 6
REMARK VINA RESULT:      -6.7      1.567      1.774
REMARK  Name = 
REMARK  7 active torsions:
REMARK  status: ('A' for Active; 'I' for Inactive)
REMARK    1  A    between atoms: C_1  and  N_2
REMARK    2  A    between atoms: N_2  and  C_3
REMARK    3  A    between atoms: N_2  and  C_12
REMARK    4  A    between atoms: C_3  and  C_4
REMARK    5  A    between atoms: N_6  and  C_7
REMARK    6  A    between atoms: C_7  and  C_8
REMARK    7  A    between atoms: C_12  and  C_13
REMARK                            x       y       z     vdW  Elec       q    Type
REMARK                         _______ _______ _______ _____ _____    ______ ____
ROOT
ATOM      1  C   UNL     1       6.266   5.085  19.377  0.00  0.00    +0.000 C 
ATOM      2  N   UNL     1       5.852   6.205  18.526  0.00  0.00    +0.000 NA
ENDROOT
BRANCH   2   3
ATOM      3  C   UNL     1       6.949   6.595  17.609  0.00  0.00    +0.000 C 
BRANCH   3   4
ATOM      4  C   UNL     1       7.328   5.522  16.587  0.00  0.00    +0.000 C 
ATOM      5  O   UNL     1       7.902   4.476  16.900  0.00  0.00    +0.000 OA
ATOM      6  N   UNL     1       6.995   5.807  15.284  0.00  0.00    +0.000 N 
ATOM      7  H   UNL     1       6.350   6.571  15.107  0.00  0.00    +0.000 HD
BRANCH   6   8
ATOM      8  C   UNL     1       7.238   4.821  14.235  0.00  0.00    +0.000 C 
BRANCH   8   9
ATOM      9  C   UNL     1       6.109   3.820  13.946  0.00  0.00    +0.000 C 
ATOM     10  F   UNL     1       5.918   2.936  14.948  0.00  0.00    +0.000 F 
ATOM     11  F   UNL     1       4.936   4.486  13.784  0.00  0.00    +0.000 F 
ATOM     12  F   UNL     1       6.329   3.122  12.810  0.00  0.00    +0.000 F 
ENDBRANCH   8   9
ENDBRANCH   6   8
ENDBRANCH   3   4
ENDBRANCH   2   3
BRANCH   2  13
ATOM     13  C   UNL     1       4.578   5.871  17.855  0.00  0.00    +0.000 C 
BRANCH  13  14
ATOM     14  C   UNL     1       3.427   5.527  18.786  0.00  0.00    +0.000 A 
ATOM     15  C   UNL     1       2.883   6.488  19.658  0.00  0.00    +0.000 A 
ATOM     16  C   UNL     1       1.770   6.191  20.445  0.00  0.00    +0.000 A 
ATOM     17  C   UNL     1       1.208   4.917  20.409  0.00  0.00    +0.000 A 
ATOM     18  C   UNL     1       1.774   3.933  19.602  0.00  0.00    +0.000 A 
ATOM     19  C   UNL     1       2.878   4.234  18.794  0.00  0.00    +0.000 A 
ATOM     20  O   UNL     1       3.455   3.299  17.971  0.00  0.00    +0.000 OA
ATOM     21  C   UNL     1       2.571   2.209  17.706  0.00  0.00    +0.000 C 
ATOM     22  C   UNL     1       1.962   1.693  18.996  0.00  0.00    +0.000 C 
ATOM     23  O   UNL     1       1.166   2.703  19.626  0.00  0.00    +0.000 OA
ENDBRANCH  13  14
ENDBRANCH   2  13
TORSDOF 6
ENDMDL
MODEL 7
REMARK VINA RESULT:      -6.7      1.119      1.175
REMARK  Name = 
REMARK  7 active torsions:
REMARK  status: ('A' for Active; 'I' for Inactive)
REMARK    1  A    between atoms: C_1  and  N_2
REMARK    2  A    between atoms: N_2  and  C_3
REMARK    3  A    between atoms: N_2  and  C_12
REMARK    4  A    between atoms: C_3  and  C_4
REMARK    5  A    between atoms: N_6  and  C_7
REMARK    6  A    between atoms: C_7  and  C_8
REMARK    7  A    between atoms: C_12  and  C_13
REMARK                            x       y       z     vdW  Elec       q    Type
REMARK                         _______ _______ _______ _____ _____    ______ ____
ROOT
ATOM      1  C   UNL     1       7.881   5.615  18.938  0.00  0.00    +0.000 C 
ATOM      2  N   UNL     1       6.843   5.140  18.015  0.00  0.00    +0.000 NA
ENDROOT
BRANCH   2   3
ATOM      3  C   UNL     1       7.451   4.388  16.893  0.00  0.00    +0.000 C 
BRANCH   3   4
ATOM      4  C   UNL     1       6.945   4.800  15.510  0.00  0.00    +0.000 C 
ATOM      5  O   UNL     1       7.458   5.712  14.857  0.00  0.00    +0.000 OA
ATOM      6  N   UNL     1       5.864   4.091  15.043  0.00  0.00    +0.000 N 
ATOM      7  H   UNL     1       5.611   3.229  15.517  0.00  0.00    +0.000 HD
BRANCH   6   8
ATOM      8  C   UNL     1       5.345   4.346  13.703  0.00  0.00    +0.000 C 
BRANCH   8   9
ATOM      9  C   UNL     1       5.988   3.563  12.548  0.00  0.00    +0.000 C 
ATOM     10  F   UNL     1       6.355   2.312  12.898  0.00  0.00    +0.000 F 
ATOM     11  F   UNL     1       5.100   3.438  11.528  0.00  0.00    +0.000 F 
ATOM     12  F   UNL     1       7.076   4.194  12.052  0.00  0.00    +0.000 F 
ENDBRANCH   8   9
ENDBRANCH   6   8
ENDBRANCH   3   4
ENDBRANCH   2   3
BRANCH   2  13
ATOM     13  C   UNL     1       5.814   4.396  18.771  0.00  0.00    +0.000 C 
BRANCH  13  14
ATOM     14  C   UNL     1       4.436   5.036  18.791  0.00  0.00    +0.000 A 
ATOM     15  C   UNL     1       4.189   6.254  18.133  0.00  0.00    +0.000 A 
ATOM     16  C   UNL     1       2.903   6.792  18.080  0.00  0.00    +0.000 A 
ATOM     17  C   UNL     1       1.848   6.145  18.722  0.00  0.00    +0.000 A 
ATOM     18  C   UNL     1       2.086   4.973  19.435  0.00  0.00    +0.000 A 
ATOM     19  C   UNL     1       3.373   4.420  19.472  0.00  0.00    +0.000 A 
ATOM     20  O   UNL     1       3.646   3.257  20.148  0.00  0.00    +0.000 OA
ATOM     21  C   UNL     1       2.464   2.494  20.389  0.00  0.00    +0.000 C 
ATOM     22  C   UNL     1       1.373   3.373  20.969  0.00  0.00    +0.000 C 
ATOM     23  O   UNL     1       0.998   4.400  20.043  0.00  0.00    +0.000 OA
ENDBRANCH  13  14
ENDBRANCH   2  13
TORSDOF 6
ENDMDL
MODEL 8
REMARK VINA RESULT:      -6.6      4.289      6.549
REMARK  Name = 
REMARK  7 active torsions:
REMARK  status: ('A' for Active; 'I' for Inactive)
REMARK    1  A    between atoms: C_1  and  N_2
REMARK    2  A    between atoms: N_2  and  C_3
REMARK    3  A    between atoms: N_2  and  C_12
REMARK    4  A    between atoms: C_3  and  C_4
REMARK    5  A    between atoms: N_6  and  C_7
REMARK    6  A    between atoms: C_7  and  C_8
REMARK    7  A    between atoms: C_12  and  C_13
REMARK                            x       y       z     vdW  Elec       q    Type
REMARK                         _______ _______ _______ _____ _____    ______ ____
ROOT
ATOM      1  C   UNL     1       2.400   7.756  18.611  0.00  0.00    +0.000 C 
ATOM      2  N   UNL     1       3.263   6.665  18.145  0.00  0.00    +0.000 NA
ENDROOT
BRANCH   2   3
ATOM      3  C   UNL     1       2.447   5.506  17.714  0.00  0.00    +0.000 C 
BRANCH   3   4
ATOM      4  C   UNL     1       2.646   4.246  18.558  0.00  0.00    +0.000 C 
ATOM      5  O   UNL     1       3.739   3.686  18.673  0.00  0.00    +0.000 OA
ATOM      6  N   UNL     1       1.515   3.767  19.176  0.00  0.00    +0.000 N 
ATOM      7  H   UNL     1       0.697   4.368  19.219  0.00  0.00    +0.000 HD
BRANCH   6   8
ATOM      8  C   UNL     1       1.602   2.615  20.069  0.00  0.00    +0.000 C 
BRANCH   8   9
ATOM      9  C   UNL     1       1.970   2.897  21.533  0.00  0.00    +0.000 C 
ATOM     10  F   UNL     1       2.171   4.208  21.784  0.00  0.00    +0.000 F 
ATOM     11  F   UNL     1       0.959   2.495  22.346  0.00  0.00    +0.000 F 
ATOM     12  F   UNL     1       3.079   2.225  21.916  0.00  0.00    +0.000 F 
ENDBRANCH   8   9
ENDBRANCH   6   8
ENDBRANCH   3   4
ENDBRANCH   2   3
BRANCH   2  13
ATOM     13  C   UNL     1       4.196   7.178  17.120  0.00  0.00    +0.000 C 
BRANCH  13  14
ATOM     14  C   UNL     1       5.124   6.139  16.512  0.00  0.00    +0.000 A 
ATOM     15  C   UNL     1       4.904   5.634  15.218  0.00  0.00    +0.000 A 
ATOM     16  C   UNL     1       5.808   4.748  14.632  0.00  0.00    +0.000 A 
ATOM     17  C   UNL     1       6.925   4.317  15.344  0.00  0.00    +0.000 A 
ATOM     18  C   UNL     1       7.125   4.754  16.651  0.00  0.00    +0.000 A 
ATOM     19  C   UNL     1       6.229   5.661  17.235  0.00  0.00    +0.000 A 
ATOM     20  O   UNL     1       6.399   6.130  18.513  0.00  0.00    +0.000 OA
ATOM     21  C   UNL     1       7.743   5.965  18.965  0.00  0.00    +0.000 C 
ATOM     22  C   UNL     1       8.225   4.552  18.693  0.00  0.00    +0.000 C 
ATOM     23  O   UNL     1       8.244   4.280  17.287  0.00  0.00    +0.000 OA
ENDBRANCH  13  14
ENDBRANCH   2  13
TORSDOF 6
ENDMDL
MODEL 9
REMARK VINA RESULT:      -6.6      1.763      2.616
REMARK  Name = 
REMARK  7 active torsions:
REMARK  status: ('A' for Active; 'I' for Inactive)
REMARK    1  A    between atoms: C_1  and  N_2
REMARK    2  A    between atoms: N_2  and  C_3
REMARK    3  A    between atoms: N_2  and  C_12
REMARK    4  A    between atoms: C_3  and  C_4
REMARK    5  A    between atoms: N_6  and  C_7
REMARK    6  A    between atoms: C_7  and  C_8
REMARK    7  A    between atoms: C_12  and  C_13
REMARK                            x       y       z     vdW  Elec       q    Type
REMARK                         _______ _______ _______ _____ _____    ______ ____
ROOT
ATOM      1  C   UNL     1       5.678   6.334  17.113  0.00  0.00    +0.000 C 
ATOM      2  N   UNL     1       5.638   4.882  16.908  0.00  0.00    +0.000 NA
ENDROOT
BRANCH   2   3
ATOM      3  C   UNL     1       6.868   4.420  16.223  0.00  0.00    +0.000 C 
BRANCH   3   4
ATOM      4  C   UNL     1       6.837   4.572  14.702  0.00  0.00    +0.000 C 
ATOM      5  O   UNL     1       7.211   5.597  14.126  0.00  0.00    +0.000 OA
ATOM      6  N   UNL     1       6.350   3.488  14.011  0.00  0.00    +0.000 N 
ATOM      7  H   UNL     1       6.250   2.606  14.505  0.00  0.00    +0.000 HD
BRANCH   6   8
ATOM      8  C   UNL     1       6.347   3.492  12.551  0.00  0.00    +0.000 C 
BRANCH   8   9
ATOM      9  C   UNL     1       5.010   3.191  11.858  0.00  0.00    +0.000 C 
ATOM     10  F   UNL     1       4.758   4.013  10.817  0.00  0.00    +0.000 F 
ATOM     11  F   UNL     1       5.024   1.926  11.362  0.00  0.00    +0.000 F 
ATOM     12  F   UNL     1       3.966   3.269  12.714  0.00  0.00    +0.000 F 
ENDBRANCH   8   9
ENDBRANCH   6   8
ENDBRANCH   3   4
ENDBRANCH   2   3
BRANCH   2  13
ATOM     13  C   UNL     1       5.358   4.209  18.194  0.00  0.00    +0.000 C 
BRANCH  13  14
ATOM     14  C   UNL     1       3.984   3.570  18.304  0.00  0.00    +0.000 A 
ATOM     15  C   UNL     1       3.660   2.410  17.579  0.00  0.00    +0.000 A 
ATOM     16  C   UNL     1       2.427   1.778  17.752  0.00  0.00    +0.000 A 
ATOM     17  C   UNL     1       1.482   2.318  18.621  0.00  0.00    +0.000 A 
ATOM     18  C   UNL     1       1.759   3.503  19.298  0.00  0.00    +0.000 A 
ATOM     19  C   UNL     1       3.004   4.128  19.142  0.00  0.00    +0.000 A 
ATOM     20  O   UNL     1       3.325   5.287  19.804  0.00  0.00    +0.000 OA
ATOM     21  C   UNL     1       2.485   5.498  20.940  0.00  0.00    +0.000 C 
ATOM     22  C   UNL     1       1.027   5.315  20.564  0.00  0.00    +0.000 C 
ATOM     23  O   UNL     1       0.775   3.973  20.131  0.00  0.00    +0.000 OA
ENDBRANCH  13  14
ENDBRANCH   2  13
TORSDOF 6
ENDMDL
