MODEL 1
REMARK VINA RESULT:      -8.3      0.000      0.000
REMARK  Name = 
REMARK  8 active torsions:
REMARK  status: ('A' for Active; 'I' for Inactive)
REMARK    1  A    between atoms: C_1  and  O_2
REMARK    2  A    between atoms: O_2  and  C_3
REMARK    3  A    between atoms: C_6  and  C_7
REMARK    4  A    between atoms: C_7  and  C_8
REMARK    5  A    between atoms: C_13  and  C_14
REMARK    6  A    between atoms: C_21  and  C_22
REMARK    7  A    between atoms: C_25  and  O_26
REMARK    8  A    between atoms: O_26  and  C_27
REMARK                            x       y       z     vdW  Elec       q    Type
REMARK                         _______ _______ _______ _____ _____    ______ ____
ROOT
ATOM      1  C   UNL     1      -2.614  10.197  17.037  0.00  0.00    +0.000 A 
ATOM      2  C   UNL     1      -1.257  10.209  17.375  0.00  0.00    +0.000 A 
ATOM      3  C   UNL     1      -0.765  10.901  18.501  0.00  0.00    +0.000 A 
ATOM      4  C   UNL     1       0.600  10.868  18.876  0.00  0.00    +0.000 A 
ATOM      5  C   UNL     1       0.973  11.609  19.996  0.00  0.00    +0.000 A 
ATOM      6  N   UNL     1       0.123  12.310  20.768  0.00  0.00    +0.000 NA
ATOM      7  C   UNL     1      -1.188  12.301  20.426  0.00  0.00    +0.000 A 
ATOM      8  C   UNL     1      -2.096  13.025  21.379  0.00  0.00    +0.000 C 
ATOM      9  C   UNL     1      -1.687  11.625  19.289  0.00  0.00    +0.000 A 
ATOM     10  C   UNL     1      -3.052  11.643  18.911  0.00  0.00    +0.000 A 
ATOM     11  C   UNL     1      -3.522  10.944  17.791  0.00  0.00    +0.000 A 
ENDROOT
BRANCH   1  13
ATOM     12  C   UNL     1      -2.921  10.138  14.692  0.00  0.00    +0.000 C 
ATOM     13  O   UNL     1      -3.096   9.499  15.954  0.00  0.00    +0.000 OA
ENDBRANCH   1  13
BRANCH  11  14
ATOM     14  O   UNL     1      -4.831  10.930  17.380  0.00  0.00    +0.000 OA
ATOM     15  C   UNL     1      -5.587  12.119  17.557  0.00  0.00    +0.000 C 
ENDBRANCH  11  14
BRANCH   4  16
ATOM     16  C   UNL     1       1.651  10.030  18.182  0.00  0.00    +0.000 C 
BRANCH  16  17
ATOM     17  C   UNL     1       1.856   8.632  18.719  0.00  0.00    +0.000 A 
ATOM     18  C   UNL     1       1.519   8.313  20.038  0.00  0.00    +0.000 A 
ATOM     19  C   UNL     1       1.800   7.044  20.558  0.00  0.00    +0.000 A 
ATOM     20  C   UNL     1       2.424   6.063  19.801  0.00  0.00    +0.000 A 
ATOM     21  N   UNL     1       2.697   4.867  20.353  0.00  0.00    +0.000 NA
ATOM     22  C   UNL     1       3.315   3.929  19.596  0.00  0.00    +0.000 A 
ATOM     23  C   UNL     1       3.605   2.607  20.240  0.00  0.00    +0.000 C 
ATOM     24  C   UNL     1       3.673   4.150  18.273  0.00  0.00    +0.000 A 
ATOM     25  C   UNL     1       3.390   5.386  17.706  0.00  0.00    +0.000 A 
ATOM     26  C   UNL     1       2.758   6.374  18.468  0.00  0.00    +0.000 A 
ATOM     27  C   UNL     1       2.472   7.646  17.939  0.00  0.00    +0.000 A 
ENDBRANCH  16  17
ENDBRANCH   4  16
TORSDOF 4
ENDMDL
MODEL 2
REMARK VINA RESULT:      -7.9      3.627      8.498
REMARK  Name = 
REMARK  8 active torsions:
REMARK  status: ('A' for Active; 'I' for Inactive)
REMARK    1  A    between atoms: C_1  and  O_2
REMARK    2  A    between atoms: O_2  and  C_3
REMARK    3  A    between atoms: C_6  and  C_7
REMARK    4  A    between atoms: C_7  and  C_8
REMARK    5  A    between atoms: C_13  and  C_14
REMARK    6  A    between atoms: C_21  and  C_22
REMARK    7  A    between atoms: C_25  and  O_26
REMARK    8  A    between atoms: O_26  and  C_27
REMARK                            x       y       z     vdW  Elec       q    Type
REMARK                         _______ _______ _______ _____ _____    ______ ____
ROOT
ATOM      1  C   UNL     1       4.677   6.088  17.133  0.00  0.00    +0.000 A 
ATOM      2  C   UNL     1       3.929   6.478  18.248  0.00  0.00    +0.000 A 
ATOM      3  C   UNL     1       2.944   5.649  18.825  0.00  0.00    +0.000 A 
ATOM      4  C   UNL     1       2.225   6.019  19.987  0.00  0.00    +0.000 A 
ATOM      5  C   UNL     1       1.260   5.127  20.452  0.00  0.00    +0.000 A 
ATOM      6  N   UNL     1       1.001   3.926  19.906  0.00  0.00    +0.000 NA
ATOM      7  C   UNL     1       1.724   3.561  18.820  0.00  0.00    +0.000 A 
ATOM      8  C   UNL     1       1.452   2.173  18.314  0.00  0.00    +0.000 C 
ATOM      9  C   UNL     1       2.699   4.394  18.224  0.00  0.00    +0.000 A 
ATOM     10  C   UNL     1       3.433   4.029  17.068  0.00  0.00    +0.000 A 
ATOM     11  C   UNL     1       4.410   4.865  16.514  0.00  0.00    +0.000 A 
ENDROOT
BRANCH   1  13
ATOM     12  C   UNL     1       6.816   7.063  17.397  0.00  0.00    +0.000 C 
ATOM     13  O   UNL     1       5.656   6.886  16.589  0.00  0.00    +0.000 OA
ENDBRANCH   1  13
BRANCH  11  14
ATOM     14  O   UNL     1       5.145   4.561  15.396  0.00  0.00    +0.000 OA
ATOM     15  C   UNL     1       6.281   3.726  15.563  0.00  0.00    +0.000 C 
ENDBRANCH  11  14
BRANCH   4  16
ATOM     16  C   UNL     1       2.487   7.279  20.782  0.00  0.00    +0.000 C 
BRANCH  16  17
ATOM     17  C   UNL     1       1.427   8.354  20.703  0.00  0.00    +0.000 A 
ATOM     18  C   UNL     1       1.106   8.957  19.482  0.00  0.00    +0.000 A 
ATOM     19  C   UNL     1       0.193  10.018  19.431  0.00  0.00    +0.000 A 
ATOM     20  C   UNL     1      -0.419  10.515  20.572  0.00  0.00    +0.000 A 
ATOM     21  N   UNL     1      -1.269  11.552  20.475  0.00  0.00    +0.000 NA
ATOM     22  C   UNL     1      -1.847  12.026  21.605  0.00  0.00    +0.000 A 
ATOM     23  C   UNL     1      -2.790  13.183  21.463  0.00  0.00    +0.000 C 
ATOM     24  C   UNL     1      -1.601  11.481  22.858  0.00  0.00    +0.000 A 
ATOM     25  C   UNL     1      -0.722  10.409  22.955  0.00  0.00    +0.000 A 
ATOM     26  C   UNL     1      -0.107   9.905  21.804  0.00  0.00    +0.000 A 
ATOM     27  C   UNL     1       0.804   8.836  21.861  0.00  0.00    +0.000 A 
ENDBRANCH  16  17
ENDBRANCH   4  16
TORSDOF 4
ENDMDL
MODEL 3
REMARK VINA RESULT:      -7.9      3.687      8.756
REMARK  Name = 
REMARK  8 active torsions:
REMARK  status: ('A' for Active; 'I' for Inactive)
REMARK    1  A    between atoms: C_1  and  O_2
REMARK    2  A    between atoms: O_2  and  C_3
REMARK    3  A    between atoms: C_6  and  C_7
REMARK    4  A    between atoms: C_7  and  C_8
REMARK    5  A    between atoms: C_13  and  C_14
REMARK    6  A    between atoms: C_21  and  C_22
REMARK    7  A    between atoms: C_25  and  O_26
REMARK    8  A    between atoms: O_26  and  C_27
REMARK                            x       y       z     vdW  Elec       q    Type
REMARK                         _______ _______ _______ _____ _____    ______ ____
ROOT
ATOM      1  C   UNL     1       5.646   5.742  16.849  0.00  0.00    +0.000 A 
ATOM      2  C   UNL     1       4.735   6.169  17.820  0.00  0.00    +0.000 A 
ATOM      3  C   UNL     1       3.666   5.360  18.260  0.00  0.00    +0.000 A 
ATOM      4  C   UNL     1       2.776   5.769  19.283  0.00  0.00    +0.000 A 
ATOM      5  C   UNL     1       1.744   4.895  19.618  0.00  0.00    +0.000 A 
ATOM      6  N   UNL     1       1.565   3.678  19.076  0.00  0.00    +0.000 NA
ATOM      7  C   UNL     1       2.447   3.277  18.128  0.00  0.00    +0.000 A 
ATOM      8  C   UNL     1       2.248   1.874  17.630  0.00  0.00    +0.000 C 
ATOM      9  C   UNL     1       3.510   4.088  17.668  0.00  0.00    +0.000 A 
ATOM     10  C   UNL     1       4.413   3.684  16.653  0.00  0.00    +0.000 A 
ATOM     11  C   UNL     1       5.471   4.500  16.234  0.00  0.00    +0.000 A 
ENDROOT
BRANCH   1  13
ATOM     12  C   UNL     1       7.474   7.099  17.491  0.00  0.00    +0.000 C 
ATOM     13  O   UNL     1       6.704   6.520  16.440  0.00  0.00    +0.000 OA
ENDBRANCH   1  13
BRANCH  11  14
ATOM     14  O   UNL     1       6.370   4.159  15.255  0.00  0.00    +0.000 OA
ATOM     15  C   UNL     1       5.890   4.080  13.921  0.00  0.00    +0.000 C 
ENDBRANCH  11  14
BRANCH   4  16
ATOM     16  C   UNL     1       2.920   7.054  20.070  0.00  0.00    +0.000 C 
BRANCH  16  17
ATOM     17  C   UNL     1       1.871   8.113  19.818  0.00  0.00    +0.000 A 
ATOM     18  C   UNL     1       1.640   8.603  18.529  0.00  0.00    +0.000 A 
ATOM     19  C   UNL     1       0.736   9.651  18.317  0.00  0.00    +0.000 A 
ATOM     20  C   UNL     1       0.047  10.248  19.362  0.00  0.00    +0.000 A 
ATOM     21  N   UNL     1      -0.791  11.270  19.112  0.00  0.00    +0.000 NA
ATOM     22  C   UNL     1      -1.445  11.843  20.150  0.00  0.00    +0.000 A 
ATOM     23  C   UNL     1      -2.372  12.979  19.838  0.00  0.00    +0.000 C 
ATOM     24  C   UNL     1      -1.290  11.415  21.462  0.00  0.00    +0.000 A 
ATOM     25  C   UNL     1      -0.424  10.359  21.717  0.00  0.00    +0.000 A 
ATOM     26  C   UNL     1       0.269   9.754  20.663  0.00  0.00    +0.000 A 
ATOM     27  C   UNL     1       1.170   8.697  20.881  0.00  0.00    +0.000 A 
ENDBRANCH  16  17
ENDBRANCH   4  16
TORSDOF 4
ENDMDL
MODEL 4
REMARK VINA RESULT:      -7.8      3.582      8.335
REMARK  Name = 
REMARK  8 active torsions:
REMARK  status: ('A' for Active; 'I' for Inactive)
REMARK    1  A    between atoms: C_1  and  O_2
REMARK    2  A    between atoms: O_2  and  C_3
REMARK    3  A    between atoms: C_6  and  C_7
REMARK    4  A    between atoms: C_7  and  C_8
REMARK    5  A    between atoms: C_13  and  C_14
REMARK    6  A    between atoms: C_21  and  C_22
REMARK    7  A    between atoms: C_25  and  O_26
REMARK    8  A    between atoms: O_26  and  C_27
REMARK                            x       y       z     vdW  Elec       q    Type
REMARK                         _______ _______ _______ _____ _____    ______ ____
ROOT
ATOM      1  C   UNL     1       2.484   3.492  17.856  0.00  0.00    +0.000 A 
ATOM      2  C   UNL     1       2.560   4.883  17.739  0.00  0.00    +0.000 A 
ATOM      3  C   UNL     1       3.790   5.566  17.641  0.00  0.00    +0.000 A 
ATOM      4  C   UNL     1       3.868   6.970  17.465  0.00  0.00    +0.000 A 
ATOM      5  C   UNL     1       5.139   7.537  17.405  0.00  0.00    +0.000 A 
ATOM      6  N   UNL     1       6.290   6.843  17.452  0.00  0.00    +0.000 NA
ATOM      7  C   UNL     1       6.206   5.496  17.576  0.00  0.00    +0.000 A 
ATOM      8  C   UNL     1       7.522   4.772  17.530  0.00  0.00    +0.000 C 
ATOM      9  C   UNL     1       4.978   4.805  17.694  0.00  0.00    +0.000 A 
ATOM     10  C   UNL     1       4.889   3.400  17.858  0.00  0.00    +0.000 A 
ATOM     11  C   UNL     1       3.658   2.739  17.948  0.00  0.00    +0.000 A 
ENDROOT
BRANCH   1  13
ATOM     12  C   UNL     1       0.641   2.858  19.196  0.00  0.00    +0.000 C 
ATOM     13  O   UNL     1       1.284   2.824  17.924  0.00  0.00    +0.000 OA
ENDBRANCH   1  13
BRANCH  11  14
ATOM     14  O   UNL     1       3.516   1.385  18.111  0.00  0.00    +0.000 OA
ATOM     15  C   UNL     1       4.114   0.794  19.256  0.00  0.00    +0.000 C 
ENDBRANCH  11  14
BRANCH   4  16
ATOM     16  C   UNL     1       2.666   7.869  17.274  0.00  0.00    +0.000 C 
BRANCH  16  17
ATOM     17  C   UNL     1       2.031   8.415  18.533  0.00  0.00    +0.000 A 
ATOM     18  C   UNL     1       2.078   7.696  19.731  0.00  0.00    +0.000 A 
ATOM     19  C   UNL     1       1.406   8.162  20.868  0.00  0.00    +0.000 A 
ATOM     20  C   UNL     1       0.668   9.335  20.854  0.00  0.00    +0.000 A 
ATOM     21  N   UNL     1       0.018   9.728  21.964  0.00  0.00    +0.000 NA
ATOM     22  C   UNL     1      -0.704  10.873  21.922  0.00  0.00    +0.000 A 
ATOM     23  C   UNL     1      -1.417  11.284  23.176  0.00  0.00    +0.000 C 
ATOM     24  C   UNL     1      -0.797  11.661  20.782  0.00  0.00    +0.000 A 
ATOM     25  C   UNL     1      -0.124  11.252  19.637  0.00  0.00    +0.000 A 
ATOM     26  C   UNL     1       0.623  10.070  19.652  0.00  0.00    +0.000 A 
ATOM     27  C   UNL     1       1.302   9.610  18.509  0.00  0.00    +0.000 A 
ENDBRANCH  16  17
ENDBRANCH   4  16
TORSDOF 4
ENDMDL
MODEL 5
REMARK VINA RESULT:      -7.8      0.824      1.485
REMARK  Name = 
REMARK  8 active torsions:
REMARK  status: ('A' for Active; 'I' for Inactive)
REMARK    1  A    between atoms: C_1  and  O_2
REMARK    2  A    between atoms: O_2  and  C_3
REMARK    3  A    between atoms: C_6  and  C_7
REMARK    4  A    between atoms: C_7  and  C_8
REMARK    5  A    between atoms: C_13  and  C_14
REMARK    6  A    between atoms: C_21  and  C_22
REMARK    7  A    between atoms: C_25  and  O_26
REMARK    8  A    between atoms: O_26  and  C_27
REMARK                            x       y       z     vdW  Elec       q    Type
REMARK                         _______ _______ _______ _____ _____    ______ ____
ROOT
ATOM      1  C   UNL     1      -2.474  10.129  17.185  0.00  0.00    +0.000 A 
ATOM      2  C   UNL     1      -1.086  10.115  17.358  0.00  0.00    +0.000 A 
ATOM      3  C   UNL     1      -0.464  10.635  18.512  0.00  0.00    +0.000 A 
ATOM      4  C   UNL     1       0.937  10.572  18.714  0.00  0.00    +0.000 A 
ATOM      5  C   UNL     1       1.440  11.140  19.883  0.00  0.00    +0.000 A 
ATOM      6  N   UNL     1       0.689  11.697  20.849  0.00  0.00    +0.000 NA
ATOM      7  C   UNL     1      -0.654  11.714  20.667  0.00  0.00    +0.000 A 
ATOM      8  C   UNL     1      -1.442  12.265  21.822  0.00  0.00    +0.000 C 
ATOM      9  C   UNL     1      -1.285  11.212  19.506  0.00  0.00    +0.000 A 
ATOM     10  C   UNL     1      -2.686  11.261  19.299  0.00  0.00    +0.000 A 
ATOM     11  C   UNL     1      -3.285  10.734  18.148  0.00  0.00    +0.000 A 
ENDROOT
BRANCH   1  13
ATOM     12  C   UNL     1      -2.946  10.366  14.880  0.00  0.00    +0.000 C 
ATOM     13  O   UNL     1      -3.081   9.597  16.072  0.00  0.00    +0.000 OA
ENDBRANCH   1  13
BRANCH  11  14
ATOM     14  O   UNL     1      -4.634  10.758  17.898  0.00  0.00    +0.000 OA
ATOM     15  C   UNL     1      -5.305  12.001  18.033  0.00  0.00    +0.000 C 
ENDBRANCH  11  14
BRANCH   4  16
ATOM     16  C   UNL     1       1.898   9.872  17.778  0.00  0.00    +0.000 C 
BRANCH  16  17
ATOM     17  C   UNL     1       2.380   8.506  18.212  0.00  0.00    +0.000 A 
ATOM     18  C   UNL     1       3.340   7.813  17.468  0.00  0.00    +0.000 A 
ATOM     19  C   UNL     1       3.711   6.510  17.822  0.00  0.00    +0.000 A 
ATOM     20  C   UNL     1       3.145   5.855  18.906  0.00  0.00    +0.000 A 
ATOM     21  N   UNL     1       3.515   4.594  19.191  0.00  0.00    +0.000 NA
ATOM     22  C   UNL     1       2.941   3.972  20.248  0.00  0.00    +0.000 A 
ATOM     23  C   UNL     1       3.375   2.567  20.539  0.00  0.00    +0.000 C 
ATOM     24  C   UNL     1       1.990   4.586  21.053  0.00  0.00    +0.000 A 
ATOM     25  C   UNL     1       1.611   5.889  20.756  0.00  0.00    +0.000 A 
ATOM     26  C   UNL     1       2.184   6.551  19.666  0.00  0.00    +0.000 A 
ATOM     27  C   UNL     1       1.812   7.862  19.318  0.00  0.00    +0.000 A 
ENDBRANCH  16  17
ENDBRANCH   4  16
TORSDOF 4
ENDMDL
MODEL 6
REMARK VINA RESULT:      -7.6      1.173      1.838
REMARK  Name = 
REMARK  8 active torsions:
REMARK  status: ('A' for Active; 'I' for Inactive)
REMARK    1  A    between atoms: C_1  and  O_2
REMARK    2  A    between atoms: O_2  and  C_3
REMARK    3  A    between atoms: C_6  and  C_7
REMARK    4  A    between atoms: C_7  and  C_8
REMARK    5  A    between atoms: C_13  and  C_14
REMARK    6  A    between atoms: C_21  and  C_22
REMARK    7  A    between atoms: C_25  and  O_26
REMARK    8  A    between atoms: O_26  and  C_27
REMARK                            x       y       z     vdW  Elec       q    Type
REMARK                         _______ _______ _______ _____ _____    ______ ____
ROOT
ATOM      1  C   UNL     1      -3.555  11.008  17.396  0.00  0.00    +0.000 A 
ATOM      2  C   UNL     1      -2.261  11.342  17.808  0.00  0.00    +0.000 A 
ATOM      3  C   UNL     1      -2.008  12.059  18.996  0.00  0.00    +0.000 A 
ATOM      4  C   UNL     1      -0.697  12.350  19.444  0.00  0.00    +0.000 A 
ATOM      5  C   UNL     1      -0.571  13.085  20.621  0.00  0.00    +0.000 A 
ATOM      6  N   UNL     1      -1.602  13.493  21.382  0.00  0.00    +0.000 NA
ATOM      7  C   UNL     1      -2.852  13.174  20.969  0.00  0.00    +0.000 A 
ATOM      8  C   UNL     1      -3.953  13.577  21.909  0.00  0.00    +0.000 C 
ATOM      9  C   UNL     1      -3.115  12.472  19.770  0.00  0.00    +0.000 A 
ATOM     10  C   UNL     1      -4.424  12.166  19.319  0.00  0.00    +0.000 A 
ATOM     11  C   UNL     1      -4.653  11.448  18.139  0.00  0.00    +0.000 A 
ENDROOT
BRANCH   1  13
ATOM     12  C   UNL     1      -3.021  10.661  15.118  0.00  0.00    +0.000 C 
ATOM     13  O   UNL     1      -3.798  10.285  16.252  0.00  0.00    +0.000 OA
ENDBRANCH   1  13
BRANCH  11  14
ATOM     14  O   UNL     1      -5.897  11.129  17.656  0.00  0.00    +0.000 OA
ATOM     15  C   UNL     1      -7.010  11.829  18.194  0.00  0.00    +0.000 C 
ENDBRANCH  11  14
BRANCH   4  16
ATOM     16  C   UNL     1       0.561  11.855  18.763  0.00  0.00    +0.000 C 
BRANCH  16  17
ATOM     17  C   UNL     1       0.968  10.431  19.062  0.00  0.00    +0.000 A 
ATOM     18  C   UNL     1       0.658   9.837  20.290  0.00  0.00    +0.000 A 
ATOM     19  C   UNL     1       1.121   8.551  20.597  0.00  0.00    +0.000 A 
ATOM     20  C   UNL     1       1.904   7.824  19.713  0.00  0.00    +0.000 A 
ATOM     21  N   UNL     1       2.347   6.603  20.064  0.00  0.00    +0.000 NA
ATOM     22  C   UNL     1       3.117   5.916  19.187  0.00  0.00    +0.000 A 
ATOM     23  C   UNL     1       3.595   4.558  19.608  0.00  0.00    +0.000 C 
ATOM     24  C   UNL     1       3.464   6.417  17.940  0.00  0.00    +0.000 A 
ATOM     25  C   UNL     1       3.005   7.678  17.581  0.00  0.00    +0.000 A 
ATOM     26  C   UNL     1       2.213   8.412  18.470  0.00  0.00    +0.000 A 
ATOM     27  C   UNL     1       1.745   9.700  18.154  0.00  0.00    +0.000 A 
ENDBRANCH  16  17
ENDBRANCH   4  16
TORSDOF 4
ENDMDL
MODEL 7
REMARK VINA RESULT:      -7.6      1.022      1.165
REMARK  Name = 
REMARK  8 active torsions:
REMARK  status: ('A' for Active; 'I' for Inactive)
REMARK    1  A    between atoms: C_1  and  O_2
REMARK    2  A    between atoms: O_2  and  C_3
REMARK    3  A    between atoms: C_6  and  C_7
REMARK    4  A    between atoms: C_7  and  C_8
REMARK    5  A    between atoms: C_13  and  C_14
REMARK    6  A    between atoms: C_21  and  C_22
REMARK    7  A    between atoms: C_25  and  O_26
REMARK    8  A    between atoms: O_26  and  C_27
REMARK                            x       y       z     vdW  Elec       q    Type
REMARK                         _______ _______ _______ _____ _____    ______ ____
ROOT
ATOM      1  C   UNL     1      -2.868  11.129  18.197  0.00  0.00    +0.000 A 
ATOM      2  C   UNL     1      -1.481  10.950  18.199  0.00  0.00    +0.000 A 
ATOM      3  C   UNL     1      -0.655  11.460  19.222  0.00  0.00    +0.000 A 
ATOM      4  C   UNL     1       0.743  11.231  19.254  0.00  0.00    +0.000 A 
ATOM      5  C   UNL     1       1.460  11.804  20.303  0.00  0.00    +0.000 A 
ATOM      6  N   UNL     1       0.913  12.514  21.306  0.00  0.00    +0.000 NA
ATOM      7  C   UNL     1      -0.430  12.691  21.290  0.00  0.00    +0.000 A 
ATOM      8  C   UNL     1      -0.989  13.411  22.485  0.00  0.00    +0.000 C 
ATOM      9  C   UNL     1      -1.263  12.199  20.259  0.00  0.00    +0.000 A 
ATOM     10  C   UNL     1      -2.664  12.412  20.223  0.00  0.00    +0.000 A 
ATOM     11  C   UNL     1      -3.468  11.893  19.201  0.00  0.00    +0.000 A 
ENDROOT
BRANCH   1  13
ATOM     12  C   UNL     1      -3.427  11.099  15.899  0.00  0.00    +0.000 C 
ATOM     13  O   UNL     1      -3.675  10.607  17.214  0.00  0.00    +0.000 OA
ENDBRANCH   1  13
BRANCH  11  14
ATOM     14  O   UNL     1      -4.826  12.072  19.117  0.00  0.00    +0.000 OA
ATOM     15  C   UNL     1      -5.454  12.825  20.144  0.00  0.00    +0.000 C 
ENDBRANCH  11  14
BRANCH   4  16
ATOM     16  C   UNL     1       1.483  10.355  18.267  0.00  0.00    +0.000 C 
BRANCH  16  17
ATOM     17  C   UNL     1       1.773   8.941  18.714  0.00  0.00    +0.000 A 
ATOM     18  C   UNL     1       1.382   8.493  19.980  0.00  0.00    +0.000 A 
ATOM     19  C   UNL     1       1.739   7.213  20.423  0.00  0.00    +0.000 A 
ATOM     20  C   UNL     1       2.491   6.349  19.642  0.00  0.00    +0.000 A 
ATOM     21  N   UNL     1       2.831   5.140  20.122  0.00  0.00    +0.000 NA
ATOM     22  C   UNL     1       3.574   4.318  19.344  0.00  0.00    +0.000 A 
ATOM     23  C   UNL     1       3.937   2.976  19.909  0.00  0.00    +0.000 C 
ATOM     24  C   UNL     1       3.996   4.670  18.069  0.00  0.00    +0.000 A 
ATOM     25  C   UNL     1       3.643   5.920  17.575  0.00  0.00    +0.000 A 
ATOM     26  C   UNL     1       2.881   6.791  18.362  0.00  0.00    +0.000 A 
ATOM     27  C   UNL     1       2.520   8.072  17.908  0.00  0.00    +0.000 A 
ENDBRANCH  16  17
ENDBRANCH   4  16
TORSDOF 4
ENDMDL
MODEL 8
REMARK VINA RESULT:      -7.6      1.879      2.516
REMARK  Name = 
REMARK  8 active torsions:
REMARK  status: ('A' for Active; 'I' for Inactive)
REMARK    1  A    between atoms: C_1  and  O_2
REMARK    2  A    between atoms: O_2  and  C_3
REMARK    3  A    between atoms: C_6  and  C_7
REMARK    4  A    between atoms: C_7  and  C_8
REMARK    5  A    between atoms: C_13  and  C_14
REMARK    6  A    between atoms: C_21  and  C_22
REMARK    7  A    between atoms: C_25  and  O_26
REMARK    8  A    between atoms: O_26  and  C_27
REMARK                            x       y       z     vdW  Elec       q    Type
REMARK                         _______ _______ _______ _____ _____    ______ ____
ROOT
ATOM      1  C   UNL     1      -1.692  11.284  18.059  0.00  0.00    +0.000 A 
ATOM      2  C   UNL     1      -0.516  10.527  18.059  0.00  0.00    +0.000 A 
ATOM      3  C   UNL     1       0.077  10.054  19.248  0.00  0.00    +0.000 A 
ATOM      4  C   UNL     1       1.237   9.241  19.246  0.00  0.00    +0.000 A 
ATOM      5  C   UNL     1       1.746   8.851  20.483  0.00  0.00    +0.000 A 
ATOM      6  N   UNL     1       1.188   9.152  21.669  0.00  0.00    +0.000 NA
ATOM      7  C   UNL     1       0.055   9.894  21.660  0.00  0.00    +0.000 A 
ATOM      8  C   UNL     1      -0.569  10.116  23.009  0.00  0.00    +0.000 C 
ATOM      9  C   UNL     1      -0.536  10.388  20.475  0.00  0.00    +0.000 A 
ATOM     10  C   UNL     1      -1.703  11.193  20.464  0.00  0.00    +0.000 A 
ATOM     11  C   UNL     1      -2.280  11.649  19.273  0.00  0.00    +0.000 A 
ENDROOT
BRANCH   1  13
ATOM     12  C   UNL     1      -2.698  10.693  16.001  0.00  0.00    +0.000 C 
ATOM     13  O   UNL     1      -2.285  11.722  16.898  0.00  0.00    +0.000 OA
ENDBRANCH   1  13
BRANCH  11  14
ATOM     14  O   UNL     1      -3.405  12.432  19.207  0.00  0.00    +0.000 OA
ATOM     15  C   UNL     1      -3.790  13.128  20.383  0.00  0.00    +0.000 C 
ENDBRANCH  11  14
BRANCH   4  16
ATOM     16  C   UNL     1       1.907   8.721  17.993  0.00  0.00    +0.000 C 
BRANCH  16  17
ATOM     17  C   UNL     1       2.494   7.330  18.076  0.00  0.00    +0.000 A 
ATOM     18  C   UNL     1       3.821   7.087  17.706  0.00  0.00    +0.000 A 
ATOM     19  C   UNL     1       4.330   5.783  17.694  0.00  0.00    +0.000 A 
ATOM     20  C   UNL     1       3.549   4.688  18.034  0.00  0.00    +0.000 A 
ATOM     21  N   UNL     1       4.075   3.451  17.982  0.00  0.00    +0.000 NA
ATOM     22  C   UNL     1       3.291   2.398  18.310  0.00  0.00    +0.000 A 
ATOM     23  C   UNL     1       3.907   1.033  18.241  0.00  0.00    +0.000 C 
ATOM     24  C   UNL     1       1.967   2.542  18.704  0.00  0.00    +0.000 A 
ATOM     25  C   UNL     1       1.427   3.821  18.757  0.00  0.00    +0.000 A 
ATOM     26  C   UNL     1       2.214   4.926  18.417  0.00  0.00    +0.000 A 
ATOM     27  C   UNL     1       1.700   6.235  18.437  0.00  0.00    +0.000 A 
ENDBRANCH  16  17
ENDBRANCH   4  16
TORSDOF 4
ENDMDL
MODEL 9
REMARK VINA RESULT:      -7.6      3.993      8.884
REMARK  Name = 
REMARK  8 active torsions:
REMARK  status: ('A' for Active; 'I' for Inactive)
REMARK    1  A    between atoms: C_1  and  O_2
REMARK    2  A    between atoms: O_2  and  C_3
REMARK    3  A    between atoms: C_6  and  C_7
REMARK    4  A    between atoms: C_7  and  C_8
REMARK    5  A    between atoms: C_13  and  C_14
REMARK    6  A    between atoms: C_21  and  C_22
REMARK    7  A    between atoms: C_25  and  O_26
REMARK    8  A    between atoms: O_26  and  C_27
REMARK                            x       y       z     vdW  Elec       q    Type
REMARK                         _______ _______ _______ _____ _____    ______ ____
ROOT
ATOM      1  C   UNL     1       5.920   5.670  18.175  0.00  0.00    +0.000 A 
ATOM      2  C   UNL     1       4.768   5.987  18.901  0.00  0.00    +0.000 A 
ATOM      3  C   UNL     1       3.622   5.165  18.896  0.00  0.00    +0.000 A 
ATOM      4  C   UNL     1       2.475   5.455  19.674  0.00  0.00    +0.000 A 
ATOM      5  C   UNL     1       1.394   4.582  19.571  0.00  0.00    +0.000 A 
ATOM      6  N   UNL     1       1.383   3.462  18.826  0.00  0.00    +0.000 NA
ATOM      7  C   UNL     1       2.501   3.169  18.118  0.00  0.00    +0.000 A 
ATOM      8  C   UNL     1       2.459   1.860  17.380  0.00  0.00    +0.000 C 
ATOM      9  C   UNL     1       3.647   3.997  18.102  0.00  0.00    +0.000 A 
ATOM     10  C   UNL     1       4.803   3.710  17.336  0.00  0.00    +0.000 A 
ATOM     11  C   UNL     1       5.934   4.537  17.358  0.00  0.00    +0.000 A 
ENDROOT
BRANCH   1  13
ATOM     12  C   UNL     1       6.977   7.645  17.415  0.00  0.00    +0.000 C 
ATOM     13  O   UNL     1       7.046   6.458  18.202  0.00  0.00    +0.000 OA
ENDBRANCH   1  13
BRANCH  11  14
ATOM     14  O   UNL     1       7.076   4.306  16.634  0.00  0.00    +0.000 OA
ATOM     15  C   UNL     1       7.027   4.546  15.236  0.00  0.00    +0.000 C 
ENDBRANCH  11  14
BRANCH   4  16
ATOM     16  C   UNL     1       2.382   6.607  20.651  0.00  0.00    +0.000 C 
BRANCH  16  17
ATOM     17  C   UNL     1       1.788   7.891  20.118  0.00  0.00    +0.000 A 
ATOM     18  C   UNL     1       1.972   8.268  18.784  0.00  0.00    +0.000 A 
ATOM     19  C   UNL     1       1.502   9.503  18.321  0.00  0.00    +0.000 A 
ATOM     20  C   UNL     1       0.849  10.398  19.155  0.00  0.00    +0.000 A 
ATOM     21  N   UNL     1       0.439  11.584  18.671  0.00  0.00    +0.000 NA
ATOM     22  C   UNL     1      -0.188  12.445  19.507  0.00  0.00    +0.000 A 
ATOM     23  C   UNL     1      -0.633  13.758  18.937  0.00  0.00    +0.000 C 
ATOM     24  C   UNL     1      -0.429  12.152  20.843  0.00  0.00    +0.000 A 
ATOM     25  C   UNL     1      -0.004  10.926  21.340  0.00  0.00    +0.000 A 
ATOM     26  C   UNL     1       0.651  10.021  20.498  0.00  0.00    +0.000 A 
ATOM     27  C   UNL     1       1.116   8.779  20.967  0.00  0.00    +0.000 A 
ENDBRANCH  16  17
ENDBRANCH   4  16
TORSDOF 4
ENDMDL
