MODEL 1
REMARK VINA RESULT:      -7.6      0.000      0.000
REMARK  Name = 
REMARK  11 active torsions:
REMARK  status: ('A' for Active; 'I' for Inactive)
REMARK    1  A    between atoms: C_1  and  C_2
REMARK    2  A    between atoms: C_2  and  C_3
REMARK    3  A    between atoms: C_3  and  C_4
REMARK    4  A    between atoms: C_3  and  C_25
REMARK    5  A    between atoms: C_4  and  C_5
REMARK    6  A    between atoms: C_8  and  O_9
REMARK    7  A    between atoms: O_9  and  C_10
REMARK    8  A    between atoms: C_10  and  C_11
REMARK    9  A    between atoms: C_11  and  N_12
REMARK   10  A    between atoms: N_12  and  C_13
REMARK   11  A    between atoms: C_25  and  O_27
REMARK                            x       y       z     vdW  Elec       q    Type
REMARK                         _______ _______ _______ _____ _____    ______ ____
ROOT
ATOM      1  C   UNL     1       1.847   7.064  20.144  0.00  0.00    +0.000 A 
ATOM      2  C   UNL     1       1.403   5.839  20.661  0.00  0.00    +0.000 A 
ATOM      3  C   UNL     1       1.394   4.690  19.866  0.00  0.00    +0.000 A 
ATOM      4  C   UNL     1       1.772   4.755  18.525  0.00  0.00    +0.000 A 
ATOM      5  C   UNL     1       2.284   5.953  18.027  0.00  0.00    +0.000 A 
ATOM      6  C   UNL     1       2.322   7.101  18.829  0.00  0.00    +0.000 A 
ENDROOT
BRANCH   1   7
ATOM      7  C   UNL     1       1.735   8.324  20.971  0.00  0.00    +0.000 C 
BRANCH   7   8
ATOM      8  C   UNL     1       0.331   8.874  21.263  0.00  0.00    +0.000 C 
BRANCH   8  10
ATOM      9  C   UNL     1       0.614  10.339  19.153  0.00  0.00    +0.000 C 
ATOM     10  C   UNL     1      -0.313   9.829  20.246  0.00  0.00    +0.000 C 
ENDBRANCH   8  10
BRANCH   8  11
ATOM     11  C   UNL     1       0.240   9.453  22.664  0.00  0.00    +0.000 C 
ATOM     12  O   UNL     1      -0.819   9.781  23.181  0.00  0.00    +0.000 OA
BRANCH  11  13
ATOM     13  O   UNL     1       1.415   9.571  23.317  0.00  0.00    +0.000 OA
ATOM     14  H   UNL     1       2.144   9.038  22.941  0.00  0.00    +0.000 HD
ENDBRANCH  11  13
ENDBRANCH   8  11
ENDBRANCH   7   8
ENDBRANCH   1   7
BRANCH   4  15
ATOM     15  O   UNL     1       1.664   3.720  17.627  0.00  0.00    +0.000 OA
BRANCH  15  16
ATOM     16  C   UNL     1       1.828   2.413  18.204  0.00  0.00    +0.000 C 
BRANCH  16  17
ATOM     17  C   UNL     1       3.291   1.945  18.201  0.00  0.00    +0.000 C 
BRANCH  17  18
ATOM     18  N   UNL     1       4.183   2.616  19.148  0.00  0.00    +0.000 N 
ATOM     19  C   UNL     1       4.568   1.865  20.337  0.00  0.00    +0.000 C 
ATOM     20  C   UNL     1       5.060   3.583  18.780  0.00  0.00    +0.000 A 
ATOM     21  N   UNL     1       5.938   4.189  19.555  0.00  0.00    +0.000 NA
ATOM     22  C   UNL     1       6.498   5.140  18.752  0.00  0.00    +0.000 A 
ATOM     23  C   UNL     1       7.438   6.139  19.033  0.00  0.00    +0.000 A 
ATOM     24  C   UNL     1       7.803   7.011  17.997  0.00  0.00    +0.000 A 
ATOM     25  C   UNL     1       7.265   6.869  16.710  0.00  0.00    +0.000 A 
ATOM     26  C   UNL     1       6.338   5.860  16.411  0.00  0.00    +0.000 A 
ATOM     27  C   UNL     1       5.981   5.035  17.473  0.00  0.00    +0.000 A 
ATOM     28  O   UNL     1       5.073   4.016  17.478  0.00  0.00    +0.000 OA
ENDBRANCH  17  18
ENDBRANCH  16  17
ENDBRANCH  15  16
ENDBRANCH   4  15
TORSDOF 9
ENDMDL
MODEL 2
REMARK VINA RESULT:      -7.4      2.901      3.993
REMARK  Name = 
REMARK  11 active torsions:
REMARK  status: ('A' for Active; 'I' for Inactive)
REMARK    1  A    between atoms: C_1  and  C_2
REMARK    2  A    between atoms: C_2  and  C_3
REMARK    3  A    between atoms: C_3  and  C_4
REMARK    4  A    between atoms: C_3  and  C_25
REMARK    5  A    between atoms: C_4  and  C_5
REMARK    6  A    between atoms: C_8  and  O_9
REMARK    7  A    between atoms: O_9  and  C_10
REMARK    8  A    between atoms: C_10  and  C_11
REMARK    9  A    between atoms: C_11  and  N_12
REMARK   10  A    between atoms: N_12  and  C_13
REMARK   11  A    between atoms: C_25  and  O_27
REMARK                            x       y       z     vdW  Elec       q    Type
REMARK                         _______ _______ _______ _____ _____    ______ ____
ROOT
ATOM      1  C   UNL     1       1.292   9.149  19.285  0.00  0.00    +0.000 A 
ATOM      2  C   UNL     1       1.589   8.046  20.098  0.00  0.00    +0.000 A 
ATOM      3  C   UNL     1       2.442   7.035  19.647  0.00  0.00    +0.000 A 
ATOM      4  C   UNL     1       2.967   7.078  18.355  0.00  0.00    +0.000 A 
ATOM      5  C   UNL     1       2.735   8.207  17.570  0.00  0.00    +0.000 A 
ATOM      6  C   UNL     1       1.903   9.237  18.030  0.00  0.00    +0.000 A 
ENDROOT
BRANCH   1   7
ATOM      7  C   UNL     1       0.272  10.171  19.732  0.00  0.00    +0.000 C 
BRANCH   7   8
ATOM      8  C   UNL     1      -0.026  11.351  18.796  0.00  0.00    +0.000 C 
BRANCH   8  10
ATOM      9  C   UNL     1       1.171  12.977  20.410  0.00  0.00    +0.000 C 
ATOM     10  C   UNL     1       0.099  12.780  19.349  0.00  0.00    +0.000 C 
ENDBRANCH   8  10
BRANCH   8  11
ATOM     11  C   UNL     1      -1.353  11.174  18.081  0.00  0.00    +0.000 C 
ATOM     12  O   UNL     1      -1.990  10.130  18.107  0.00  0.00    +0.000 OA
BRANCH  11  13
ATOM     13  O   UNL     1      -1.798  12.261  17.416  0.00  0.00    +0.000 OA
ATOM     14  H   UNL     1      -2.746  12.232  17.179  0.00  0.00    +0.000 HD
ENDBRANCH  11  13
ENDBRANCH   8  11
ENDBRANCH   7   8
ENDBRANCH   1   7
BRANCH   4  15
ATOM     15  O   UNL     1       3.695   6.071  17.769  0.00  0.00    +0.000 OA
BRANCH  15  16
ATOM     16  C   UNL     1       3.819   4.883  18.571  0.00  0.00    +0.000 C 
BRANCH  16  17
ATOM     17  C   UNL     1       5.208   4.237  18.459  0.00  0.00    +0.000 C 
BRANCH  17  18
ATOM     18  N   UNL     1       6.214   5.000  17.719  0.00  0.00    +0.000 N 
ATOM     19  C   UNL     1       7.332   5.536  18.487  0.00  0.00    +0.000 C 
ATOM     20  C   UNL     1       6.476   4.798  16.403  0.00  0.00    +0.000 A 
ATOM     21  N   UNL     1       7.405   5.395  15.683  0.00  0.00    +0.000 NA
ATOM     22  C   UNL     1       7.197   4.934  14.415  0.00  0.00    +0.000 A 
ATOM     23  C   UNL     1       7.820   5.264  13.205  0.00  0.00    +0.000 A 
ATOM     24  C   UNL     1       7.360   4.644  12.035  0.00  0.00    +0.000 A 
ATOM     25  C   UNL     1       6.325   3.699  12.078  0.00  0.00    +0.000 A 
ATOM     26  C   UNL     1       5.707   3.345  13.285  0.00  0.00    +0.000 A 
ATOM     27  C   UNL     1       6.173   4.004  14.418  0.00  0.00    +0.000 A 
ATOM     28  O   UNL     1       5.722   3.892  15.701  0.00  0.00    +0.000 OA
ENDBRANCH  17  18
ENDBRANCH  16  17
ENDBRANCH  15  16
ENDBRANCH   4  15
TORSDOF 9
ENDMDL
MODEL 3
REMARK VINA RESULT:      -7.3      2.792      3.907
REMARK  Name = 
REMARK  11 active torsions:
REMARK  status: ('A' for Active; 'I' for Inactive)
REMARK    1  A    between atoms: C_1  and  C_2
REMARK    2  A    between atoms: C_2  and  C_3
REMARK    3  A    between atoms: C_3  and  C_4
REMARK    4  A    between atoms: C_3  and  C_25
REMARK    5  A    between atoms: C_4  and  C_5
REMARK    6  A    between atoms: C_8  and  O_9
REMARK    7  A    between atoms: O_9  and  C_10
REMARK    8  A    between atoms: C_10  and  C_11
REMARK    9  A    between atoms: C_11  and  N_12
REMARK   10  A    between atoms: N_12  and  C_13
REMARK   11  A    between atoms: C_25  and  O_27
REMARK                            x       y       z     vdW  Elec       q    Type
REMARK                         _______ _______ _______ _____ _____    ______ ____
ROOT
ATOM      1  C   UNL     1       1.298   9.069  18.769  0.00  0.00    +0.000 A 
ATOM      2  C   UNL     1       1.194   8.491  20.041  0.00  0.00    +0.000 A 
ATOM      3  C   UNL     1       1.868   7.304  20.345  0.00  0.00    +0.000 A 
ATOM      4  C   UNL     1       2.611   6.644  19.366  0.00  0.00    +0.000 A 
ATOM      5  C   UNL     1       2.778   7.252  18.122  0.00  0.00    +0.000 A 
ATOM      6  C   UNL     1       2.127   8.456  17.823  0.00  0.00    +0.000 A 
ENDROOT
BRANCH   1   7
ATOM      7  C   UNL     1       0.468  10.280  18.413  0.00  0.00    +0.000 C 
BRANCH   7   8
ATOM      8  C   UNL     1      -0.912  10.428  19.069  0.00  0.00    +0.000 C 
BRANCH   8  10
ATOM      9  C   UNL     1      -2.016  10.177  16.746  0.00  0.00    +0.000 C 
ATOM     10  C   UNL     1      -2.160  10.051  18.254  0.00  0.00    +0.000 C 
ENDBRANCH   8  10
BRANCH   8  11
ATOM     11  C   UNL     1      -1.087  11.798  19.700  0.00  0.00    +0.000 C 
ATOM     12  O   UNL     1      -1.137  12.831  19.047  0.00  0.00    +0.000 OA
BRANCH  11  13
ATOM     13  O   UNL     1      -1.197  11.803  21.045  0.00  0.00    +0.000 OA
ATOM     14  H   UNL     1      -0.358  11.960  21.521  0.00  0.00    +0.000 HD
ENDBRANCH  11  13
ENDBRANCH   8  11
ENDBRANCH   7   8
ENDBRANCH   1   7
BRANCH   4  15
ATOM     15  O   UNL     1       3.190   5.407  19.521  0.00  0.00    +0.000 OA
BRANCH  15  16
ATOM     16  C   UNL     1       4.628   5.416  19.492  0.00  0.00    +0.000 C 
BRANCH  16  17
ATOM     17  C   UNL     1       5.201   4.626  18.306  0.00  0.00    +0.000 C 
BRANCH  17  18
ATOM     18  N   UNL     1       6.218   5.313  17.508  0.00  0.00    +0.000 N 
ATOM     19  C   UNL     1       7.345   5.890  18.231  0.00  0.00    +0.000 C 
ATOM     20  C   UNL     1       6.475   5.003  16.212  0.00  0.00    +0.000 A 
ATOM     21  N   UNL     1       7.412   5.526  15.447  0.00  0.00    +0.000 NA
ATOM     22  C   UNL     1       7.195   4.970  14.219  0.00  0.00    +0.000 A 
ATOM     23  C   UNL     1       7.821   5.194  12.987  0.00  0.00    +0.000 A 
ATOM     24  C   UNL     1       7.350   4.491  11.870  0.00  0.00    +0.000 A 
ATOM     25  C   UNL     1       6.300   3.569  11.987  0.00  0.00    +0.000 A 
ATOM     26  C   UNL     1       5.678   3.321  13.218  0.00  0.00    +0.000 A 
ATOM     27  C   UNL     1       6.156   4.060  14.296  0.00  0.00    +0.000 A 
ATOM     28  O   UNL     1       5.705   4.057  15.584  0.00  0.00    +0.000 OA
ENDBRANCH  17  18
ENDBRANCH  16  17
ENDBRANCH  15  16
ENDBRANCH   4  15
TORSDOF 9
ENDMDL
MODEL 4
REMARK VINA RESULT:      -7.1      2.756      3.810
REMARK  Name = 
REMARK  11 active torsions:
REMARK  status: ('A' for Active; 'I' for Inactive)
REMARK    1  A    between atoms: C_1  and  C_2
REMARK    2  A    between atoms: C_2  and  C_3
REMARK    3  A    between atoms: C_3  and  C_4
REMARK    4  A    between atoms: C_3  and  C_25
REMARK    5  A    between atoms: C_4  and  C_5
REMARK    6  A    between atoms: C_8  and  O_9
REMARK    7  A    between atoms: O_9  and  C_10
REMARK    8  A    between atoms: C_10  and  C_11
REMARK    9  A    between atoms: C_11  and  N_12
REMARK   10  A    between atoms: N_12  and  C_13
REMARK   11  A    between atoms: C_25  and  O_27
REMARK                            x       y       z     vdW  Elec       q    Type
REMARK                         _______ _______ _______ _____ _____    ______ ____
ROOT
ATOM      1  C   UNL     1       1.675   8.879  18.412  0.00  0.00    +0.000 A 
ATOM      2  C   UNL     1       2.560   8.260  17.518  0.00  0.00    +0.000 A 
ATOM      3  C   UNL     1       3.256   7.105  17.887  0.00  0.00    +0.000 A 
ATOM      4  C   UNL     1       3.125   6.582  19.173  0.00  0.00    +0.000 A 
ATOM      5  C   UNL     1       2.192   7.150  20.040  0.00  0.00    +0.000 A 
ATOM      6  C   UNL     1       1.470   8.291  19.664  0.00  0.00    +0.000 A 
ENDROOT
BRANCH   1   7
ATOM      7  C   UNL     1       1.025  10.194  18.050  0.00  0.00    +0.000 C 
BRANCH   7   8
ATOM      8  C   UNL     1      -0.109  10.710  18.947  0.00  0.00    +0.000 C 
BRANCH   8  10
ATOM      9  C   UNL     1      -1.880  10.066  17.179  0.00  0.00    +0.000 C 
ATOM     10  C   UNL     1      -1.548  10.259  18.651  0.00  0.00    +0.000 C 
ENDBRANCH   8  10
BRANCH   8  11
ATOM     11  C   UNL     1      -0.050  12.219  19.108  0.00  0.00    +0.000 C 
ATOM     12  O   UNL     1      -0.569  12.810  20.045  0.00  0.00    +0.000 OA
BRANCH  11  13
ATOM     13  O   UNL     1       0.632  12.875  18.145  0.00  0.00    +0.000 OA
ATOM     14  H   UNL     1       0.188  12.895  17.275  0.00  0.00    +0.000 HD
ENDBRANCH  11  13
ENDBRANCH   8  11
ENDBRANCH   7   8
ENDBRANCH   1   7
BRANCH   4  15
ATOM     15  O   UNL     1       3.868   5.542  19.678  0.00  0.00    +0.000 OA
BRANCH  15  16
ATOM     16  C   UNL     1       3.716   4.302  18.964  0.00  0.00    +0.000 C 
BRANCH  16  17
ATOM     17  C   UNL     1       5.056   3.733  18.475  0.00  0.00    +0.000 C 
BRANCH  17  18
ATOM     18  N   UNL     1       5.968   4.688  17.844  0.00  0.00    +0.000 N 
ATOM     19  C   UNL     1       6.952   5.329  18.708  0.00  0.00    +0.000 C 
ATOM     20  C   UNL     1       6.321   4.621  16.536  0.00  0.00    +0.000 A 
ATOM     21  N   UNL     1       7.182   5.400  15.910  0.00  0.00    +0.000 NA
ATOM     22  C   UNL     1       7.108   5.005  14.606  0.00  0.00    +0.000 A 
ATOM     23  C   UNL     1       7.731   5.510  13.458  0.00  0.00    +0.000 A 
ATOM     24  C   UNL     1       7.428   4.913  12.226  0.00  0.00    +0.000 A 
ATOM     25  C   UNL     1       6.549   3.824  12.148  0.00  0.00    +0.000 A 
ATOM     26  C   UNL     1       5.934   3.296  13.293  0.00  0.00    +0.000 A 
ATOM     27  C   UNL     1       6.238   3.935  14.490  0.00  0.00    +0.000 A 
ATOM     28  O   UNL     1       5.748   3.666  15.735  0.00  0.00    +0.000 OA
ENDBRANCH  17  18
ENDBRANCH  16  17
ENDBRANCH  15  16
ENDBRANCH   4  15
TORSDOF 9
ENDMDL
MODEL 5
REMARK VINA RESULT:      -7.0      3.118      4.430
REMARK  Name = 
REMARK  11 active torsions:
REMARK  status: ('A' for Active; 'I' for Inactive)
REMARK    1  A    between atoms: C_1  and  C_2
REMARK    2  A    between atoms: C_2  and  C_3
REMARK    3  A    between atoms: C_3  and  C_4
REMARK    4  A    between atoms: C_3  and  C_25
REMARK    5  A    between atoms: C_4  and  C_5
REMARK    6  A    between atoms: C_8  and  O_9
REMARK    7  A    between atoms: O_9  and  C_10
REMARK    8  A    between atoms: C_10  and  C_11
REMARK    9  A    between atoms: C_11  and  N_12
REMARK   10  A    between atoms: N_12  and  C_13
REMARK   11  A    between atoms: C_25  and  O_27
REMARK                            x       y       z     vdW  Elec       q    Type
REMARK                         _______ _______ _______ _____ _____    ______ ____
ROOT
ATOM      1  C   UNL     1       0.517   9.800  19.004  0.00  0.00    +0.000 A 
ATOM      2  C   UNL     1       0.693   9.160  20.239  0.00  0.00    +0.000 A 
ATOM      3  C   UNL     1       1.578   8.085  20.367  0.00  0.00    +0.000 A 
ATOM      4  C   UNL     1       2.258   7.594  19.252  0.00  0.00    +0.000 A 
ATOM      5  C   UNL     1       2.144   8.273  18.039  0.00  0.00    +0.000 A 
ATOM      6  C   UNL     1       1.279   9.369  17.914  0.00  0.00    +0.000 A 
ENDROOT
BRANCH   1   7
ATOM      7  C   UNL     1      -0.532  10.876  18.848  0.00  0.00    +0.000 C 
BRANCH   7   8
ATOM      8  C   UNL     1      -0.382  12.157  19.682  0.00  0.00    +0.000 C 
BRANCH   8  10
ATOM      9  C   UNL     1      -1.437  11.770  22.009  0.00  0.00    +0.000 C 
ATOM     10  C   UNL     1      -1.489  12.517  20.686  0.00  0.00    +0.000 C 
ENDBRANCH   8  10
BRANCH   8  11
ATOM     11  C   UNL     1      -0.049  13.354  18.810  0.00  0.00    +0.000 C 
ATOM     12  O   UNL     1       0.952  13.409  18.108  0.00  0.00    +0.000 OA
BRANCH  11  13
ATOM     13  O   UNL     1      -0.945  14.362  18.847  0.00  0.00    +0.000 OA
ATOM     14  H   UNL     1      -1.527  14.359  19.633  0.00  0.00    +0.000 HD
ENDBRANCH  11  13
ENDBRANCH   8  11
ENDBRANCH   7   8
ENDBRANCH   1   7
BRANCH   4  15
ATOM     15  O   UNL     1       3.036   6.461  19.243  0.00  0.00    +0.000 OA
BRANCH  15  16
ATOM     16  C   UNL     1       3.772   6.254  18.025  0.00  0.00    +0.000 C 
BRANCH  16  17
ATOM     17  C   UNL     1       5.114   5.546  18.258  0.00  0.00    +0.000 C 
BRANCH  17  18
ATOM     18  N   UNL     1       6.223   5.973  17.401  0.00  0.00    +0.000 N 
ATOM     19  C   UNL     1       7.415   6.479  18.069  0.00  0.00    +0.000 C 
ATOM     20  C   UNL     1       6.441   5.461  16.164  0.00  0.00    +0.000 A 
ATOM     21  N   UNL     1       7.446   5.743  15.359  0.00  0.00    +0.000 NA
ATOM     22  C   UNL     1       7.160   5.064  14.210  0.00  0.00    +0.000 A 
ATOM     23  C   UNL     1       7.819   5.033  12.975  0.00  0.00    +0.000 A 
ATOM     24  C   UNL     1       7.259   4.259  11.948  0.00  0.00    +0.000 A 
ATOM     25  C   UNL     1       6.090   3.515  12.160  0.00  0.00    +0.000 A 
ATOM     26  C   UNL     1       5.432   3.522  13.398  0.00  0.00    +0.000 A 
ATOM     27  C   UNL     1       6.003   4.324  14.380  0.00  0.00    +0.000 A 
ATOM     28  O   UNL     1       5.549   4.555  15.646  0.00  0.00    +0.000 OA
ENDBRANCH  17  18
ENDBRANCH  16  17
ENDBRANCH  15  16
ENDBRANCH   4  15
TORSDOF 9
ENDMDL
MODEL 6
REMARK VINA RESULT:      -7.0      2.561      3.690
REMARK  Name = 
REMARK  11 active torsions:
REMARK  status: ('A' for Active; 'I' for Inactive)
REMARK    1  A    between atoms: C_1  and  C_2
REMARK    2  A    between atoms: C_2  and  C_3
REMARK    3  A    between atoms: C_3  and  C_4
REMARK    4  A    between atoms: C_3  and  C_25
REMARK    5  A    between atoms: C_4  and  C_5
REMARK    6  A    between atoms: C_8  and  O_9
REMARK    7  A    between atoms: O_9  and  C_10
REMARK    8  A    between atoms: C_10  and  C_11
REMARK    9  A    between atoms: C_11  and  N_12
REMARK   10  A    between atoms: N_12  and  C_13
REMARK   11  A    between atoms: C_25  and  O_27
REMARK                            x       y       z     vdW  Elec       q    Type
REMARK                         _______ _______ _______ _____ _____    ______ ____
ROOT
ATOM      1  C   UNL     1       1.917   8.749  18.618  0.00  0.00    +0.000 A 
ATOM      2  C   UNL     1       2.618   8.060  17.619  0.00  0.00    +0.000 A 
ATOM      3  C   UNL     1       3.110   6.772  17.849  0.00  0.00    +0.000 A 
ATOM      4  C   UNL     1       2.960   6.173  19.100  0.00  0.00    +0.000 A 
ATOM      5  C   UNL     1       2.200   6.822  20.072  0.00  0.00    +0.000 A 
ATOM      6  C   UNL     1       1.680   8.102  19.835  0.00  0.00    +0.000 A 
ENDROOT
BRANCH   1   7
ATOM      7  C   UNL     1       1.500  10.185  18.402  0.00  0.00    +0.000 C 
BRANCH   7   8
ATOM      8  C   UNL     1       0.392  10.758  19.297  0.00  0.00    +0.000 C 
BRANCH   8  10
ATOM      9  C   UNL     1      -1.901  11.916  19.577  0.00  0.00    +0.000 C 
ATOM     10  C   UNL     1      -0.781  11.499  18.636  0.00  0.00    +0.000 C 
ENDBRANCH   8  10
BRANCH   8  11
ATOM     11  C   UNL     1       0.966  11.584  20.435  0.00  0.00    +0.000 C 
ATOM     12  O   UNL     1       0.946  11.217  21.602  0.00  0.00    +0.000 OA
BRANCH  11  13
ATOM     13  O   UNL     1       1.519  12.760  20.071  0.00  0.00    +0.000 OA
ATOM     14  H   UNL     1       2.139  12.702  19.318  0.00  0.00    +0.000 HD
ENDBRANCH  11  13
ENDBRANCH   8  11
ENDBRANCH   7   8
ENDBRANCH   1   7
BRANCH   4  15
ATOM     15  O   UNL     1       3.526   4.976  19.471  0.00  0.00    +0.000 OA
BRANCH  15  16
ATOM     16  C   UNL     1       4.119   4.239  18.387  0.00  0.00    +0.000 C 
BRANCH  16  17
ATOM     17  C   UNL     1       5.635   4.055  18.557  0.00  0.00    +0.000 C 
BRANCH  17  18
ATOM     18  N   UNL     1       6.483   4.943  17.761  0.00  0.00    +0.000 N 
ATOM     19  C   UNL     1       7.574   5.613  18.459  0.00  0.00    +0.000 C 
ATOM     20  C   UNL     1       6.678   4.781  16.428  0.00  0.00    +0.000 A 
ATOM     21  N   UNL     1       7.473   5.495  15.655  0.00  0.00    +0.000 NA
ATOM     22  C   UNL     1       7.238   5.017  14.398  0.00  0.00    +0.000 A 
ATOM     23  C   UNL     1       7.730   5.429  13.153  0.00  0.00    +0.000 A 
ATOM     24  C   UNL     1       7.274   4.760  12.009  0.00  0.00    +0.000 A 
ATOM     25  C   UNL     1       6.372   3.692  12.109  0.00  0.00    +0.000 A 
ATOM     26  C   UNL     1       5.887   3.256  13.350  0.00  0.00    +0.000 A 
ATOM     27  C   UNL     1       6.342   3.964  14.457  0.00  0.00    +0.000 A 
ATOM     28  O   UNL     1       5.998   3.790  15.766  0.00  0.00    +0.000 OA
ENDBRANCH  17  18
ENDBRANCH  16  17
ENDBRANCH  15  16
ENDBRANCH   4  15
TORSDOF 9
ENDMDL
MODEL 7
REMARK VINA RESULT:      -7.0      5.846      8.687
REMARK  Name = 
REMARK  11 active torsions:
REMARK  status: ('A' for Active; 'I' for Inactive)
REMARK    1  A    between atoms: C_1  and  C_2
REMARK    2  A    between atoms: C_2  and  C_3
REMARK    3  A    between atoms: C_3  and  C_4
REMARK    4  A    between atoms: C_3  and  C_25
REMARK    5  A    between atoms: C_4  and  C_5
REMARK    6  A    between atoms: C_8  and  O_9
REMARK    7  A    between atoms: O_9  and  C_10
REMARK    8  A    between atoms: C_10  and  C_11
REMARK    9  A    between atoms: C_11  and  N_12
REMARK   10  A    between atoms: N_12  and  C_13
REMARK   11  A    between atoms: C_25  and  O_27
REMARK                            x       y       z     vdW  Elec       q    Type
REMARK                         _______ _______ _______ _____ _____    ______ ____
ROOT
ATOM      1  C   UNL     1       9.205  12.672  18.760  0.00  0.00    +0.000 A 
ATOM      2  C   UNL     1       9.700  11.996  19.884  0.00  0.00    +0.000 A 
ATOM      3  C   UNL     1       9.644  10.601  19.961  0.00  0.00    +0.000 A 
ATOM      4  C   UNL     1       9.041   9.862  18.943  0.00  0.00    +0.000 A 
ATOM      5  C   UNL     1       8.615  10.522  17.791  0.00  0.00    +0.000 A 
ATOM      6  C   UNL     1       8.695  11.919  17.698  0.00  0.00    +0.000 A 
ENDROOT
BRANCH   1   7
ATOM      7  C   UNL     1       9.156  14.182  18.742  0.00  0.00    +0.000 C 
BRANCH   7   8
ATOM      8  C   UNL     1      10.484  14.947  18.643  0.00  0.00    +0.000 C 
BRANCH   8  10
ATOM      9  C   UNL     1      10.672  15.397  21.181  0.00  0.00    +0.000 C 
ATOM     10  C   UNL     1      10.856  15.927  19.768  0.00  0.00    +0.000 C 
ENDBRANCH   8  10
BRANCH   8  11
ATOM     11  C   UNL     1      10.645  15.612  17.288  0.00  0.00    +0.000 C 
ATOM     12  O   UNL     1      10.489  16.812  17.111  0.00  0.00    +0.000 OA
BRANCH  11  13
ATOM     13  O   UNL     1      10.988  14.785  16.278  0.00  0.00    +0.000 OA
ATOM     14  H   UNL     1      11.878  14.388  16.362  0.00  0.00    +0.000 HD
ENDBRANCH  11  13
ENDBRANCH   8  11
ENDBRANCH   7   8
ENDBRANCH   1   7
BRANCH   4  15
ATOM     15  O   UNL     1       8.809   8.508  18.988  0.00  0.00    +0.000 OA
BRANCH  15  16
ATOM     16  C   UNL     1       7.907   8.026  17.977  0.00  0.00    +0.000 C 
BRANCH  16  17
ATOM     17  C   UNL     1       7.500   6.561  18.197  0.00  0.00    +0.000 C 
BRANCH  17  18
ATOM     18  N   UNL     1       6.484   6.032  17.285  0.00  0.00    +0.000 N 
ATOM     19  C   UNL     1       6.949   5.544  15.993  0.00  0.00    +0.000 C 
ATOM     20  C   UNL     1       5.320   5.482  17.713  0.00  0.00    +0.000 A 
ATOM     21  N   UNL     1       4.387   4.929  16.964  0.00  0.00    +0.000 NA
ATOM     22  C   UNL     1       3.384   4.630  17.841  0.00  0.00    +0.000 A 
ATOM     23  C   UNL     1       2.107   4.096  17.626  0.00  0.00    +0.000 A 
ATOM     24  C   UNL     1       1.266   3.931  18.736  0.00  0.00    +0.000 A 
ATOM     25  C   UNL     1       1.700   4.265  20.026  0.00  0.00    +0.000 A 
ATOM     26  C   UNL     1       2.983   4.782  20.257  0.00  0.00    +0.000 A 
ATOM     27  C   UNL     1       3.775   4.956  19.127  0.00  0.00    +0.000 A 
ATOM     28  O   UNL     1       5.032   5.482  19.055  0.00  0.00    +0.000 OA
ENDBRANCH  17  18
ENDBRANCH  16  17
ENDBRANCH  15  16
ENDBRANCH   4  15
TORSDOF 9
ENDMDL
MODEL 8
REMARK VINA RESULT:      -6.9      2.963      4.129
REMARK  Name = 
REMARK  11 active torsions:
REMARK  status: ('A' for Active; 'I' for Inactive)
REMARK    1  A    between atoms: C_1  and  C_2
REMARK    2  A    between atoms: C_2  and  C_3
REMARK    3  A    between atoms: C_3  and  C_4
REMARK    4  A    between atoms: C_3  and  C_25
REMARK    5  A    between atoms: C_4  and  C_5
REMARK    6  A    between atoms: C_8  and  O_9
REMARK    7  A    between atoms: O_9  and  C_10
REMARK    8  A    between atoms: C_10  and  C_11
REMARK    9  A    between atoms: C_11  and  N_12
REMARK   10  A    between atoms: N_12  and  C_13
REMARK   11  A    between atoms: C_25  and  O_27
REMARK                            x       y       z     vdW  Elec       q    Type
REMARK                         _______ _______ _______ _____ _____    ______ ____
ROOT
ATOM      1  C   UNL     1       0.722   9.435  19.651  0.00  0.00    +0.000 A 
ATOM      2  C   UNL     1       1.224   8.311  20.322  0.00  0.00    +0.000 A 
ATOM      3  C   UNL     1       2.230   7.527  19.749  0.00  0.00    +0.000 A 
ATOM      4  C   UNL     1       2.712   7.818  18.473  0.00  0.00    +0.000 A 
ATOM      5  C   UNL     1       2.270   8.976  17.834  0.00  0.00    +0.000 A 
ATOM      6  C   UNL     1       1.282   9.781  18.417  0.00  0.00    +0.000 A 
ENDROOT
BRANCH   1   7
ATOM      7  C   UNL     1      -0.450  10.200  20.221  0.00  0.00    +0.000 C 
BRANCH   7   8
ATOM      8  C   UNL     1      -1.437  10.846  19.238  0.00  0.00    +0.000 C 
BRANCH   8  10
ATOM      9  C   UNL     1      -3.297  10.011  17.651  0.00  0.00    +0.000 C 
ATOM     10  C   UNL     1      -1.809  10.082  17.958  0.00  0.00    +0.000 C 
ENDBRANCH   8  10
BRANCH   8  11
ATOM     11  C   UNL     1      -1.038  12.273  18.905  0.00  0.00    +0.000 C 
ATOM     12  O   UNL     1      -1.110  12.739  17.776  0.00  0.00    +0.000 OA
BRANCH  11  13
ATOM     13  O   UNL     1      -0.607  13.010  19.950  0.00  0.00    +0.000 OA
ATOM     14  H   UNL     1      -0.590  13.974  19.788  0.00  0.00    +0.000 HD
ENDBRANCH  11  13
ENDBRANCH   8  11
ENDBRANCH   7   8
ENDBRANCH   1   7
BRANCH   4  15
ATOM     15  O   UNL     1       3.592   7.032  17.768  0.00  0.00    +0.000 OA
BRANCH  15  16
ATOM     16  C   UNL     1       3.478   5.624  18.036  0.00  0.00    +0.000 C 
BRANCH  16  17
ATOM     17  C   UNL     1       4.841   4.952  18.258  0.00  0.00    +0.000 C 
BRANCH  17  18
ATOM     18  N   UNL     1       5.964   5.516  17.507  0.00  0.00    +0.000 N 
ATOM     19  C   UNL     1       7.097   6.006  18.282  0.00  0.00    +0.000 C 
ATOM     20  C   UNL     1       6.266   5.144  16.237  0.00  0.00    +0.000 A 
ATOM     21  N   UNL     1       7.292   5.553  15.518  0.00  0.00    +0.000 NA
ATOM     22  C   UNL     1       7.095   4.983  14.293  0.00  0.00    +0.000 A 
ATOM     23  C   UNL     1       7.811   5.110  13.096  0.00  0.00    +0.000 A 
ATOM     24  C   UNL     1       7.340   4.420  11.970  0.00  0.00    +0.000 A 
ATOM     25  C   UNL     1       6.202   3.606  12.045  0.00  0.00    +0.000 A 
ATOM     26  C   UNL     1       5.488   3.455  13.242  0.00  0.00    +0.000 A 
ATOM     27  C   UNL     1       5.970   4.177  14.328  0.00  0.00    +0.000 A 
ATOM     28  O   UNL     1       5.447   4.256  15.586  0.00  0.00    +0.000 OA
ENDBRANCH  17  18
ENDBRANCH  16  17
ENDBRANCH  15  16
ENDBRANCH   4  15
TORSDOF 9
ENDMDL
MODEL 9
REMARK VINA RESULT:      -6.9      5.213     10.077
REMARK  Name = 
REMARK  11 active torsions:
REMARK  status: ('A' for Active; 'I' for Inactive)
REMARK    1  A    between atoms: C_1  and  C_2
REMARK    2  A    between atoms: C_2  and  C_3
REMARK    3  A    between atoms: C_3  and  C_4
REMARK    4  A    between atoms: C_3  and  C_25
REMARK    5  A    between atoms: C_4  and  C_5
REMARK    6  A    between atoms: C_8  and  O_9
REMARK    7  A    between atoms: O_9  and  C_10
REMARK    8  A    between atoms: C_10  and  C_11
REMARK    9  A    between atoms: C_11  and  N_12
REMARK   10  A    between atoms: N_12  and  C_13
REMARK   11  A    between atoms: C_25  and  O_27
REMARK                            x       y       z     vdW  Elec       q    Type
REMARK                         _______ _______ _______ _____ _____    ______ ____
ROOT
ATOM      1  C   UNL     1       2.067   7.284  19.732  0.00  0.00    +0.000 A 
ATOM      2  C   UNL     1       2.286   7.708  18.414  0.00  0.00    +0.000 A 
ATOM      3  C   UNL     1       1.817   8.949  17.975  0.00  0.00    +0.000 A 
ATOM      4  C   UNL     1       1.070   9.764  18.827  0.00  0.00    +0.000 A 
ATOM      5  C   UNL     1       0.913   9.381  20.159  0.00  0.00    +0.000 A 
ATOM      6  C   UNL     1       1.407   8.150  20.611  0.00  0.00    +0.000 A 
ENDROOT
BRANCH   1   7
ATOM      7  C   UNL     1       2.467   5.891  20.160  0.00  0.00    +0.000 C 
BRANCH   7   8
ATOM      8  C   UNL     1       2.069   4.716  19.256  0.00  0.00    +0.000 C 
BRANCH   8  10
ATOM      9  C   UNL     1       0.741   2.534  18.867  0.00  0.00    +0.000 C 
ATOM     10  C   UNL     1       1.254   3.563  19.862  0.00  0.00    +0.000 C 
ENDBRANCH   8  10
BRANCH   8  11
ATOM     11  C   UNL     1       3.262   4.174  18.489  0.00  0.00    +0.000 C 
ATOM     12  O   UNL     1       3.458   4.414  17.305  0.00  0.00    +0.000 OA
BRANCH  11  13
ATOM     13  O   UNL     1       4.112   3.411  19.208  0.00  0.00    +0.000 OA
ATOM     14  H   UNL     1       3.796   2.501  19.378  0.00  0.00    +0.000 HD
ENDBRANCH  11  13
ENDBRANCH   8  11
ENDBRANCH   7   8
ENDBRANCH   1   7
BRANCH   4  15
ATOM     15  O   UNL     1       0.447  10.930  18.452  0.00  0.00    +0.000 OA
BRANCH  15  16
ATOM     16  C   UNL     1      -0.978  10.930  18.646  0.00  0.00    +0.000 C 
BRANCH  16  17
ATOM     17  C   UNL     1      -1.718  10.088  17.596  0.00  0.00    +0.000 C 
BRANCH  17  18
ATOM     18  N   UNL     1      -2.698  10.802  16.775  0.00  0.00    +0.000 N 
ATOM     19  C   UNL     1      -2.681  10.530  15.343  0.00  0.00    +0.000 C 
ATOM     20  C   UNL     1      -3.891  11.235  17.255  0.00  0.00    +0.000 A 
ATOM     21  N   UNL     1      -4.850  11.825  16.570  0.00  0.00    +0.000 NA
ATOM     22  C   UNL     1      -5.782  12.158  17.511  0.00  0.00    +0.000 A 
ATOM     23  C   UNL     1      -6.984  12.867  17.400  0.00  0.00    +0.000 A 
ATOM     24  C   UNL     1      -7.728  13.091  18.568  0.00  0.00    +0.000 A 
ATOM     25  C   UNL     1      -7.295  12.594  19.805  0.00  0.00    +0.000 A 
ATOM     26  C   UNL     1      -6.104  11.865  19.926  0.00  0.00    +0.000 A 
ATOM     27  C   UNL     1      -5.382  11.690  18.750  0.00  0.00    +0.000 A 
ATOM     28  O   UNL     1      -4.176  11.072  18.588  0.00  0.00    +0.000 OA
ENDBRANCH  17  18
ENDBRANCH  16  17
ENDBRANCH  15  16
ENDBRANCH   4  15
TORSDOF 9
ENDMDL
