MODEL 1
REMARK VINA RESULT:      -9.1      0.000      0.000
REMARK  Name = 
REMARK  11 active torsions:
REMARK  status: ('A' for Active; 'I' for Inactive)
REMARK    1  A    between atoms: C_1  and  C_2
REMARK    2  A    between atoms: C_5  and  C_6
REMARK    3  A    between atoms: C_7  and  C_8
REMARK    4  A    between atoms: C_10  and  C_11
REMARK    5  A    between atoms: C_11  and  O_12
REMARK    6  A    between atoms: O_12  and  C_13
REMARK    7  A    between atoms: C_16  and  C_17
REMARK    8  A    between atoms: C_17  and  C_18
REMARK    9  A    between atoms: C_18  and  C_19
REMARK   10  A    between atoms: C_19  and  O_21
REMARK   11  A    between atoms: C_26  and  C_27
REMARK                            x       y       z     vdW  Elec       q    Type
REMARK                         _______ _______ _______ _____ _____    ______ ____
ROOT
ATOM      1  C   UNL     1       4.484   5.466  17.011  0.00  0.00    +0.000 A 
ATOM      2  C   UNL     1       3.860   6.663  17.380  0.00  0.00    +0.000 A 
ATOM      3  C   UNL     1       2.696   6.674  18.163  0.00  0.00    +0.000 A 
ATOM      4  C   UNL     1       2.102   5.461  18.523  0.00  0.00    +0.000 A 
ATOM      5  C   UNL     1       2.685   4.247  18.144  0.00  0.00    +0.000 A 
ATOM      6  C   UNL     1       3.884   4.263  17.409  0.00  0.00    +0.000 A 
ENDROOT
BRANCH   1  13
ATOM      7  C   UNL     1       5.290   4.243  14.012  0.00  0.00    +0.000 C 
ATOM      8  C   UNL     1       6.116   4.966  15.012  0.00  0.00    +0.000 A 
ATOM      9  N   UNL     1       7.398   5.217  14.726  0.00  0.00    +0.000 NA
ATOM     10  O   UNL     1       7.897   5.911  15.803  0.00  0.00    +0.000 OA
ATOM     11  C   UNL     1       6.924   6.077  16.738  0.00  0.00    +0.000 A 
ATOM     12  C   UNL     1       7.352   6.798  17.955  0.00  0.00    +0.000 C 
ATOM     13  C   UNL     1       5.753   5.493  16.291  0.00  0.00    +0.000 A 
ENDBRANCH   1  13
BRANCH   5  14
ATOM     14  C   UNL     1       2.067   2.930  18.547  0.00  0.00    +0.000 C 
ATOM     15  F   UNL     1       0.705   2.947  18.548  0.00  0.00    +0.000 F 
ATOM     16  F   UNL     1       2.429   1.911  17.720  0.00  0.00    +0.000 F 
ATOM     17  F   UNL     1       2.436   2.546  19.799  0.00  0.00    +0.000 F 
ENDBRANCH   5  14
BRANCH   3  18
ATOM     18  C   UNL     1       2.186   7.973  18.733  0.00  0.00    +0.000 C 
BRANCH  18  19
ATOM     19  O   UNL     1       1.697   7.778  20.059  0.00  0.00    +0.000 OA
BRANCH  19  20
ATOM     20  C   UNL     1       1.133   8.886  20.636  0.00  0.00    +0.000 A 
ATOM     21  C   UNL     1       0.943  10.113  19.995  0.00  0.00    +0.000 A 
ATOM     22  C   UNL     1       0.293  11.159  20.653  0.00  0.00    +0.000 A 
ATOM     23  C   UNL     1      -0.160  10.999  21.967  0.00  0.00    +0.000 A 
ATOM     24  C   UNL     1       0.074   9.779  22.608  0.00  0.00    +0.000 A 
ATOM     25  F   UNL     1      -0.344   9.596  23.868  0.00  0.00    +0.000 F 
ATOM     26  C   UNL     1       0.719   8.730  21.957  0.00  0.00    +0.000 A 
BRANCH  23  27
ATOM     27  C   UNL     1      -0.927  12.110  22.637  0.00  0.00    +0.000 C 
BRANCH  27  28
ATOM     28  C   UNL     1      -2.402  12.149  22.248  0.00  0.00    +0.000 C 
BRANCH  28  29
ATOM     29  C   UNL     1      -3.253  12.546  23.429  0.00  0.00    +0.000 C 
ATOM     30  O   UNL     1      -3.818  11.772  24.183  0.00  0.00    +0.000 OA
BRANCH  29  31
ATOM     31  O   UNL     1      -3.347  13.889  23.568  0.00  0.00    +0.000 OA
ATOM     32  H   UNL     1      -4.040  14.172  24.195  0.00  0.00    +0.000 HD
ENDBRANCH  29  31
ENDBRANCH  28  29
ENDBRANCH  27  28
ENDBRANCH  23  27
ENDBRANCH  19  20
ENDBRANCH  18  19
ENDBRANCH   3  18
TORSDOF 9
ENDMDL
MODEL 2
REMARK VINA RESULT:      -8.9      0.996      1.318
REMARK  Name = 
REMARK  11 active torsions:
REMARK  status: ('A' for Active; 'I' for Inactive)
REMARK    1  A    between atoms: C_1  and  C_2
REMARK    2  A    between atoms: C_5  and  C_6
REMARK    3  A    between atoms: C_7  and  C_8
REMARK    4  A    between atoms: C_10  and  C_11
REMARK    5  A    between atoms: C_11  and  O_12
REMARK    6  A    between atoms: O_12  and  C_13
REMARK    7  A    between atoms: C_16  and  C_17
REMARK    8  A    between atoms: C_17  and  C_18
REMARK    9  A    between atoms: C_18  and  C_19
REMARK   10  A    between atoms: C_19  and  O_21
REMARK   11  A    between atoms: C_26  and  C_27
REMARK                            x       y       z     vdW  Elec       q    Type
REMARK                         _______ _______ _______ _____ _____    ______ ____
ROOT
ATOM      1  C   UNL     1       4.477   5.424  17.037  0.00  0.00    +0.000 A 
ATOM      2  C   UNL     1       3.902   6.604  17.519  0.00  0.00    +0.000 A 
ATOM      3  C   UNL     1       2.763   6.585  18.341  0.00  0.00    +0.000 A 
ATOM      4  C   UNL     1       2.145   5.364  18.624  0.00  0.00    +0.000 A 
ATOM      5  C   UNL     1       2.679   4.168  18.132  0.00  0.00    +0.000 A 
ATOM      6  C   UNL     1       3.855   4.210  17.359  0.00  0.00    +0.000 A 
ENDROOT
BRANCH   1  13
ATOM      7  C   UNL     1       5.216   4.206  14.019  0.00  0.00    +0.000 C 
ATOM      8  C   UNL     1       6.057   4.949  14.991  0.00  0.00    +0.000 A 
ATOM      9  N   UNL     1       7.325   5.224  14.665  0.00  0.00    +0.000 NA
ATOM     10  O   UNL     1       7.842   5.933  15.724  0.00  0.00    +0.000 OA
ATOM     11  C   UNL     1       6.895   6.083  16.688  0.00  0.00    +0.000 A 
ATOM     12  C   UNL     1       7.345   6.817  17.889  0.00  0.00    +0.000 C 
ATOM     13  C   UNL     1       5.723   5.474  16.278  0.00  0.00    +0.000 A 
ENDBRANCH   1  13
BRANCH   5  14
ATOM     14  C   UNL     1       2.036   2.841  18.450  0.00  0.00    +0.000 C 
ATOM     15  F   UNL     1       0.674   2.877  18.423  0.00  0.00    +0.000 F 
ATOM     16  F   UNL     1       2.402   1.862  17.578  0.00  0.00    +0.000 F 
ATOM     17  F   UNL     1       2.372   2.386  19.688  0.00  0.00    +0.000 F 
ENDBRANCH   5  14
BRANCH   3  18
ATOM     18  C   UNL     1       2.311   7.848  19.028  0.00  0.00    +0.000 C 
BRANCH  18  19
ATOM     19  O   UNL     1       1.630   7.538  20.243  0.00  0.00    +0.000 OA
BRANCH  19  20
ATOM     20  C   UNL     1       0.958   8.588  20.813  0.00  0.00    +0.000 A 
ATOM     21  C   UNL     1       0.513   8.629  22.137  0.00  0.00    +0.000 A 
ATOM     22  C   UNL     1      -0.101   9.778  22.638  0.00  0.00    +0.000 A 
ATOM     23  C   UNL     1      -0.294  10.896  21.819  0.00  0.00    +0.000 A 
ATOM     24  C   UNL     1       0.121  10.824  20.486  0.00  0.00    +0.000 A 
ATOM     25  F   UNL     1      -0.054  11.876  19.675  0.00  0.00    +0.000 F 
ATOM     26  C   UNL     1       0.736   9.682  19.979  0.00  0.00    +0.000 A 
BRANCH  23  27
ATOM     27  C   UNL     1      -0.889  12.154  22.395  0.00  0.00    +0.000 C 
BRANCH  27  28
ATOM     28  C   UNL     1      -2.226  12.537  21.766  0.00  0.00    +0.000 C 
BRANCH  28  29
ATOM     29  C   UNL     1      -3.363  12.250  22.715  0.00  0.00    +0.000 C 
ATOM     30  O   UNL     1      -3.243  11.822  23.851  0.00  0.00    +0.000 OA
BRANCH  29  31
ATOM     31  O   UNL     1      -4.572  12.506  22.164  0.00  0.00    +0.000 OA
ATOM     32  H   UNL     1      -4.959  13.358  22.442  0.00  0.00    +0.000 HD
ENDBRANCH  29  31
ENDBRANCH  28  29
ENDBRANCH  27  28
ENDBRANCH  23  27
ENDBRANCH  19  20
ENDBRANCH  18  19
ENDBRANCH   3  18
TORSDOF 9
ENDMDL
MODEL 3
REMARK VINA RESULT:      -8.9      0.882      1.196
REMARK  Name = 
REMARK  11 active torsions:
REMARK  status: ('A' for Active; 'I' for Inactive)
REMARK    1  A    between atoms: C_1  and  C_2
REMARK    2  A    between atoms: C_5  and  C_6
REMARK    3  A    between atoms: C_7  and  C_8
REMARK    4  A    between atoms: C_10  and  C_11
REMARK    5  A    between atoms: C_11  and  O_12
REMARK    6  A    between atoms: O_12  and  C_13
REMARK    7  A    between atoms: C_16  and  C_17
REMARK    8  A    between atoms: C_17  and  C_18
REMARK    9  A    between atoms: C_18  and  C_19
REMARK   10  A    between atoms: C_19  and  O_21
REMARK   11  A    between atoms: C_26  and  C_27
REMARK                            x       y       z     vdW  Elec       q    Type
REMARK                         _______ _______ _______ _____ _____    ______ ____
ROOT
ATOM      1  C   UNL     1       4.637   5.484  16.919  0.00  0.00    +0.000 A 
ATOM      2  C   UNL     1       3.978   6.652  17.316  0.00  0.00    +0.000 A 
ATOM      3  C   UNL     1       2.816   6.610  18.102  0.00  0.00    +0.000 A 
ATOM      4  C   UNL     1       2.262   5.371  18.437  0.00  0.00    +0.000 A 
ATOM      5  C   UNL     1       2.881   4.184  18.030  0.00  0.00    +0.000 A 
ATOM      6  C   UNL     1       4.077   4.254  17.292  0.00  0.00    +0.000 A 
ENDROOT
BRANCH   1  13
ATOM      7  C   UNL     1       5.557   4.121  14.014  0.00  0.00    +0.000 C 
ATOM      8  C   UNL     1       6.314   4.981  14.958  0.00  0.00    +0.000 A 
ATOM      9  N   UNL     1       7.572   5.319  14.652  0.00  0.00    +0.000 NA
ATOM     10  O   UNL     1       8.005   6.129  15.675  0.00  0.00    +0.000 OA
ATOM     11  C   UNL     1       7.018   6.279  16.597  0.00  0.00    +0.000 A 
ATOM     12  C   UNL     1       7.379   7.120  17.759  0.00  0.00    +0.000 C 
ATOM     13  C   UNL     1       5.902   5.567  16.196  0.00  0.00    +0.000 A 
ENDBRANCH   1  13
BRANCH   5  14
ATOM     14  C   UNL     1       2.307   2.840  18.404  0.00  0.00    +0.000 C 
ATOM     15  F   UNL     1       3.125   2.105  19.209  0.00  0.00    +0.000 F 
ATOM     16  F   UNL     1       1.125   2.946  19.070  0.00  0.00    +0.000 F 
ATOM     17  F   UNL     1       2.058   2.062  17.316  0.00  0.00    +0.000 F 
ENDBRANCH   5  14
BRANCH   3  18
ATOM     18  C   UNL     1       2.268   7.879  18.702  0.00  0.00    +0.000 C 
BRANCH  18  19
ATOM     19  O   UNL     1       1.889   7.666  20.061  0.00  0.00    +0.000 OA
BRANCH  19  20
ATOM     20  C   UNL     1       1.141   8.671  20.618  0.00  0.00    +0.000 A 
ATOM     21  C   UNL     1       0.546   9.714  19.904  0.00  0.00    +0.000 A 
ATOM     22  C   UNL     1      -0.256  10.650  20.561  0.00  0.00    +0.000 A 
ATOM     23  C   UNL     1      -0.459  10.566  21.943  0.00  0.00    +0.000 A 
ATOM     24  C   UNL     1       0.177   9.540  22.648  0.00  0.00    +0.000 A 
ATOM     25  F   UNL     1       0.006   9.434  23.973  0.00  0.00    +0.000 F 
ATOM     26  C   UNL     1       0.976   8.601  21.999  0.00  0.00    +0.000 A 
BRANCH  23  27
ATOM     27  C   UNL     1      -1.387  11.537  22.625  0.00  0.00    +0.000 C 
BRANCH  27  28
ATOM     28  C   UNL     1      -1.492  12.881  21.908  0.00  0.00    +0.000 C 
BRANCH  28  29
ATOM     29  C   UNL     1      -2.884  13.086  21.364  0.00  0.00    +0.000 C 
ATOM     30  O   UNL     1      -3.892  12.537  21.777  0.00  0.00    +0.000 OA
BRANCH  29  31
ATOM     31  O   UNL     1      -2.909  13.956  20.328  0.00  0.00    +0.000 OA
ATOM     32  H   UNL     1      -3.463  14.745  20.489  0.00  0.00    +0.000 HD
ENDBRANCH  29  31
ENDBRANCH  28  29
ENDBRANCH  27  28
ENDBRANCH  23  27
ENDBRANCH  19  20
ENDBRANCH  18  19
ENDBRANCH   3  18
TORSDOF 9
ENDMDL
MODEL 4
REMARK VINA RESULT:      -8.8      1.220      1.587
REMARK  Name = 
REMARK  11 active torsions:
REMARK  status: ('A' for Active; 'I' for Inactive)
REMARK    1  A    between atoms: C_1  and  C_2
REMARK    2  A    between atoms: C_5  and  C_6
REMARK    3  A    between atoms: C_7  and  C_8
REMARK    4  A    between atoms: C_10  and  C_11
REMARK    5  A    between atoms: C_11  and  O_12
REMARK    6  A    between atoms: O_12  and  C_13
REMARK    7  A    between atoms: C_16  and  C_17
REMARK    8  A    between atoms: C_17  and  C_18
REMARK    9  A    between atoms: C_18  and  C_19
REMARK   10  A    between atoms: C_19  and  O_21
REMARK   11  A    between atoms: C_26  and  C_27
REMARK                            x       y       z     vdW  Elec       q    Type
REMARK                         _______ _______ _______ _____ _____    ______ ____
ROOT
ATOM      1  C   UNL     1       4.382   5.005  17.828  0.00  0.00    +0.000 A 
ATOM      2  C   UNL     1       3.808   6.246  18.123  0.00  0.00    +0.000 A 
ATOM      3  C   UNL     1       2.577   6.347  18.789  0.00  0.00    +0.000 A 
ATOM      4  C   UNL     1       1.870   5.181  19.101  0.00  0.00    +0.000 A 
ATOM      5  C   UNL     1       2.404   3.925  18.792  0.00  0.00    +0.000 A 
ATOM      6  C   UNL     1       3.667   3.851  18.177  0.00  0.00    +0.000 A 
ENDROOT
BRANCH   1  13
ATOM      7  C   UNL     1       5.321   4.277  14.709  0.00  0.00    +0.000 C 
ATOM      8  C   UNL     1       6.132   4.617  15.905  0.00  0.00    +0.000 A 
ATOM      9  N   UNL     1       7.463   4.675  15.784  0.00  0.00    +0.000 NA
ATOM     10  O   UNL     1       7.940   5.034  17.023  0.00  0.00    +0.000 OA
ATOM     11  C   UNL     1       6.905   5.190  17.891  0.00  0.00    +0.000 A 
ATOM     12  C   UNL     1       7.301   5.559  19.266  0.00  0.00    +0.000 C 
ATOM     13  C   UNL     1       5.714   4.937  17.235  0.00  0.00    +0.000 A 
ENDBRANCH   1  13
BRANCH   5  14
ATOM     14  C   UNL     1       1.664   2.659  19.144  0.00  0.00    +0.000 C 
ATOM     15  F   UNL     1       0.595   2.411  18.335  0.00  0.00    +0.000 F 
ATOM     16  F   UNL     1       2.455   1.555  19.068  0.00  0.00    +0.000 F 
ATOM     17  F   UNL     1       1.172   2.683  20.413  0.00  0.00    +0.000 F 
ENDBRANCH   5  14
BRANCH   3  18
ATOM     18  C   UNL     1       2.103   7.686  19.294  0.00  0.00    +0.000 C 
BRANCH  18  19
ATOM     19  O   UNL     1       1.613   7.570  20.629  0.00  0.00    +0.000 OA
BRANCH  19  20
ATOM     20  C   UNL     1       0.911   8.656  21.084  0.00  0.00    +0.000 A 
ATOM     21  C   UNL     1       0.334   8.763  22.351  0.00  0.00    +0.000 A 
ATOM     22  C   UNL     1      -0.301   9.943  22.740  0.00  0.00    +0.000 A 
ATOM     23  C   UNL     1      -0.384  11.028  21.860  0.00  0.00    +0.000 A 
ATOM     24  C   UNL     1       0.164  10.891  20.582  0.00  0.00    +0.000 A 
ATOM     25  F   UNL     1       0.098  11.911  19.714  0.00  0.00    +0.000 F 
ATOM     26  C   UNL     1       0.801   9.717  20.187  0.00  0.00    +0.000 A 
BRANCH  23  27
ATOM     27  C   UNL     1      -1.004  12.321  22.320  0.00  0.00    +0.000 C 
BRANCH  27  28
ATOM     28  C   UNL     1      -2.531  12.294  22.326  0.00  0.00    +0.000 C 
BRANCH  28  29
ATOM     29  C   UNL     1      -3.067  12.810  23.638  0.00  0.00    +0.000 C 
ATOM     30  O   UNL     1      -2.694  13.824  24.204  0.00  0.00    +0.000 OA
BRANCH  29  31
ATOM     31  O   UNL     1      -4.026  12.007  24.155  0.00  0.00    +0.000 OA
ATOM     32  H   UNL     1      -4.542  12.421  24.873  0.00  0.00    +0.000 HD
ENDBRANCH  29  31
ENDBRANCH  28  29
ENDBRANCH  27  28
ENDBRANCH  23  27
ENDBRANCH  19  20
ENDBRANCH  18  19
ENDBRANCH   3  18
TORSDOF 9
ENDMDL
MODEL 5
REMARK VINA RESULT:      -8.8      1.167      1.612
REMARK  Name = 
REMARK  11 active torsions:
REMARK  status: ('A' for Active; 'I' for Inactive)
REMARK    1  A    between atoms: C_1  and  C_2
REMARK    2  A    between atoms: C_5  and  C_6
REMARK    3  A    between atoms: C_7  and  C_8
REMARK    4  A    between atoms: C_10  and  C_11
REMARK    5  A    between atoms: C_11  and  O_12
REMARK    6  A    between atoms: O_12  and  C_13
REMARK    7  A    between atoms: C_16  and  C_17
REMARK    8  A    between atoms: C_17  and  C_18
REMARK    9  A    between atoms: C_18  and  C_19
REMARK   10  A    between atoms: C_19  and  O_21
REMARK   11  A    between atoms: C_26  and  C_27
REMARK                            x       y       z     vdW  Elec       q    Type
REMARK                         _______ _______ _______ _____ _____    ______ ____
ROOT
ATOM      1  C   UNL     1       4.603   5.488  17.352  0.00  0.00    +0.000 A 
ATOM      2  C   UNL     1       3.858   6.636  17.641  0.00  0.00    +0.000 A 
ATOM      3  C   UNL     1       2.770   6.604  18.527  0.00  0.00    +0.000 A 
ATOM      4  C   UNL     1       2.374   5.382  19.079  0.00  0.00    +0.000 A 
ATOM      5  C   UNL     1       3.080   4.210  18.787  0.00  0.00    +0.000 A 
ATOM      6  C   UNL     1       4.203   4.280  17.941  0.00  0.00    +0.000 A 
ENDROOT
BRANCH   1  13
ATOM      7  C   UNL     1       5.199   4.256  14.308  0.00  0.00    +0.000 C 
ATOM      8  C   UNL     1       6.068   5.049  15.214  0.00  0.00    +0.000 A 
ATOM      9  N   UNL     1       7.299   5.373  14.804  0.00  0.00    +0.000 NA
ATOM     10  O   UNL     1       7.852   6.119  15.818  0.00  0.00    +0.000 OA
ATOM     11  C   UNL     1       6.962   6.244  16.839  0.00  0.00    +0.000 A 
ATOM     12  C   UNL     1       7.457   7.015  17.999  0.00  0.00    +0.000 C 
ATOM     13  C   UNL     1       5.794   5.579  16.514  0.00  0.00    +0.000 A 
ENDBRANCH   1  13
BRANCH   5  14
ATOM     14  C   UNL     1       2.678   2.889  19.395  0.00  0.00    +0.000 C 
ATOM     15  F   UNL     1       2.853   1.829  18.555  0.00  0.00    +0.000 F 
ATOM     16  F   UNL     1       3.386   2.596  20.520  0.00  0.00    +0.000 F 
ATOM     17  F   UNL     1       1.367   2.864  19.758  0.00  0.00    +0.000 F 
ENDBRANCH   5  14
BRANCH   3  18
ATOM     18  C   UNL     1       2.141   7.892  18.992  0.00  0.00    +0.000 C 
BRANCH  18  19
ATOM     19  O   UNL     1       1.656   7.757  20.327  0.00  0.00    +0.000 OA
BRANCH  19  20
ATOM     20  C   UNL     1       0.919   8.818  20.784  0.00  0.00    +0.000 A 
ATOM     21  C   UNL     1       0.601   9.054  22.124  0.00  0.00    +0.000 A 
ATOM     22  C   UNL     1      -0.097  10.205  22.492  0.00  0.00    +0.000 A 
ATOM     23  C   UNL     1      -0.503  11.129  21.522  0.00  0.00    +0.000 A 
ATOM     24  C   UNL     1      -0.213  10.859  20.182  0.00  0.00    +0.000 A 
ATOM     25  F   UNL     1      -0.592  11.722  19.229  0.00  0.00    +0.000 F 
ATOM     26  C   UNL     1       0.486   9.713  19.808  0.00  0.00    +0.000 A 
BRANCH  23  27
ATOM     27  C   UNL     1      -1.189  12.403  21.941  0.00  0.00    +0.000 C 
BRANCH  27  28
ATOM     28  C   UNL     1      -1.846  12.315  23.317  0.00  0.00    +0.000 C 
BRANCH  28  29
ATOM     29  C   UNL     1      -3.346  12.223  23.185  0.00  0.00    +0.000 C 
ATOM     30  O   UNL     1      -3.973  12.357  22.148  0.00  0.00    +0.000 OA
BRANCH  29  31
ATOM     31  O   UNL     1      -3.953  11.985  24.371  0.00  0.00    +0.000 OA
ATOM     32  H   UNL     1      -3.617  11.193  24.833  0.00  0.00    +0.000 HD
ENDBRANCH  29  31
ENDBRANCH  28  29
ENDBRANCH  27  28
ENDBRANCH  23  27
ENDBRANCH  19  20
ENDBRANCH  18  19
ENDBRANCH   3  18
TORSDOF 9
ENDMDL
MODEL 6
REMARK VINA RESULT:      -8.8      0.902      1.138
REMARK  Name = 
REMARK  11 active torsions:
REMARK  status: ('A' for Active; 'I' for Inactive)
REMARK    1  A    between atoms: C_1  and  C_2
REMARK    2  A    between atoms: C_5  and  C_6
REMARK    3  A    between atoms: C_7  and  C_8
REMARK    4  A    between atoms: C_10  and  C_11
REMARK    5  A    between atoms: C_11  and  O_12
REMARK    6  A    between atoms: O_12  and  C_13
REMARK    7  A    between atoms: C_16  and  C_17
REMARK    8  A    between atoms: C_17  and  C_18
REMARK    9  A    between atoms: C_18  and  C_19
REMARK   10  A    between atoms: C_19  and  O_21
REMARK   11  A    between atoms: C_26  and  C_27
REMARK                            x       y       z     vdW  Elec       q    Type
REMARK                         _______ _______ _______ _____ _____    ______ ____
ROOT
ATOM      1  C   UNL     1       4.465   5.307  17.178  0.00  0.00    +0.000 A 
ATOM      2  C   UNL     1       3.924   6.397  17.870  0.00  0.00    +0.000 A 
ATOM      3  C   UNL     1       2.817   6.252  18.720  0.00  0.00    +0.000 A 
ATOM      4  C   UNL     1       2.192   5.006  18.823  0.00  0.00    +0.000 A 
ATOM      5  C   UNL     1       2.690   3.903  18.120  0.00  0.00    +0.000 A 
ATOM      6  C   UNL     1       3.837   4.062  17.321  0.00  0.00    +0.000 A 
ENDROOT
BRANCH   1  13
ATOM      7  C   UNL     1       5.233   4.181  14.132  0.00  0.00    +0.000 C 
ATOM      8  C   UNL     1       6.030   4.987  15.091  0.00  0.00    +0.000 A 
ATOM      9  N   UNL     1       7.261   5.374  14.738  0.00  0.00    +0.000 NA
ATOM     10  O   UNL     1       7.741   6.116  15.792  0.00  0.00    +0.000 OA
ATOM     11  C   UNL     1       6.808   6.176  16.779  0.00  0.00    +0.000 A 
ATOM     12  C   UNL     1       7.222   6.937  17.976  0.00  0.00    +0.000 C 
ATOM     13  C   UNL     1       5.683   5.471  16.391  0.00  0.00    +0.000 A 
ENDBRANCH   1  13
BRANCH   5  14
ATOM     14  C   UNL     1       2.040   2.547  18.241  0.00  0.00    +0.000 C 
ATOM     15  F   UNL     1       0.680   2.600  18.311  0.00  0.00    +0.000 F 
ATOM     16  F   UNL     1       2.330   1.735  17.188  0.00  0.00    +0.000 F 
ATOM     17  F   UNL     1       2.444   1.876  19.355  0.00  0.00    +0.000 F 
ENDBRANCH   5  14
BRANCH   3  18
ATOM     18  C   UNL     1       2.408   7.388  19.621  0.00  0.00    +0.000 C 
BRANCH  18  19
ATOM     19  O   UNL     1       1.674   8.368  18.888  0.00  0.00    +0.000 OA
BRANCH  19  20
ATOM     20  C   UNL     1       1.001   9.281  19.657  0.00  0.00    +0.000 A 
ATOM     21  C   UNL     1       0.275  10.367  19.160  0.00  0.00    +0.000 A 
ATOM     22  C   UNL     1      -0.435  11.198  20.028  0.00  0.00    +0.000 A 
ATOM     23  C   UNL     1      -0.414  10.966  21.408  0.00  0.00    +0.000 A 
ATOM     24  C   UNL     1       0.348   9.901  21.893  0.00  0.00    +0.000 A 
ATOM     25  F   UNL     1       0.392   9.655  23.210  0.00  0.00    +0.000 F 
ATOM     26  C   UNL     1       1.057   9.065  21.033  0.00  0.00    +0.000 A 
BRANCH  23  27
ATOM     27  C   UNL     1      -1.246  11.825  22.325  0.00  0.00    +0.000 C 
BRANCH  27  28
ATOM     28  C   UNL     1      -0.676  13.227  22.525  0.00  0.00    +0.000 C 
BRANCH  28  29
ATOM     29  C   UNL     1      -1.388  13.935  23.651  0.00  0.00    +0.000 C 
ATOM     30  O   UNL     1      -0.876  14.731  24.421  0.00  0.00    +0.000 OA
BRANCH  29  31
ATOM     31  O   UNL     1      -2.691  13.581  23.740  0.00  0.00    +0.000 OA
ATOM     32  H   UNL     1      -3.303  14.341  23.795  0.00  0.00    +0.000 HD
ENDBRANCH  29  31
ENDBRANCH  28  29
ENDBRANCH  27  28
ENDBRANCH  23  27
ENDBRANCH  19  20
ENDBRANCH  18  19
ENDBRANCH   3  18
TORSDOF 9
ENDMDL
MODEL 7
REMARK VINA RESULT:      -8.7      1.873      2.611
REMARK  Name = 
REMARK  11 active torsions:
REMARK  status: ('A' for Active; 'I' for Inactive)
REMARK    1  A    between atoms: C_1  and  C_2
REMARK    2  A    between atoms: C_5  and  C_6
REMARK    3  A    between atoms: C_7  and  C_8
REMARK    4  A    between atoms: C_10  and  C_11
REMARK    5  A    between atoms: C_11  and  O_12
REMARK    6  A    between atoms: O_12  and  C_13
REMARK    7  A    between atoms: C_16  and  C_17
REMARK    8  A    between atoms: C_17  and  C_18
REMARK    9  A    between atoms: C_18  and  C_19
REMARK   10  A    between atoms: C_19  and  O_21
REMARK   11  A    between atoms: C_26  and  C_27
REMARK                            x       y       z     vdW  Elec       q    Type
REMARK                         _______ _______ _______ _____ _____    ______ ____
ROOT
ATOM      1  C   UNL     1       4.571   5.437  17.687  0.00  0.00    +0.000 A 
ATOM      2  C   UNL     1       4.122   6.743  17.462  0.00  0.00    +0.000 A 
ATOM      3  C   UNL     1       2.862   7.174  17.907  0.00  0.00    +0.000 A 
ATOM      4  C   UNL     1       2.005   6.258  18.526  0.00  0.00    +0.000 A 
ATOM      5  C   UNL     1       2.414   4.937  18.738  0.00  0.00    +0.000 A 
ATOM      6  C   UNL     1       3.704   4.546  18.334  0.00  0.00    +0.000 A 
ENDROOT
BRANCH   1  13
ATOM      7  C   UNL     1       7.404   5.514  19.450  0.00  0.00    +0.000 C 
ATOM      8  C   UNL     1       7.151   5.091  18.049  0.00  0.00    +0.000 A 
ATOM      9  N   UNL     1       8.178   4.642  17.318  0.00  0.00    +0.000 NA
ATOM     10  O   UNL     1       7.651   4.302  16.094  0.00  0.00    +0.000 OA
ATOM     11  C   UNL     1       6.313   4.546  16.082  0.00  0.00    +0.000 A 
ATOM     12  C   UNL     1       5.639   4.235  14.804  0.00  0.00    +0.000 C 
ATOM     13  C   UNL     1       5.928   5.055  17.309  0.00  0.00    +0.000 A 
ENDBRANCH   1  13
BRANCH   5  14
ATOM     14  C   UNL     1       1.508   3.945  19.425  0.00  0.00    +0.000 C 
ATOM     15  F   UNL     1       0.701   4.508  20.367  0.00  0.00    +0.000 F 
ATOM     16  F   UNL     1       0.679   3.307  18.554  0.00  0.00    +0.000 F 
ATOM     17  F   UNL     1       2.204   2.967  20.067  0.00  0.00    +0.000 F 
ENDBRANCH   5  14
BRANCH   3  18
ATOM     18  C   UNL     1       2.508   8.638  17.856  0.00  0.00    +0.000 C 
BRANCH  18  19
ATOM     19  O   UNL     1       1.098   8.805  17.714  0.00  0.00    +0.000 OA
BRANCH  19  20
ATOM     20  C   UNL     1       0.574   9.885  18.375  0.00  0.00    +0.000 A 
ATOM     21  C   UNL     1      -0.778  10.235  18.390  0.00  0.00    +0.000 A 
ATOM     22  C   UNL     1      -1.218  11.317  19.155  0.00  0.00    +0.000 A 
ATOM     23  C   UNL     1      -0.309  12.075  19.902  0.00  0.00    +0.000 A 
ATOM     24  C   UNL     1       1.046  11.736  19.844  0.00  0.00    +0.000 A 
ATOM     25  F   UNL     1       1.942  12.444  20.545  0.00  0.00    +0.000 F 
ATOM     26  C   UNL     1       1.492  10.657  19.085  0.00  0.00    +0.000 A 
BRANCH  23  27
ATOM     27  C   UNL     1      -0.808  13.191  20.782  0.00  0.00    +0.000 C 
BRANCH  27  28
ATOM     28  C   UNL     1      -0.431  13.021  22.251  0.00  0.00    +0.000 C 
BRANCH  28  29
ATOM     29  C   UNL     1      -1.043  11.762  22.815  0.00  0.00    +0.000 C 
ATOM     30  O   UNL     1      -0.423  10.771  23.162  0.00  0.00    +0.000 OA
BRANCH  29  31
ATOM     31  O   UNL     1      -2.392  11.832  22.887  0.00  0.00    +0.000 OA
ATOM     32  H   UNL     1      -2.830  10.961  22.931  0.00  0.00    +0.000 HD
ENDBRANCH  29  31
ENDBRANCH  28  29
ENDBRANCH  27  28
ENDBRANCH  23  27
ENDBRANCH  19  20
ENDBRANCH  18  19
ENDBRANCH   3  18
TORSDOF 9
ENDMDL
MODEL 8
REMARK VINA RESULT:      -8.7      2.414      2.695
REMARK  Name = 
REMARK  11 active torsions:
REMARK  status: ('A' for Active; 'I' for Inactive)
REMARK    1  A    between atoms: C_1  and  C_2
REMARK    2  A    between atoms: C_5  and  C_6
REMARK    3  A    between atoms: C_7  and  C_8
REMARK    4  A    between atoms: C_10  and  C_11
REMARK    5  A    between atoms: C_11  and  O_12
REMARK    6  A    between atoms: O_12  and  C_13
REMARK    7  A    between atoms: C_16  and  C_17
REMARK    8  A    between atoms: C_17  and  C_18
REMARK    9  A    between atoms: C_18  and  C_19
REMARK   10  A    between atoms: C_19  and  O_21
REMARK   11  A    between atoms: C_26  and  C_27
REMARK                            x       y       z     vdW  Elec       q    Type
REMARK                         _______ _______ _______ _____ _____    ______ ____
ROOT
ATOM      1  C   UNL     1       4.642   5.030  17.284  0.00  0.00    +0.000 A 
ATOM      2  C   UNL     1       3.944   6.062  17.920  0.00  0.00    +0.000 A 
ATOM      3  C   UNL     1       2.891   5.798  18.810  0.00  0.00    +0.000 A 
ATOM      4  C   UNL     1       2.481   4.476  19.011  0.00  0.00    +0.000 A 
ATOM      5  C   UNL     1       3.139   3.424  18.366  0.00  0.00    +0.000 A 
ATOM      6  C   UNL     1       4.230   3.712  17.524  0.00  0.00    +0.000 A 
ENDROOT
BRANCH   1  13
ATOM      7  C   UNL     1       5.311   4.191  14.123  0.00  0.00    +0.000 C 
ATOM      8  C   UNL     1       6.106   4.974  15.101  0.00  0.00    +0.000 A 
ATOM      9  N   UNL     1       7.289   5.470  14.719  0.00  0.00    +0.000 NA
ATOM     10  O   UNL     1       7.778   6.162  15.802  0.00  0.00    +0.000 OA
ATOM     11  C   UNL     1       6.899   6.084  16.836  0.00  0.00    +0.000 A 
ATOM     12  C   UNL     1       7.329   6.779  18.068  0.00  0.00    +0.000 C 
ATOM     13  C   UNL     1       5.802   5.335  16.452  0.00  0.00    +0.000 A 
ENDBRANCH   1  13
BRANCH   5  14
ATOM     14  C   UNL     1       2.722   1.992  18.593  0.00  0.00    +0.000 C 
ATOM     15  F   UNL     1       2.397   1.719  19.888  0.00  0.00    +0.000 F 
ATOM     16  F   UNL     1       1.636   1.643  17.852  0.00  0.00    +0.000 F 
ATOM     17  F   UNL     1       3.703   1.108  18.261  0.00  0.00    +0.000 F 
ENDBRANCH   5  14
BRANCH   3  18
ATOM     18  C   UNL     1       2.320   6.912  19.649  0.00  0.00    +0.000 C 
BRANCH  18  19
ATOM     19  O   UNL     1       2.515   8.171  19.007  0.00  0.00    +0.000 OA
BRANCH  19  20
ATOM     20  C   UNL     1       1.410   8.981  18.975  0.00  0.00    +0.000 A 
ATOM     21  C   UNL     1       0.810   9.469  17.812  0.00  0.00    +0.000 A 
ATOM     22  C   UNL     1      -0.357  10.232  17.888  0.00  0.00    +0.000 A 
ATOM     23  C   UNL     1      -0.930  10.533  19.129  0.00  0.00    +0.000 A 
ATOM     24  C   UNL     1      -0.294  10.070  20.284  0.00  0.00    +0.000 A 
ATOM     25  F   UNL     1      -0.815  10.345  21.488  0.00  0.00    +0.000 F 
ATOM     26  C   UNL     1       0.869   9.307  20.217  0.00  0.00    +0.000 A 
BRANCH  23  27
ATOM     27  C   UNL     1      -2.230  11.291  19.191  0.00  0.00    +0.000 C 
BRANCH  27  28
ATOM     28  C   UNL     1      -2.703  11.797  17.830  0.00  0.00    +0.000 C 
BRANCH  28  29
ATOM     29  C   UNL     1      -4.148  11.429  17.599  0.00  0.00    +0.000 C 
ATOM     30  O   UNL     1      -4.717  10.465  18.082  0.00  0.00    +0.000 OA
BRANCH  29  31
ATOM     31  O   UNL     1      -4.772  12.292  16.764  0.00  0.00    +0.000 OA
ATOM     32  H   UNL     1      -4.182  12.686  16.092  0.00  0.00    +0.000 HD
ENDBRANCH  29  31
ENDBRANCH  28  29
ENDBRANCH  27  28
ENDBRANCH  23  27
ENDBRANCH  19  20
ENDBRANCH  18  19
ENDBRANCH   3  18
TORSDOF 9
ENDMDL
MODEL 9
REMARK VINA RESULT:      -8.7      0.964      2.116
REMARK  Name = 
REMARK  11 active torsions:
REMARK  status: ('A' for Active; 'I' for Inactive)
REMARK    1  A    between atoms: C_1  and  C_2
REMARK    2  A    between atoms: C_5  and  C_6
REMARK    3  A    between atoms: C_7  and  C_8
REMARK    4  A    between atoms: C_10  and  C_11
REMARK    5  A    between atoms: C_11  and  O_12
REMARK    6  A    between atoms: O_12  and  C_13
REMARK    7  A    between atoms: C_16  and  C_17
REMARK    8  A    between atoms: C_17  and  C_18
REMARK    9  A    between atoms: C_18  and  C_19
REMARK   10  A    between atoms: C_19  and  O_21
REMARK   11  A    between atoms: C_26  and  C_27
REMARK                            x       y       z     vdW  Elec       q    Type
REMARK                         _______ _______ _______ _____ _____    ______ ____
ROOT
ATOM      1  C   UNL     1       4.481   5.484  17.055  0.00  0.00    +0.000 A 
ATOM      2  C   UNL     1       3.837   6.657  17.463  0.00  0.00    +0.000 A 
ATOM      3  C   UNL     1       2.671   6.622  18.244  0.00  0.00    +0.000 A 
ATOM      4  C   UNL     1       2.097   5.388  18.562  0.00  0.00    +0.000 A 
ATOM      5  C   UNL     1       2.701   4.197  18.143  0.00  0.00    +0.000 A 
ATOM      6  C   UNL     1       3.901   4.259  17.411  0.00  0.00    +0.000 A 
ENDROOT
BRANCH   1  13
ATOM      7  C   UNL     1       7.374   6.898  17.933  0.00  0.00    +0.000 C 
ATOM      8  C   UNL     1       6.994   6.168  16.698  0.00  0.00    +0.000 A 
ATOM      9  N   UNL     1       7.915   5.996  15.743  0.00  0.00    +0.000 NA
ATOM     10  O   UNL     1       7.298   5.274  14.748  0.00  0.00    +0.000 OA
ATOM     11  C   UNL     1       6.011   5.011  15.096  0.00  0.00    +0.000 A 
ATOM     12  C   UNL     1       5.240   4.251  14.090  0.00  0.00    +0.000 C 
ATOM     13  C   UNL     1       5.750   5.558  16.340  0.00  0.00    +0.000 A 
ENDBRANCH   1  13
BRANCH   5  14
ATOM     14  C   UNL     1       2.106   2.857  18.499  0.00  0.00    +0.000 C 
ATOM     15  F   UNL     1       2.716   2.255  19.558  0.00  0.00    +0.000 F 
ATOM     16  F   UNL     1       0.788   2.944  18.826  0.00  0.00    +0.000 F 
ATOM     17  F   UNL     1       2.181   1.968  17.471  0.00  0.00    +0.000 F 
ENDBRANCH   5  14
BRANCH   3  18
ATOM     18  C   UNL     1       2.138   7.893  18.857  0.00  0.00    +0.000 C 
BRANCH  18  19
ATOM     19  O   UNL     1       1.788   7.679  20.223  0.00  0.00    +0.000 OA
BRANCH  19  20
ATOM     20  C   UNL     1       1.054   8.685  20.796  0.00  0.00    +0.000 A 
ATOM     21  C   UNL     1       0.486   8.635  22.072  0.00  0.00    +0.000 A 
ATOM     22  C   UNL     1      -0.184   9.744  22.589  0.00  0.00    +0.000 A 
ATOM     23  C   UNL     1      -0.313  10.913  21.831  0.00  0.00    +0.000 A 
ATOM     24  C   UNL     1       0.226  10.933  20.542  0.00  0.00    +0.000 A 
ATOM     25  F   UNL     1       0.116  12.036  19.789  0.00  0.00    +0.000 F 
ATOM     26  C   UNL     1       0.898   9.831  20.019  0.00  0.00    +0.000 A 
BRANCH  23  27
ATOM     27  C   UNL     1      -0.973  12.127  22.431  0.00  0.00    +0.000 C 
BRANCH  27  28
ATOM     28  C   UNL     1      -2.497  12.046  22.443  0.00  0.00    +0.000 C 
BRANCH  28  29
ATOM     29  C   UNL     1      -3.058  12.744  23.657  0.00  0.00    +0.000 C 
ATOM     30  O   UNL     1      -2.639  13.788  24.128  0.00  0.00    +0.000 OA
BRANCH  29  31
ATOM     31  O   UNL     1      -4.097  12.071  24.205  0.00  0.00    +0.000 OA
ATOM     32  H   UNL     1      -4.191  12.208  25.167  0.00  0.00    +0.000 HD
ENDBRANCH  29  31
ENDBRANCH  28  29
ENDBRANCH  27  28
ENDBRANCH  23  27
ENDBRANCH  19  20
ENDBRANCH  18  19
ENDBRANCH   3  18
TORSDOF 9
ENDMDL
