MODEL 1
REMARK VINA RESULT:      -8.4      0.000      0.000
REMARK  Name = 
REMARK  6 active torsions:
REMARK  status: ('A' for Active; 'I' for Inactive)
REMARK    1  A    between atoms: C_7  and  C_8
REMARK    2  A    between atoms: N_16  and  C_17
REMARK    3  A    between atoms: C_17  and  C_18
REMARK    4  A    between atoms: C_18  and  C_19
REMARK    5  A    between atoms: C_19  and  C_20
REMARK    6  A    between atoms: C_20  and  C_21
REMARK                            x       y       z     vdW  Elec       q    Type
REMARK                         _______ _______ _______ _____ _____    ______ ____
ROOT
ATOM      1 CL   UNL     1       8.273   5.226  12.108  0.00  0.00    +0.000 Cl
ATOM      2  C   UNL     1       7.093   4.836  13.345  0.00  0.00    +0.000 A 
ATOM      3  C   UNL     1       6.054   3.943  13.078  0.00  0.00    +0.000 A 
ATOM      4  C   UNL     1       5.135   3.625  14.080  0.00  0.00    +0.000 A 
ATOM      5  C   UNL     1       5.263   4.193  15.353  0.00  0.00    +0.000 A 
ATOM      6  S   UNL     1       4.179   3.782  16.574  0.00  0.00    +0.000 S 
ATOM      7  C   UNL     1       4.546   4.523  18.048  0.00  0.00    +0.000 A 
ATOM      8  C   UNL     1       5.634   5.410  18.054  0.00  0.00    +0.000 A 
ATOM      9  C   UNL     1       6.467   5.703  16.944  0.00  0.00    +0.000 A 
ATOM     10  N   UNL     1       7.425   6.561  17.072  0.00  0.00    +0.000 NA
ATOM     11  C   UNL     1       6.304   5.104  15.648  0.00  0.00    +0.000 A 
ATOM     12  C   UNL     1       7.210   5.420  14.607  0.00  0.00    +0.000 A 
ENDROOT
BRANCH   7  13
ATOM     13  C   UNL     1       3.773   4.201  19.285  0.00  0.00    +0.000 A 
ATOM     14  C   UNL     1       2.960   5.171  19.907  0.00  0.00    +0.000 A 
ATOM     15  C   UNL     1       2.273   4.888  21.083  0.00  0.00    +0.000 A 
ATOM     16  C   UNL     1       2.370   3.624  21.658  0.00  0.00    +0.000 A 
ATOM     17  C   UNL     1       3.168   2.647  21.061  0.00  0.00    +0.000 A 
ATOM     18  C   UNL     1       3.871   2.928  19.886  0.00  0.00    +0.000 A 
ENDBRANCH   7  13
BRANCH  10  19
ATOM     19  C   UNL     1       7.785   7.357  18.236  0.00  0.00    +0.000 C 
BRANCH  19  20
ATOM     20  C   UNL     1       7.945   8.823  17.790  0.00  0.00    +0.000 C 
BRANCH  20  21
ATOM     21  C   UNL     1       8.879   9.531  18.786  0.00  0.00    +0.000 C 
BRANCH  21  22
ATOM     22  C   UNL     1       9.448  10.899  18.382  0.00  0.00    +0.000 C 
BRANCH  22  23
ATOM     23  C   UNL     1      10.721  11.198  19.239  0.00  0.00    +0.000 C 
ATOM     24  C   UNL     1      11.791  12.005  18.464  0.00  0.00    +0.000 C 
ATOM     25  C   UNL     1      11.515  13.520  18.449  0.00  0.00    +0.000 C 
ATOM     26  C   UNL     1      11.402  14.046  19.885  0.00  0.00    +0.000 C 
ATOM     27  C   UNL     1      10.224  13.363  20.582  0.00  0.00    +0.000 C 
ATOM     28  C   UNL     1      10.480  11.851  20.638  0.00  0.00    +0.000 C 
ENDBRANCH  22  23
ENDBRANCH  21  22
ENDBRANCH  20  21
ENDBRANCH  19  20
ENDBRANCH  10  19
TORSDOF 6
ENDMDL
MODEL 2
REMARK VINA RESULT:      -8.2      0.448      1.050
REMARK  Name = 
REMARK  6 active torsions:
REMARK  status: ('A' for Active; 'I' for Inactive)
REMARK    1  A    between atoms: C_7  and  C_8
REMARK    2  A    between atoms: N_16  and  C_17
REMARK    3  A    between atoms: C_17  and  C_18
REMARK    4  A    between atoms: C_18  and  C_19
REMARK    5  A    between atoms: C_19  and  C_20
REMARK    6  A    between atoms: C_20  and  C_21
REMARK                            x       y       z     vdW  Elec       q    Type
REMARK                         _______ _______ _______ _____ _____    ______ ____
ROOT
ATOM      1 CL   UNL     1       8.635   5.359  12.231  0.00  0.00    +0.000 Cl
ATOM      2  C   UNL     1       7.403   4.971  13.417  0.00  0.00    +0.000 A 
ATOM      3  C   UNL     1       6.388   4.062  13.116  0.00  0.00    +0.000 A 
ATOM      4  C   UNL     1       5.427   3.747  14.078  0.00  0.00    +0.000 A 
ATOM      5  C   UNL     1       5.489   4.334  15.347  0.00  0.00    +0.000 A 
ATOM      6  S   UNL     1       4.354   3.926  16.523  0.00  0.00    +0.000 S 
ATOM      7  C   UNL     1       4.643   4.692  18.001  0.00  0.00    +0.000 A 
ATOM      8  C   UNL     1       5.720   5.592  18.044  0.00  0.00    +0.000 A 
ATOM      9  C   UNL     1       6.600   5.880  16.970  0.00  0.00    +0.000 A 
ATOM     10  N   UNL     1       7.541   6.752  17.131  0.00  0.00    +0.000 NA
ATOM     11  C   UNL     1       6.505   5.262  15.677  0.00  0.00    +0.000 A 
ATOM     12  C   UNL     1       7.454   5.574  14.675  0.00  0.00    +0.000 A 
ENDROOT
BRANCH   7  13
ATOM     13  C   UNL     1       3.818   4.377  19.205  0.00  0.00    +0.000 A 
ATOM     14  C   UNL     1       3.818   3.084  19.767  0.00  0.00    +0.000 A 
ATOM     15  C   UNL     1       3.017   2.774  20.862  0.00  0.00    +0.000 A 
ATOM     16  C   UNL     1       2.208   3.755  21.432  0.00  0.00    +0.000 A 
ATOM     17  C   UNL     1       2.192   5.042  20.893  0.00  0.00    +0.000 A 
ATOM     18  C   UNL     1       2.984   5.356  19.786  0.00  0.00    +0.000 A 
ENDBRANCH   7  13
BRANCH  10  19
ATOM     19  C   UNL     1       7.838   7.568  18.298  0.00  0.00    +0.000 C 
BRANCH  19  20
ATOM     20  C   UNL     1       7.960   9.035  17.846  0.00  0.00    +0.000 C 
BRANCH  20  21
ATOM     21  C   UNL     1       8.988   9.735  18.751  0.00  0.00    +0.000 C 
BRANCH  21  22
ATOM     22  C   UNL     1       9.808  10.883  18.144  0.00  0.00    +0.000 C 
BRANCH  22  23
ATOM     23  C   UNL     1      10.792  11.436  19.225  0.00  0.00    +0.000 C 
ATOM     24  C   UNL     1      11.447  12.777  18.811  0.00  0.00    +0.000 C 
ATOM     25  C   UNL     1      10.550  13.999  19.082  0.00  0.00    +0.000 C 
ATOM     26  C   UNL     1      10.160  14.044  20.565  0.00  0.00    +0.000 C 
ATOM     27  C   UNL     1       9.359  12.788  20.915  0.00  0.00    +0.000 C 
ATOM     28  C   UNL     1      10.235  11.550  20.680  0.00  0.00    +0.000 C 
ENDBRANCH  22  23
ENDBRANCH  21  22
ENDBRANCH  20  21
ENDBRANCH  19  20
ENDBRANCH  10  19
TORSDOF 6
ENDMDL
MODEL 3
REMARK VINA RESULT:      -8.1      5.475      9.280
REMARK  Name = 
REMARK  6 active torsions:
REMARK  status: ('A' for Active; 'I' for Inactive)
REMARK    1  A    between atoms: C_7  and  C_8
REMARK    2  A    between atoms: N_16  and  C_17
REMARK    3  A    between atoms: C_17  and  C_18
REMARK    4  A    between atoms: C_18  and  C_19
REMARK    5  A    between atoms: C_19  and  C_20
REMARK    6  A    between atoms: C_20  and  C_21
REMARK                            x       y       z     vdW  Elec       q    Type
REMARK                         _______ _______ _______ _____ _____    ______ ____
ROOT
ATOM      1 CL   UNL     1      -0.828  10.681  21.258  0.00  0.00    +0.000 Cl
ATOM      2  C   UNL     1       0.328  10.014  20.119  0.00  0.00    +0.000 A 
ATOM      3  C   UNL     1       0.713  10.741  18.991  0.00  0.00    +0.000 A 
ATOM      4  C   UNL     1       1.651  10.206  18.106  0.00  0.00    +0.000 A 
ATOM      5  C   UNL     1       2.211   8.948  18.356  0.00  0.00    +0.000 A 
ATOM      6  S   UNL     1       3.371   8.317  17.311  0.00  0.00    +0.000 S 
ATOM      7  C   UNL     1       3.969   6.823  17.826  0.00  0.00    +0.000 A 
ATOM      8  C   UNL     1       3.396   6.282  18.987  0.00  0.00    +0.000 A 
ATOM      9  C   UNL     1       2.393   6.898  19.778  0.00  0.00    +0.000 A 
ATOM     10  N   UNL     1       1.928   6.282  20.816  0.00  0.00    +0.000 NA
ATOM     11  C   UNL     1       1.836   8.190  19.490  0.00  0.00    +0.000 A 
ATOM     12  C   UNL     1       0.870   8.752  20.360  0.00  0.00    +0.000 A 
ENDROOT
BRANCH   7  13
ATOM     13  C   UNL     1       5.086   6.149  17.098  0.00  0.00    +0.000 A 
ATOM     14  C   UNL     1       5.020   5.933  15.706  0.00  0.00    +0.000 A 
ATOM     15  C   UNL     1       6.039   5.268  15.032  0.00  0.00    +0.000 A 
ATOM     16  C   UNL     1       7.155   4.815  15.730  0.00  0.00    +0.000 A 
ATOM     17  C   UNL     1       7.242   5.017  17.108  0.00  0.00    +0.000 A 
ATOM     18  C   UNL     1       6.218   5.674  17.794  0.00  0.00    +0.000 A 
ENDBRANCH   7  13
BRANCH  10  19
ATOM     19  C   UNL     1       2.259   4.954  21.311  0.00  0.00    +0.000 C 
BRANCH  19  20
ATOM     20  C   UNL     1       1.021   4.053  21.147  0.00  0.00    +0.000 C 
BRANCH  20  21
ATOM     21  C   UNL     1       1.474   2.587  21.255  0.00  0.00    +0.000 C 
BRANCH  21  22
ATOM     22  C   UNL     1       2.787   2.193  20.562  0.00  0.00    +0.000 C 
BRANCH  22  23
ATOM     23  C   UNL     1       2.464   1.597  19.154  0.00  0.00    +0.000 C 
ATOM     24  C   UNL     1       1.260   2.290  18.470  0.00  0.00    +0.000 C 
ATOM     25  C   UNL     1       1.638   3.605  17.764  0.00  0.00    +0.000 C 
ATOM     26  C   UNL     1       2.746   3.348  16.735  0.00  0.00    +0.000 C 
ATOM     27  C   UNL     1       3.993   2.828  17.454  0.00  0.00    +0.000 C 
ATOM     28  C   UNL     1       3.657   1.501  18.149  0.00  0.00    +0.000 C 
ENDBRANCH  22  23
ENDBRANCH  21  22
ENDBRANCH  20  21
ENDBRANCH  19  20
ENDBRANCH  10  19
TORSDOF 6
ENDMDL
MODEL 4
REMARK VINA RESULT:      -8.0      0.818      1.224
REMARK  Name = 
REMARK  6 active torsions:
REMARK  status: ('A' for Active; 'I' for Inactive)
REMARK    1  A    between atoms: C_7  and  C_8
REMARK    2  A    between atoms: N_16  and  C_17
REMARK    3  A    between atoms: C_17  and  C_18
REMARK    4  A    between atoms: C_18  and  C_19
REMARK    5  A    between atoms: C_19  and  C_20
REMARK    6  A    between atoms: C_20  and  C_21
REMARK                            x       y       z     vdW  Elec       q    Type
REMARK                         _______ _______ _______ _____ _____    ______ ____
ROOT
ATOM      1 CL   UNL     1       8.420   5.448  12.283  0.00  0.00    +0.000 Cl
ATOM      2  C   UNL     1       7.211   4.988  13.468  0.00  0.00    +0.000 A 
ATOM      3  C   UNL     1       6.332   3.934  13.213  0.00  0.00    +0.000 A 
ATOM      4  C   UNL     1       5.390   3.566  14.175  0.00  0.00    +0.000 A 
ATOM      5  C   UNL     1       5.336   4.245  15.398  0.00  0.00    +0.000 A 
ATOM      6  S   UNL     1       4.226   3.777  16.575  0.00  0.00    +0.000 S 
ATOM      7  C   UNL     1       4.367   4.678  17.998  0.00  0.00    +0.000 A 
ATOM      8  C   UNL     1       5.317   5.712  17.998  0.00  0.00    +0.000 A 
ATOM      9  C   UNL     1       6.186   6.036  16.925  0.00  0.00    +0.000 A 
ATOM     10  N   UNL     1       7.002   7.032  17.040  0.00  0.00    +0.000 NA
ATOM     11  C   UNL     1       6.212   5.319  15.680  0.00  0.00    +0.000 A 
ATOM     12  C   UNL     1       7.145   5.680  14.678  0.00  0.00    +0.000 A 
ENDROOT
BRANCH   7  13
ATOM     13  C   UNL     1       3.552   4.345  19.204  0.00  0.00    +0.000 A 
ATOM     14  C   UNL     1       2.685   5.297  19.780  0.00  0.00    +0.000 A 
ATOM     15  C   UNL     1       1.956   5.005  20.928  0.00  0.00    +0.000 A 
ATOM     16  C   UNL     1       2.064   3.749  21.521  0.00  0.00    +0.000 A 
ATOM     17  C   UNL     1       2.915   2.791  20.968  0.00  0.00    +0.000 A 
ATOM     18  C   UNL     1       3.659   3.081  19.822  0.00  0.00    +0.000 A 
ENDBRANCH   7  13
BRANCH  10  19
ATOM     19  C   UNL     1       7.153   7.961  18.150  0.00  0.00    +0.000 C 
BRANCH  19  20
ATOM     20  C   UNL     1       8.220   9.004  17.766  0.00  0.00    +0.000 C 
BRANCH  20  21
ATOM     21  C   UNL     1       9.038   9.342  19.024  0.00  0.00    +0.000 C 
BRANCH  21  22
ATOM     22  C   UNL     1       9.374  10.818  19.281  0.00  0.00    +0.000 C 
BRANCH  22  23
ATOM     23  C   UNL     1       9.776  11.495  17.930  0.00  0.00    +0.000 C 
ATOM     24  C   UNL     1       8.802  12.623  17.511  0.00  0.00    +0.000 C 
ATOM     25  C   UNL     1       9.095  13.967  18.206  0.00  0.00    +0.000 C 
ATOM     26  C   UNL     1      10.542  14.395  17.929  0.00  0.00    +0.000 C 
ATOM     27  C   UNL     1      11.497  13.350  18.509  0.00  0.00    +0.000 C 
ATOM     28  C   UNL     1      11.249  12.002  17.817  0.00  0.00    +0.000 C 
ENDBRANCH  22  23
ENDBRANCH  21  22
ENDBRANCH  20  21
ENDBRANCH  19  20
ENDBRANCH  10  19
TORSDOF 6
ENDMDL
MODEL 5
REMARK VINA RESULT:      -7.8      2.422      5.524
REMARK  Name = 
REMARK  6 active torsions:
REMARK  status: ('A' for Active; 'I' for Inactive)
REMARK    1  A    between atoms: C_7  and  C_8
REMARK    2  A    between atoms: N_16  and  C_17
REMARK    3  A    between atoms: C_17  and  C_18
REMARK    4  A    between atoms: C_18  and  C_19
REMARK    5  A    between atoms: C_19  and  C_20
REMARK    6  A    between atoms: C_20  and  C_21
REMARK                            x       y       z     vdW  Elec       q    Type
REMARK                         _______ _______ _______ _____ _____    ______ ____
ROOT
ATOM      1 CL   UNL     1       2.425   4.289  21.752  0.00  0.00    +0.000 Cl
ATOM      2  C   UNL     1       3.011   3.967  20.130  0.00  0.00    +0.000 A 
ATOM      3  C   UNL     1       2.346   3.063  19.301  0.00  0.00    +0.000 A 
ATOM      4  C   UNL     1       2.812   2.834  18.005  0.00  0.00    +0.000 A 
ATOM      5  C   UNL     1       3.938   3.520  17.535  0.00  0.00    +0.000 A 
ATOM      6  S   UNL     1       4.479   3.275  15.960  0.00  0.00    +0.000 S 
ATOM      7  C   UNL     1       5.807   4.245  15.568  0.00  0.00    +0.000 A 
ATOM      8  C   UNL     1       6.316   5.059  16.592  0.00  0.00    +0.000 A 
ATOM      9  C   UNL     1       5.789   5.162  17.905  0.00  0.00    +0.000 A 
ATOM     10  N   UNL     1       6.366   5.933  18.767  0.00  0.00    +0.000 NA
ATOM     11  C   UNL     1       4.632   4.439  18.356  0.00  0.00    +0.000 A 
ATOM     12  C   UNL     1       4.146   4.637  19.671  0.00  0.00    +0.000 A 
ENDROOT
BRANCH   7  13
ATOM     13  C   UNL     1       6.366   4.261  14.184  0.00  0.00    +0.000 A 
ATOM     14  C   UNL     1       7.388   5.164  13.824  0.00  0.00    +0.000 A 
ATOM     15  C   UNL     1       7.882   5.212  12.524  0.00  0.00    +0.000 A 
ATOM     16  C   UNL     1       7.377   4.348  11.556  0.00  0.00    +0.000 A 
ATOM     17  C   UNL     1       6.366   3.445  11.888  0.00  0.00    +0.000 A 
ATOM     18  C   UNL     1       5.857   3.400  13.189  0.00  0.00    +0.000 A 
ENDBRANCH   7  13
BRANCH  10  19
ATOM     19  C   UNL     1       7.572   6.732  18.611  0.00  0.00    +0.000 C 
BRANCH  19  20
ATOM     20  C   UNL     1       7.331   7.759  17.489  0.00  0.00    +0.000 C 
BRANCH  20  21
ATOM     21  C   UNL     1       8.375   8.880  17.629  0.00  0.00    +0.000 C 
BRANCH  21  22
ATOM     22  C   UNL     1       8.853   9.237  19.044  0.00  0.00    +0.000 C 
BRANCH  22  23
ATOM     23  C   UNL     1       8.837  10.792  19.213  0.00  0.00    +0.000 C 
ATOM     24  C   UNL     1       9.663  11.272  20.432  0.00  0.00    +0.000 C 
ATOM     25  C   UNL     1      11.172  11.375  20.140  0.00  0.00    +0.000 C 
ATOM     26  C   UNL     1      11.411  12.308  18.946  0.00  0.00    +0.000 C 
ATOM     27  C   UNL     1      10.733  11.725  17.704  0.00  0.00    +0.000 C 
ATOM     28  C   UNL     1       9.221  11.632  17.954  0.00  0.00    +0.000 C 
ENDBRANCH  22  23
ENDBRANCH  21  22
ENDBRANCH  20  21
ENDBRANCH  19  20
ENDBRANCH  10  19
TORSDOF 6
ENDMDL
MODEL 6
REMARK VINA RESULT:      -7.8      5.306      8.048
REMARK  Name = 
REMARK  6 active torsions:
REMARK  status: ('A' for Active; 'I' for Inactive)
REMARK    1  A    between atoms: C_7  and  C_8
REMARK    2  A    between atoms: N_16  and  C_17
REMARK    3  A    between atoms: C_17  and  C_18
REMARK    4  A    between atoms: C_18  and  C_19
REMARK    5  A    between atoms: C_19  and  C_20
REMARK    6  A    between atoms: C_20  and  C_21
REMARK                            x       y       z     vdW  Elec       q    Type
REMARK                         _______ _______ _______ _____ _____    ______ ____
ROOT
ATOM      1 CL   UNL     1       1.164   3.269  21.441  0.00  0.00    +0.000 Cl
ATOM      2  C   UNL     1       2.254   3.117  20.076  0.00  0.00    +0.000 A 
ATOM      3  C   UNL     1       2.707   1.863  19.665  0.00  0.00    +0.000 A 
ATOM      4  C   UNL     1       3.557   1.757  18.563  0.00  0.00    +0.000 A 
ATOM      5  C   UNL     1       3.944   2.906  17.864  0.00  0.00    +0.000 A 
ATOM      6  S   UNL     1       4.938   2.778  16.511  0.00  0.00    +0.000 S 
ATOM      7  C   UNL     1       5.233   4.270  15.775  0.00  0.00    +0.000 A 
ATOM      8  C   UNL     1       4.684   5.401  16.401  0.00  0.00    +0.000 A 
ATOM      9  C   UNL     1       3.878   5.390  17.567  0.00  0.00    +0.000 A 
ATOM     10  N   UNL     1       3.452   6.506  18.061  0.00  0.00    +0.000 NA
ATOM     11  C   UNL     1       3.503   4.190  18.262  0.00  0.00    +0.000 A 
ATOM     12  C   UNL     1       2.655   4.266  19.394  0.00  0.00    +0.000 A 
ENDROOT
BRANCH   7  13
ATOM     13  C   UNL     1       5.998   4.359  14.495  0.00  0.00    +0.000 A 
ATOM     14  C   UNL     1       7.132   5.191  14.384  0.00  0.00    +0.000 A 
ATOM     15  C   UNL     1       7.822   5.310  13.182  0.00  0.00    +0.000 A 
ATOM     16  C   UNL     1       7.405   4.589  12.065  0.00  0.00    +0.000 A 
ATOM     17  C   UNL     1       6.286   3.760  12.152  0.00  0.00    +0.000 A 
ATOM     18  C   UNL     1       5.581   3.645  13.353  0.00  0.00    +0.000 A 
ENDBRANCH   7  13
BRANCH  10  19
ATOM     19  C   UNL     1       3.718   7.863  17.608  0.00  0.00    +0.000 C 
BRANCH  19  20
ATOM     20  C   UNL     1       2.420   8.680  17.737  0.00  0.00    +0.000 C 
BRANCH  20  21
ATOM     21  C   UNL     1       1.774   8.349  19.093  0.00  0.00    +0.000 C 
BRANCH  21  22
ATOM     22  C   UNL     1       0.636   9.257  19.582  0.00  0.00    +0.000 C 
BRANCH  22  23
ATOM     23  C   UNL     1       1.113  10.038  20.850  0.00  0.00    +0.000 C 
ATOM     24  C   UNL     1       0.506  11.460  20.943  0.00  0.00    +0.000 C 
ATOM     25  C   UNL     1      -0.915  11.475  21.538  0.00  0.00    +0.000 C 
ATOM     26  C   UNL     1      -0.909  10.817  22.923  0.00  0.00    +0.000 C 
ATOM     27  C   UNL     1      -0.475   9.356  22.787  0.00  0.00    +0.000 C 
ATOM     28  C   UNL     1       0.951   9.306  22.220  0.00  0.00    +0.000 C 
ENDBRANCH  22  23
ENDBRANCH  21  22
ENDBRANCH  20  21
ENDBRANCH  19  20
ENDBRANCH  10  19
TORSDOF 6
ENDMDL
MODEL 7
REMARK VINA RESULT:      -7.7      0.718      1.209
REMARK  Name = 
REMARK  6 active torsions:
REMARK  status: ('A' for Active; 'I' for Inactive)
REMARK    1  A    between atoms: C_7  and  C_8
REMARK    2  A    between atoms: N_16  and  C_17
REMARK    3  A    between atoms: C_17  and  C_18
REMARK    4  A    between atoms: C_18  and  C_19
REMARK    5  A    between atoms: C_19  and  C_20
REMARK    6  A    between atoms: C_20  and  C_21
REMARK                            x       y       z     vdW  Elec       q    Type
REMARK                         _______ _______ _______ _____ _____    ______ ____
ROOT
ATOM      1 CL   UNL     1       8.278   5.416  12.257  0.00  0.00    +0.000 Cl
ATOM      2  C   UNL     1       7.099   4.935  13.463  0.00  0.00    +0.000 A 
ATOM      3  C   UNL     1       6.264   3.838  13.243  0.00  0.00    +0.000 A 
ATOM      4  C   UNL     1       5.347   3.454  14.222  0.00  0.00    +0.000 A 
ATOM      5  C   UNL     1       5.272   4.161  15.427  0.00  0.00    +0.000 A 
ATOM      6  S   UNL     1       4.192   3.676  16.626  0.00  0.00    +0.000 S 
ATOM      7  C   UNL     1       4.305   4.618  18.024  0.00  0.00    +0.000 A 
ATOM      8  C   UNL     1       5.209   5.692  17.989  0.00  0.00    +0.000 A 
ATOM      9  C   UNL     1       6.055   6.025  16.901  0.00  0.00    +0.000 A 
ATOM     10  N   UNL     1       6.828   7.058  16.984  0.00  0.00    +0.000 NA
ATOM     11  C   UNL     1       6.103   5.279  15.675  0.00  0.00    +0.000 A 
ATOM     12  C   UNL     1       7.012   5.654  14.656  0.00  0.00    +0.000 A 
ENDROOT
BRANCH   7  13
ATOM     13  C   UNL     1       3.514   4.281  19.245  0.00  0.00    +0.000 A 
ATOM     14  C   UNL     1       2.593   5.200  19.790  0.00  0.00    +0.000 A 
ATOM     15  C   UNL     1       1.885   4.907  20.951  0.00  0.00    +0.000 A 
ATOM     16  C   UNL     1       2.070   3.682  21.588  0.00  0.00    +0.000 A 
ATOM     17  C   UNL     1       2.975   2.757  21.067  0.00  0.00    +0.000 A 
ATOM     18  C   UNL     1       3.698   3.049  19.908  0.00  0.00    +0.000 A 
ENDBRANCH   7  13
BRANCH  10  19
ATOM     19  C   UNL     1       6.947   8.021  18.069  0.00  0.00    +0.000 C 
BRANCH  19  20
ATOM     20  C   UNL     1       8.427   8.427  18.195  0.00  0.00    +0.000 C 
BRANCH  20  21
ATOM     21  C   UNL     1       8.502   9.962  18.262  0.00  0.00    +0.000 C 
BRANCH  21  22
ATOM     22  C   UNL     1       9.823  10.592  18.729  0.00  0.00    +0.000 C 
BRANCH  22  23
ATOM     23  C   UNL     1       9.663  12.147  18.766  0.00  0.00    +0.000 C 
ATOM     24  C   UNL     1      10.396  12.797  19.966  0.00  0.00    +0.000 C 
ATOM     25  C   UNL     1      11.900  13.014  19.713  0.00  0.00    +0.000 C 
ATOM     26  C   UNL     1      12.101  13.866  18.453  0.00  0.00    +0.000 C 
ATOM     27  C   UNL     1      11.526  13.125  17.245  0.00  0.00    +0.000 C 
ATOM     28  C   UNL     1      10.019  12.915  17.453  0.00  0.00    +0.000 C 
ENDBRANCH  22  23
ENDBRANCH  21  22
ENDBRANCH  20  21
ENDBRANCH  19  20
ENDBRANCH  10  19
TORSDOF 6
ENDMDL
MODEL 8
REMARK VINA RESULT:      -7.7      2.598      5.544
REMARK  Name = 
REMARK  6 active torsions:
REMARK  status: ('A' for Active; 'I' for Inactive)
REMARK    1  A    between atoms: C_7  and  C_8
REMARK    2  A    between atoms: N_16  and  C_17
REMARK    3  A    between atoms: C_17  and  C_18
REMARK    4  A    between atoms: C_18  and  C_19
REMARK    5  A    between atoms: C_19  and  C_20
REMARK    6  A    between atoms: C_20  and  C_21
REMARK                            x       y       z     vdW  Elec       q    Type
REMARK                         _______ _______ _______ _____ _____    ______ ____
ROOT
ATOM      1 CL   UNL     1       2.370   3.158  21.859  0.00  0.00    +0.000 Cl
ATOM      2  C   UNL     1       2.955   3.075  20.208  0.00  0.00    +0.000 A 
ATOM      3  C   UNL     1       2.257   2.346  19.244  0.00  0.00    +0.000 A 
ATOM      4  C   UNL     1       2.723   2.308  17.928  0.00  0.00    +0.000 A 
ATOM      5  C   UNL     1       3.881   3.011  17.575  0.00  0.00    +0.000 A 
ATOM      6  S   UNL     1       4.424   2.999  15.981  0.00  0.00    +0.000 S 
ATOM      7  C   UNL     1       5.795   3.959  15.752  0.00  0.00    +0.000 A 
ATOM      8  C   UNL     1       6.331   4.575  16.894  0.00  0.00    +0.000 A 
ATOM      9  C   UNL     1       5.799   4.489  18.206  0.00  0.00    +0.000 A 
ATOM     10  N   UNL     1       6.402   5.085  19.181  0.00  0.00    +0.000 NA
ATOM     11  C   UNL     1       4.609   3.755  18.534  0.00  0.00    +0.000 A 
ATOM     12  C   UNL     1       4.120   3.760  19.863  0.00  0.00    +0.000 A 
ENDROOT
BRANCH   7  13
ATOM     13  C   UNL     1       6.366   4.173  14.388  0.00  0.00    +0.000 A 
ATOM     14  C   UNL     1       7.444   5.059  14.184  0.00  0.00    +0.000 A 
ATOM     15  C   UNL     1       7.950   5.294  12.909  0.00  0.00    +0.000 A 
ATOM     16  C   UNL     1       7.401   4.638  11.810  0.00  0.00    +0.000 A 
ATOM     17  C   UNL     1       6.333   3.758  11.989  0.00  0.00    +0.000 A 
ATOM     18  C   UNL     1       5.812   3.526  13.264  0.00  0.00    +0.000 A 
ENDBRANCH   7  13
BRANCH  10  19
ATOM     19  C   UNL     1       7.643   5.845  19.156  0.00  0.00    +0.000 C 
BRANCH  19  20
ATOM     20  C   UNL     1       7.425   7.101  18.292  0.00  0.00    +0.000 C 
BRANCH  20  21
ATOM     21  C   UNL     1       8.480   8.148  18.687  0.00  0.00    +0.000 C 
BRANCH  21  22
ATOM     22  C   UNL     1       8.512   9.463  17.896  0.00  0.00    +0.000 C 
BRANCH  22  23
ATOM     23  C   UNL     1       8.950  10.624  18.848  0.00  0.00    +0.000 C 
ATOM     24  C   UNL     1      10.488  10.772  18.945  0.00  0.00    +0.000 C 
ATOM     25  C   UNL     1      11.095  11.575  17.779  0.00  0.00    +0.000 C 
ATOM     26  C   UNL     1      10.439  12.960  17.701  0.00  0.00    +0.000 C 
ATOM     27  C   UNL     1       8.943  12.797  17.428  0.00  0.00    +0.000 C 
ATOM     28  C   UNL     1       8.301  12.020  18.586  0.00  0.00    +0.000 C 
ENDBRANCH  22  23
ENDBRANCH  21  22
ENDBRANCH  20  21
ENDBRANCH  19  20
ENDBRANCH  10  19
TORSDOF 6
ENDMDL
MODEL 9
REMARK VINA RESULT:      -7.7      3.433      5.288
REMARK  Name = 
REMARK  6 active torsions:
REMARK  status: ('A' for Active; 'I' for Inactive)
REMARK    1  A    between atoms: C_7  and  C_8
REMARK    2  A    between atoms: N_16  and  C_17
REMARK    3  A    between atoms: C_17  and  C_18
REMARK    4  A    between atoms: C_18  and  C_19
REMARK    5  A    between atoms: C_19  and  C_20
REMARK    6  A    between atoms: C_20  and  C_21
REMARK                            x       y       z     vdW  Elec       q    Type
REMARK                         _______ _______ _______ _____ _____    ______ ____
ROOT
ATOM      1 CL   UNL     1       5.207   1.054  20.324  0.00  0.00    +0.000 Cl
ATOM      2  C   UNL     1       4.178   2.473  20.255  0.00  0.00    +0.000 A 
ATOM      3  C   UNL     1       2.966   2.505  20.946  0.00  0.00    +0.000 A 
ATOM      4  C   UNL     1       2.169   3.650  20.900  0.00  0.00    +0.000 A 
ATOM      5  C   UNL     1       2.590   4.767  20.170  0.00  0.00    +0.000 A 
ATOM      6  S   UNL     1       1.649   6.163  20.144  0.00  0.00    +0.000 S 
ATOM      7  C   UNL     1       2.365   7.416  19.264  0.00  0.00    +0.000 A 
ATOM      8  C   UNL     1       3.585   7.124  18.632  0.00  0.00    +0.000 A 
ATOM      9  C   UNL     1       4.277   5.889  18.702  0.00  0.00    +0.000 A 
ATOM     10  N   UNL     1       5.384   5.738  18.051  0.00  0.00    +0.000 NA
ATOM     11  C   UNL     1       3.812   4.759  19.458  0.00  0.00    +0.000 A 
ATOM     12  C   UNL     1       4.591   3.577  19.511  0.00  0.00    +0.000 A 
ENDROOT
BRANCH   7  13
ATOM     13  C   UNL     1       1.745   8.773  19.213  0.00  0.00    +0.000 A 
ATOM     14  C   UNL     1       2.013   9.655  18.145  0.00  0.00    +0.000 A 
ATOM     15  C   UNL     1       1.472  10.936  18.116  0.00  0.00    +0.000 A 
ATOM     16  C   UNL     1       0.637  11.363  19.147  0.00  0.00    +0.000 A 
ATOM     17  C   UNL     1       0.358  10.508  20.214  0.00  0.00    +0.000 A 
ATOM     18  C   UNL     1       0.908   9.224  20.256  0.00  0.00    +0.000 A 
ENDBRANCH   7  13
BRANCH  10  19
ATOM     19  C   UNL     1       6.056   6.679  17.167  0.00  0.00    +0.000 C 
BRANCH  19  20
ATOM     20  C   UNL     1       7.500   6.868  17.669  0.00  0.00    +0.000 C 
BRANCH  20  21
ATOM     21  C   UNL     1       7.798   8.376  17.725  0.00  0.00    +0.000 C 
BRANCH  21  22
ATOM     22  C   UNL     1       8.821   8.863  18.762  0.00  0.00    +0.000 C 
BRANCH  22  23
ATOM     23  C   UNL     1       8.636  10.400  18.981  0.00  0.00    +0.000 C 
ATOM     24  C   UNL     1       9.356  10.917  20.250  0.00  0.00    +0.000 C 
ATOM     25  C   UNL     1      10.856  11.186  20.029  0.00  0.00    +0.000 C 
ATOM     26  C   UNL     1      11.045  12.183  18.878  0.00  0.00    +0.000 C 
ATOM     27  C   UNL     1      10.483  11.579  17.589  0.00  0.00    +0.000 C 
ATOM     28  C   UNL     1       8.980  11.322  17.768  0.00  0.00    +0.000 C 
ENDBRANCH  22  23
ENDBRANCH  21  22
ENDBRANCH  20  21
ENDBRANCH  19  20
ENDBRANCH  10  19
TORSDOF 6
ENDMDL
