MODEL 1
REMARK VINA RESULT:      -7.2      0.000      0.000
REMARK  Name = 
REMARK  6 active torsions:
REMARK  status: ('A' for Active; 'I' for Inactive)
REMARK    1  A    between atoms: C_1  and  C_2
REMARK    2  A    between atoms: C_6  and  C_7
REMARK    3  A    between atoms: C_13  and  C_14
REMARK    4  A    between atoms: C_14  and  C_15
REMARK    5  A    between atoms: C_15  and  O_16
REMARK    6  A    between atoms: C_15  and  C_17
REMARK                            x       y       z     vdW  Elec       q    Type
REMARK                         _______ _______ _______ _____ _____    ______ ____
ROOT
ATOM      1  C   UNL     1       4.747   4.600  17.112  0.00  0.00    +0.000 C 
ATOM      2  O   UNL     1       4.700   3.509  17.666  0.00  0.00    +0.000 OA
ATOM      3  N   UNL     1       3.759   5.557  17.385  0.00  0.00    +0.000 N 
ATOM      4  C   UNL     1       3.780   6.972  17.047  0.00  0.00    +0.000 C 
ATOM      5  C   UNL     1       3.141   7.652  18.238  0.00  0.00    +0.000 C 
ATOM      6  C   UNL     1       2.076   6.662  18.668  0.00  0.00    +0.000 C 
ATOM      7  C   UNL     1       2.605   5.269  18.268  0.00  0.00    +0.000 C 
ENDROOT
BRANCH   1  13
ATOM      8  C   UNL     1       7.449   6.376  17.637  0.00  0.00    +0.000 C 
ATOM      9  C   UNL     1       6.986   5.697  16.399  0.00  0.00    +0.000 A 
ATOM     10  N   UNL     1       7.791   5.844  15.270  0.00  0.00    +0.000 NA
ATOM     11  N   UNL     1       7.362   5.118  14.259  0.00  0.00    +0.000 NA
ATOM     12  S   UNL     1       6.038   4.194  14.657  0.00  0.00    +0.000 S 
ATOM     13  C   UNL     1       5.842   4.927  16.201  0.00  0.00    +0.000 A 
ENDBRANCH   1  13
BRANCH   7  14
ATOM     14  C   UNL     1       1.541   4.427  17.535  0.00  0.00    +0.000 C 
BRANCH  14  15
ATOM     15  C   UNL     1       1.337   3.003  18.081  0.00  0.00    +0.000 C 
BRANCH  15  16
ATOM     16  C   UNL     1       1.671   2.884  19.548  0.00  0.00    +0.000 A 
ATOM     17  C   UNL     1       0.864   3.179  20.630  0.00  0.00    +0.000 A 
ATOM     18  C   UNL     1       1.502   2.916  21.877  0.00  0.00    +0.000 A 
ATOM     19  C   UNL     1       2.774   2.416  21.713  0.00  0.00    +0.000 A 
ATOM     20  S   UNL     1       3.188   2.254  20.064  0.00  0.00    +0.000 S 
ENDBRANCH  15  16
BRANCH  15  21
ATOM     21  O   UNL     1       2.154   2.042  17.420  0.00  0.00    +0.000 OA
ATOM     22  H   UNL     1       1.921   2.071  16.477  0.00  0.00    +0.000 HD
ENDBRANCH  15  21
ENDBRANCH  14  15
ENDBRANCH   7  14
TORSDOF 5
ENDMDL
MODEL 2
REMARK VINA RESULT:      -7.2      3.236      4.463
REMARK  Name = 
REMARK  6 active torsions:
REMARK  status: ('A' for Active; 'I' for Inactive)
REMARK    1  A    between atoms: C_1  and  C_2
REMARK    2  A    between atoms: C_6  and  C_7
REMARK    3  A    between atoms: C_13  and  C_14
REMARK    4  A    between atoms: C_14  and  C_15
REMARK    5  A    between atoms: C_15  and  O_16
REMARK    6  A    between atoms: C_15  and  C_17
REMARK                            x       y       z     vdW  Elec       q    Type
REMARK                         _______ _______ _______ _____ _____    ______ ____
ROOT
ATOM      1  C   UNL     1       4.666   5.744  17.462  0.00  0.00    +0.000 C 
ATOM      2  O   UNL     1       4.437   6.899  17.125  0.00  0.00    +0.000 OA
ATOM      3  N   UNL     1       3.621   4.948  17.952  0.00  0.00    +0.000 N 
ATOM      4  C   UNL     1       3.625   3.506  18.149  0.00  0.00    +0.000 C 
ATOM      5  C   UNL     1       2.233   3.069  17.750  0.00  0.00    +0.000 C 
ATOM      6  C   UNL     1       1.363   4.220  18.221  0.00  0.00    +0.000 C 
ATOM      7  C   UNL     1       2.253   5.478  18.154  0.00  0.00    +0.000 C 
ENDROOT
BRANCH   1  13
ATOM      8  C   UNL     1       6.259   4.778  14.767  0.00  0.00    +0.000 C 
ATOM      9  C   UNL     1       6.691   4.742  16.188  0.00  0.00    +0.000 A 
ATOM     10  N   UNL     1       7.947   4.195  16.443  0.00  0.00    +0.000 NA
ATOM     11  N   UNL     1       8.289   4.309  17.710  0.00  0.00    +0.000 NA
ATOM     12  S   UNL     1       7.152   5.133  18.602  0.00  0.00    +0.000 S 
ATOM     13  C   UNL     1       6.005   5.178  17.320  0.00  0.00    +0.000 A 
ENDBRANCH   1  13
BRANCH   7  14
ATOM     14  C   UNL     1       2.169   6.324  19.441  0.00  0.00    +0.000 C 
BRANCH  14  15
ATOM     15  C   UNL     1       2.209   7.847  19.232  0.00  0.00    +0.000 C 
BRANCH  15  16
ATOM     16  C   UNL     1       1.257   8.589  20.139  0.00  0.00    +0.000 A 
ATOM     17  C   UNL     1       0.829   8.225  21.402  0.00  0.00    +0.000 A 
ATOM     18  C   UNL     1      -0.051   9.186  21.979  0.00  0.00    +0.000 A 
ATOM     19  C   UNL     1      -0.261  10.262  21.147  0.00  0.00    +0.000 A 
ATOM     20  S   UNL     1       0.609  10.118  19.685  0.00  0.00    +0.000 S 
ENDBRANCH  15  16
BRANCH  15  21
ATOM     21  O   UNL     1       1.854   8.227  17.906  0.00  0.00    +0.000 OA
ATOM     22  H   UNL     1       2.580   8.774  17.563  0.00  0.00    +0.000 HD
ENDBRANCH  15  21
ENDBRANCH  14  15
ENDBRANCH   7  14
TORSDOF 5
ENDMDL
MODEL 3
REMARK VINA RESULT:      -7.1      2.822      6.648
REMARK  Name = 
REMARK  6 active torsions:
REMARK  status: ('A' for Active; 'I' for Inactive)
REMARK    1  A    between atoms: C_1  and  C_2
REMARK    2  A    between atoms: C_6  and  C_7
REMARK    3  A    between atoms: C_13  and  C_14
REMARK    4  A    between atoms: C_14  and  C_15
REMARK    5  A    between atoms: C_15  and  O_16
REMARK    6  A    between atoms: C_15  and  C_17
REMARK                            x       y       z     vdW  Elec       q    Type
REMARK                         _______ _______ _______ _____ _____    ______ ____
ROOT
ATOM      1  C   UNL     1       3.016   3.380  18.397  0.00  0.00    +0.000 C 
ATOM      2  O   UNL     1       2.691   2.635  17.481  0.00  0.00    +0.000 OA
ATOM      3  N   UNL     1       3.745   4.544  18.115  0.00  0.00    +0.000 N 
ATOM      4  C   UNL     1       3.991   5.670  19.004  0.00  0.00    +0.000 C 
ATOM      5  C   UNL     1       3.911   6.882  18.103  0.00  0.00    +0.000 C 
ATOM      6  C   UNL     1       4.511   6.384  16.801  0.00  0.00    +0.000 C 
ATOM      7  C   UNL     1       4.210   4.873  16.748  0.00  0.00    +0.000 C 
ENDROOT
BRANCH   1  13
ATOM      8  C   UNL     1       4.707   1.945  20.809  0.00  0.00    +0.000 C 
ATOM      9  C   UNL     1       3.314   2.461  20.804  0.00  0.00    +0.000 A 
ATOM     10  N   UNL     1       2.585   2.298  21.981  0.00  0.00    +0.000 NA
ATOM     11  N   UNL     1       1.407   2.884  21.920  0.00  0.00    +0.000 NA
ATOM     12  S   UNL     1       1.177   3.698  20.489  0.00  0.00    +0.000 S 
ATOM     13  C   UNL     1       2.618   3.088  19.772  0.00  0.00    +0.000 A 
ENDBRANCH   1  13
BRANCH   7  14
ATOM     14  C   UNL     1       5.453   4.041  16.369  0.00  0.00    +0.000 C 
BRANCH  14  15
ATOM     15  C   UNL     1       6.559   4.811  15.627  0.00  0.00    +0.000 C 
BRANCH  15  16
ATOM     16  C   UNL     1       6.654   4.438  14.167  0.00  0.00    +0.000 A 
ATOM     17  C   UNL     1       5.843   3.575  13.456  0.00  0.00    +0.000 A 
ATOM     18  C   UNL     1       6.211   3.485  12.082  0.00  0.00    +0.000 A 
ATOM     19  C   UNL     1       7.285   4.292  11.780  0.00  0.00    +0.000 A 
ATOM     20  S   UNL     1       7.835   5.159  13.143  0.00  0.00    +0.000 S 
ENDBRANCH  15  16
BRANCH  15  21
ATOM     21  O   UNL     1       7.853   4.573  16.172  0.00  0.00    +0.000 OA
ATOM     22  H   UNL     1       8.481   5.106  15.657  0.00  0.00    +0.000 HD
ENDBRANCH  15  21
ENDBRANCH  14  15
ENDBRANCH   7  14
TORSDOF 5
ENDMDL
MODEL 4
REMARK VINA RESULT:      -6.9      2.690      6.584
REMARK  Name = 
REMARK  6 active torsions:
REMARK  status: ('A' for Active; 'I' for Inactive)
REMARK    1  A    between atoms: C_1  and  C_2
REMARK    2  A    between atoms: C_6  and  C_7
REMARK    3  A    between atoms: C_13  and  C_14
REMARK    4  A    between atoms: C_14  and  C_15
REMARK    5  A    between atoms: C_15  and  O_16
REMARK    6  A    between atoms: C_15  and  C_17
REMARK                            x       y       z     vdW  Elec       q    Type
REMARK                         _______ _______ _______ _____ _____    ______ ____
ROOT
ATOM      1  C   UNL     1       3.280   5.468  18.340  0.00  0.00    +0.000 C 
ATOM      2  O   UNL     1       2.695   6.314  17.676  0.00  0.00    +0.000 OA
ATOM      3  N   UNL     1       4.681   5.405  18.299  0.00  0.00    +0.000 N 
ATOM      4  C   UNL     1       5.559   4.668  19.196  0.00  0.00    +0.000 C 
ATOM      5  C   UNL     1       6.754   5.578  19.380  0.00  0.00    +0.000 C 
ATOM      6  C   UNL     1       6.903   6.230  18.019  0.00  0.00    +0.000 C 
ATOM      7  C   UNL     1       5.484   6.279  17.415  0.00  0.00    +0.000 C 
ENDROOT
BRANCH   1  13
ATOM      8  C   UNL     1       2.548   2.305  17.902  0.00  0.00    +0.000 C 
ATOM      9  C   UNL     1       2.198   3.213  19.025  0.00  0.00    +0.000 A 
ATOM     10  N   UNL     1       1.419   2.669  20.045  0.00  0.00    +0.000 NA
ATOM     11  N   UNL     1       1.257   3.510  21.045  0.00  0.00    +0.000 NA
ATOM     12  S   UNL     1       2.087   4.933  20.820  0.00  0.00    +0.000 S 
ATOM     13  C   UNL     1       2.537   4.552  19.203  0.00  0.00    +0.000 A 
ENDBRANCH   1  13
BRANCH   7  14
ATOM     14  C   UNL     1       5.451   5.777  15.957  0.00  0.00    +0.000 C 
BRANCH  14  15
ATOM     15  C   UNL     1       6.389   4.598  15.645  0.00  0.00    +0.000 C 
BRANCH  15  16
ATOM     16  C   UNL     1       6.502   4.313  14.167  0.00  0.00    +0.000 A 
ATOM     17  C   UNL     1       5.668   3.535  13.386  0.00  0.00    +0.000 A 
ATOM     18  C   UNL     1       6.063   3.515  12.017  0.00  0.00    +0.000 A 
ATOM     19  C   UNL     1       7.179   4.287  11.788  0.00  0.00    +0.000 A 
ATOM     20  S   UNL     1       7.737   5.041  13.215  0.00  0.00    +0.000 S 
ENDBRANCH  15  16
BRANCH  15  21
ATOM     21  O   UNL     1       5.955   3.380  16.241  0.00  0.00    +0.000 OA
ATOM     22  H   UNL     1       5.629   3.599  17.130  0.00  0.00    +0.000 HD
ENDBRANCH  15  21
ENDBRANCH  14  15
ENDBRANCH   7  14
TORSDOF 5
ENDMDL
MODEL 5
REMARK VINA RESULT:      -6.8      3.148      4.310
REMARK  Name = 
REMARK  6 active torsions:
REMARK  status: ('A' for Active; 'I' for Inactive)
REMARK    1  A    between atoms: C_1  and  C_2
REMARK    2  A    between atoms: C_6  and  C_7
REMARK    3  A    between atoms: C_13  and  C_14
REMARK    4  A    between atoms: C_14  and  C_15
REMARK    5  A    between atoms: C_15  and  O_16
REMARK    6  A    between atoms: C_15  and  C_17
REMARK                            x       y       z     vdW  Elec       q    Type
REMARK                         _______ _______ _______ _____ _____    ______ ____
ROOT
ATOM      1  C   UNL     1       4.434   5.780  17.403  0.00  0.00    +0.000 C 
ATOM      2  O   UNL     1       4.114   6.914  17.071  0.00  0.00    +0.000 OA
ATOM      3  N   UNL     1       3.502   4.963  18.058  0.00  0.00    +0.000 N 
ATOM      4  C   UNL     1       3.592   3.530  18.292  0.00  0.00    +0.000 C 
ATOM      5  C   UNL     1       2.176   3.031  18.109  0.00  0.00    +0.000 C 
ATOM      6  C   UNL     1       1.337   4.164  18.668  0.00  0.00    +0.000 C 
ATOM      7  C   UNL     1       2.157   5.450  18.439  0.00  0.00    +0.000 C 
ENDROOT
BRANCH   1  13
ATOM      8  C   UNL     1       7.056   5.413  19.333  0.00  0.00    +0.000 C 
ATOM      9  C   UNL     1       6.893   5.113  17.887  0.00  0.00    +0.000 A 
ATOM     10  N   UNL     1       8.018   4.627  17.222  0.00  0.00    +0.000 NA
ATOM     11  N   UNL     1       7.748   4.285  15.978  0.00  0.00    +0.000 NA
ATOM     12  S   UNL     1       6.138   4.468  15.604  0.00  0.00    +0.000 S 
ATOM     13  C   UNL     1       5.761   5.257  17.087  0.00  0.00    +0.000 A 
ENDBRANCH   1  13
BRANCH   7  14
ATOM     14  C   UNL     1       2.222   6.334  19.702  0.00  0.00    +0.000 C 
BRANCH  14  15
ATOM     15  C   UNL     1       2.207   7.851  19.446  0.00  0.00    +0.000 C 
BRANCH  15  16
ATOM     16  C   UNL     1       1.297   8.596  20.391  0.00  0.00    +0.000 A 
ATOM     17  C   UNL     1       1.137   8.400  21.749  0.00  0.00    +0.000 A 
ATOM     18  C   UNL     1       0.208   9.312  22.329  0.00  0.00    +0.000 A 
ATOM     19  C   UNL     1      -0.305  10.189  21.400  0.00  0.00    +0.000 A 
ATOM     20  S   UNL     1       0.339   9.917  19.843  0.00  0.00    +0.000 S 
ENDBRANCH  15  16
BRANCH  15  21
ATOM     21  O   UNL     1       1.757   8.180  18.135  0.00  0.00    +0.000 OA
ATOM     22  H   UNL     1       1.247   7.419  17.810  0.00  0.00    +0.000 HD
ENDBRANCH  15  21
ENDBRANCH  14  15
ENDBRANCH   7  14
TORSDOF 5
ENDMDL
MODEL 6
REMARK VINA RESULT:      -6.7      2.719      6.601
REMARK  Name = 
REMARK  6 active torsions:
REMARK  status: ('A' for Active; 'I' for Inactive)
REMARK    1  A    between atoms: C_1  and  C_2
REMARK    2  A    between atoms: C_6  and  C_7
REMARK    3  A    between atoms: C_13  and  C_14
REMARK    4  A    between atoms: C_14  and  C_15
REMARK    5  A    between atoms: C_15  and  O_16
REMARK    6  A    between atoms: C_15  and  C_17
REMARK                            x       y       z     vdW  Elec       q    Type
REMARK                         _______ _______ _______ _____ _____    ______ ____
ROOT
ATOM      1  C   UNL     1       3.833   5.672  18.572  0.00  0.00    +0.000 C 
ATOM      2  O   UNL     1       3.119   6.424  17.919  0.00  0.00    +0.000 OA
ATOM      3  N   UNL     1       5.217   5.666  18.347  0.00  0.00    +0.000 N 
ATOM      4  C   UNL     1       6.246   5.059  19.178  0.00  0.00    +0.000 C 
ATOM      5  C   UNL     1       7.401   6.033  19.117  0.00  0.00    +0.000 C 
ATOM      6  C   UNL     1       7.334   6.557  17.694  0.00  0.00    +0.000 C 
ATOM      7  C   UNL     1       5.848   6.486  17.287  0.00  0.00    +0.000 C 
ENDROOT
BRANCH   1  13
ATOM      8  C   UNL     1       1.571   6.347  20.843  0.00  0.00    +0.000 C 
ATOM      9  C   UNL     1       2.317   5.087  20.592  0.00  0.00    +0.000 A 
ATOM     10  N   UNL     1       2.052   4.025  21.456  0.00  0.00    +0.000 NA
ATOM     11  N   UNL     1       2.671   2.922  21.088  0.00  0.00    +0.000 NA
ATOM     12  S   UNL     1       3.519   3.112  19.670  0.00  0.00    +0.000 S 
ATOM     13  C   UNL     1       3.262   4.813  19.606  0.00  0.00    +0.000 A 
ENDBRANCH   1  13
BRANCH   7  14
ATOM     14  C   UNL     1       5.653   5.843  15.898  0.00  0.00    +0.000 C 
BRANCH  14  15
ATOM     15  C   UNL     1       6.599   4.675  15.573  0.00  0.00    +0.000 C 
BRANCH  15  16
ATOM     16  C   UNL     1       6.669   4.370  14.096  0.00  0.00    +0.000 A 
ATOM     17  C   UNL     1       5.836   3.554  13.356  0.00  0.00    +0.000 A 
ATOM     18  C   UNL     1       6.184   3.524  11.975  0.00  0.00    +0.000 A 
ATOM     19  C   UNL     1       7.265   4.329  11.696  0.00  0.00    +0.000 A 
ATOM     20  S   UNL     1       7.847   5.122  13.091  0.00  0.00    +0.000 S 
ENDBRANCH  15  16
BRANCH  15  21
ATOM     21  O   UNL     1       6.202   3.459  16.200  0.00  0.00    +0.000 OA
ATOM     22  H   UNL     1       6.948   2.841  16.120  0.00  0.00    +0.000 HD
ENDBRANCH  15  21
ENDBRANCH  14  15
ENDBRANCH   7  14
TORSDOF 5
ENDMDL
MODEL 7
REMARK VINA RESULT:      -6.6      2.749      6.643
REMARK  Name = 
REMARK  6 active torsions:
REMARK  status: ('A' for Active; 'I' for Inactive)
REMARK    1  A    between atoms: C_1  and  C_2
REMARK    2  A    between atoms: C_6  and  C_7
REMARK    3  A    between atoms: C_13  and  C_14
REMARK    4  A    between atoms: C_14  and  C_15
REMARK    5  A    between atoms: C_15  and  O_16
REMARK    6  A    between atoms: C_15  and  C_17
REMARK                            x       y       z     vdW  Elec       q    Type
REMARK                         _______ _______ _______ _____ _____    ______ ____
ROOT
ATOM      1  C   UNL     1       3.358   3.406  18.441  0.00  0.00    +0.000 C 
ATOM      2  O   UNL     1       3.267   2.639  17.490  0.00  0.00    +0.000 OA
ATOM      3  N   UNL     1       3.783   4.725  18.225  0.00  0.00    +0.000 N 
ATOM      4  C   UNL     1       3.704   5.843  19.153  0.00  0.00    +0.000 C 
ATOM      5  C   UNL     1       3.360   7.030  18.282  0.00  0.00    +0.000 C 
ATOM      6  C   UNL     1       4.116   6.745  16.998  0.00  0.00    +0.000 C 
ATOM      7  C   UNL     1       4.205   5.209  16.891  0.00  0.00    +0.000 C 
ENDROOT
BRANCH   1  13
ATOM      8  C   UNL     1       0.424   3.349  19.896  0.00  0.00    +0.000 C 
ATOM      9  C   UNL     1       1.754   2.961  20.429  0.00  0.00    +0.000 A 
ATOM     10  N   UNL     1       1.792   2.529  21.755  0.00  0.00    +0.000 NA
ATOM     11  N   UNL     1       2.988   2.101  22.102  0.00  0.00    +0.000 NA
ATOM     12  S   UNL     1       4.068   2.138  20.837  0.00  0.00    +0.000 S 
ATOM     13  C   UNL     1       2.991   2.973  19.787  0.00  0.00    +0.000 A 
ENDBRANCH   1  13
BRANCH   7  14
ATOM     14  C   UNL     1       5.631   4.728  16.550  0.00  0.00    +0.000 C 
BRANCH  14  15
ATOM     15  C   UNL     1       6.342   5.514  15.435  0.00  0.00    +0.000 C 
BRANCH  15  16
ATOM     16  C   UNL     1       6.439   4.740  14.143  0.00  0.00    +0.000 A 
ATOM     17  C   UNL     1       5.570   3.780  13.660  0.00  0.00    +0.000 A 
ATOM     18  C   UNL     1       5.961   3.279  12.384  0.00  0.00    +0.000 A 
ATOM     19  C   UNL     1       7.110   3.880  11.922  0.00  0.00    +0.000 A 
ATOM     20  S   UNL     1       7.704   5.048  13.016  0.00  0.00    +0.000 S 
ENDBRANCH  15  16
BRANCH  15  21
ATOM     21  O   UNL     1       7.681   5.861  15.778  0.00  0.00    +0.000 OA
ATOM     22  H   UNL     1       8.224   5.067  15.642  0.00  0.00    +0.000 HD
ENDBRANCH  15  21
ENDBRANCH  14  15
ENDBRANCH   7  14
TORSDOF 5
ENDMDL
MODEL 8
REMARK VINA RESULT:      -6.5      2.703      6.801
REMARK  Name = 
REMARK  6 active torsions:
REMARK  status: ('A' for Active; 'I' for Inactive)
REMARK    1  A    between atoms: C_1  and  C_2
REMARK    2  A    between atoms: C_6  and  C_7
REMARK    3  A    between atoms: C_13  and  C_14
REMARK    4  A    between atoms: C_14  and  C_15
REMARK    5  A    between atoms: C_15  and  O_16
REMARK    6  A    between atoms: C_15  and  C_17
REMARK                            x       y       z     vdW  Elec       q    Type
REMARK                         _______ _______ _______ _____ _____    ______ ____
ROOT
ATOM      1  C   UNL     1       3.218   3.254  18.376  0.00  0.00    +0.000 C 
ATOM      2  O   UNL     1       2.872   2.504  17.471  0.00  0.00    +0.000 OA
ATOM      3  N   UNL     1       3.894   4.443  18.067  0.00  0.00    +0.000 N 
ATOM      4  C   UNL     1       4.148   5.571  18.950  0.00  0.00    +0.000 C 
ATOM      5  C   UNL     1       3.983   6.786  18.064  0.00  0.00    +0.000 C 
ATOM      6  C   UNL     1       4.531   6.316  16.730  0.00  0.00    +0.000 C 
ATOM      7  C   UNL     1       4.277   4.795  16.680  0.00  0.00    +0.000 C 
ENDROOT
BRANCH   1  13
ATOM      8  C   UNL     1       0.392   3.571  20.002  0.00  0.00    +0.000 C 
ATOM      9  C   UNL     1       1.713   3.087  20.481  0.00  0.00    +0.000 A 
ATOM     10  N   UNL     1       1.796   2.735  21.827  0.00  0.00    +0.000 NA
ATOM     11  N   UNL     1       2.967   2.213  22.131  0.00  0.00    +0.000 NA
ATOM     12  S   UNL     1       3.960   2.068  20.805  0.00  0.00    +0.000 S 
ATOM     13  C   UNL     1       2.900   2.940  19.767  0.00  0.00    +0.000 A 
ENDBRANCH   1  13
BRANCH   7  14
ATOM     14  C   UNL     1       5.526   4.008  16.232  0.00  0.00    +0.000 C 
BRANCH  14  15
ATOM     15  C   UNL     1       6.705   4.866  15.743  0.00  0.00    +0.000 C 
BRANCH  15  16
ATOM     16  C   UNL     1       6.931   4.757  14.254  0.00  0.00    +0.000 A 
ATOM     17  C   UNL     1       7.832   5.460  13.478  0.00  0.00    +0.000 A 
ATOM     18  C   UNL     1       7.791   5.075  12.106  0.00  0.00    +0.000 A 
ATOM     19  C   UNL     1       6.870   4.079  11.876  0.00  0.00    +0.000 A 
ATOM     20  S   UNL     1       6.070   3.606  13.308  0.00  0.00    +0.000 S 
ENDBRANCH  15  16
BRANCH  15  21
ATOM     21  O   UNL     1       7.940   4.496  16.349  0.00  0.00    +0.000 OA
ATOM     22  H   UNL     1       7.724   3.971  17.137  0.00  0.00    +0.000 HD
ENDBRANCH  15  21
ENDBRANCH  14  15
ENDBRANCH   7  14
TORSDOF 5
ENDMDL
MODEL 9
REMARK VINA RESULT:      -6.5      1.853      2.316
REMARK  Name = 
REMARK  6 active torsions:
REMARK  status: ('A' for Active; 'I' for Inactive)
REMARK    1  A    between atoms: C_1  and  C_2
REMARK    2  A    between atoms: C_6  and  C_7
REMARK    3  A    between atoms: C_13  and  C_14
REMARK    4  A    between atoms: C_14  and  C_15
REMARK    5  A    between atoms: C_15  and  O_16
REMARK    6  A    between atoms: C_15  and  C_17
REMARK                            x       y       z     vdW  Elec       q    Type
REMARK                         _______ _______ _______ _____ _____    ______ ____
ROOT
ATOM      1  C   UNL     1       4.853   5.880  18.575  0.00  0.00    +0.000 C 
ATOM      2  O   UNL     1       5.200   5.482  19.681  0.00  0.00    +0.000 OA
ATOM      3  N   UNL     1       3.670   6.622  18.448  0.00  0.00    +0.000 N 
ATOM      4  C   UNL     1       3.230   7.395  17.297  0.00  0.00    +0.000 C 
ATOM      5  C   UNL     1       2.575   8.620  17.896  0.00  0.00    +0.000 C 
ATOM      6  C   UNL     1       1.912   8.077  19.148  0.00  0.00    +0.000 C 
ATOM      7  C   UNL     1       2.773   6.880  19.598  0.00  0.00    +0.000 C 
ENDROOT
BRANCH   1  13
ATOM      8  C   UNL     1       7.585   7.379  17.564  0.00  0.00    +0.000 C 
ATOM      9  C   UNL     1       6.830   6.262  16.941  0.00  0.00    +0.000 A 
ATOM     10  N   UNL     1       7.321   5.779  15.729  0.00  0.00    +0.000 NA
ATOM     11  N   UNL     1       6.656   4.721  15.312  0.00  0.00    +0.000 NA
ATOM     12  S   UNL     1       5.484   4.242  16.391  0.00  0.00    +0.000 S 
ATOM     13  C   UNL     1       5.679   5.623  17.398  0.00  0.00    +0.000 A 
ENDBRANCH   1  13
BRANCH   7  14
ATOM     14  C   UNL     1       1.921   5.637  19.928  0.00  0.00    +0.000 C 
BRANCH  14  15
ATOM     15  C   UNL     1       2.689   4.456  20.544  0.00  0.00    +0.000 C 
BRANCH  15  16
ATOM     16  C   UNL     1       2.871   3.308  19.580  0.00  0.00    +0.000 A 
ATOM     17  C   UNL     1       2.158   3.047  18.425  0.00  0.00    +0.000 A 
ATOM     18  C   UNL     1       2.625   1.886  17.744  0.00  0.00    +0.000 A 
ATOM     19  C   UNL     1       3.691   1.301  18.389  0.00  0.00    +0.000 A 
ATOM     20  S   UNL     1       4.129   2.155  19.801  0.00  0.00    +0.000 S 
ENDBRANCH  15  16
BRANCH  15  21
ATOM     21  O   UNL     1       2.029   3.905  21.679  0.00  0.00    +0.000 OA
ATOM     22  H   UNL     1       1.817   2.981  21.465  0.00  0.00    +0.000 HD
ENDBRANCH  15  21
ENDBRANCH  14  15
ENDBRANCH   7  14
TORSDOF 5
ENDMDL
