MODEL 1
REMARK VINA RESULT:      -6.8      0.000      0.000
REMARK  Name = 
REMARK  3 active torsions:
REMARK  status: ('A' for Active; 'I' for Inactive)
REMARK    1  A    between atoms: C_1  and  C_2
REMARK    2  A    between atoms: C_5  and  N_6
REMARK    3  A    between atoms: C_11  and  C_12
REMARK                            x       y       z     vdW  Elec       q    Type
REMARK                         _______ _______ _______ _____ _____    ______ ____
ROOT
ATOM      1  N   UNL     1       3.656   3.818  19.370  0.00  0.00    +0.000 N 
ATOM      2  C   UNL     1       3.905   2.779  20.262  0.00  0.00    +0.000 C 
ATOM      3  O   UNL     1       4.913   2.082  20.293  0.00  0.00    +0.000 OA
ATOM      4  C   UNL     1       2.750   2.555  21.215  0.00  0.00    +0.000 C 
ATOM      5  S   UNL     1       1.511   3.817  20.873  0.00  0.00    +0.000 S 
ATOM      6  C   UNL     1       2.294   4.311  19.315  0.00  0.00    +0.000 C 
ENDROOT
BRANCH   1  11
ATOM      7  C   UNL     1       7.271   4.913  15.078  0.00  0.00    +0.000 C 
ATOM      8  C   UNL     1       6.319   4.600  16.194  0.00  0.00    +0.000 A 
ATOM      9  C   UNL     1       5.163   3.844  15.968  0.00  0.00    +0.000 A 
ATOM     10  C   UNL     1       4.270   3.581  17.010  0.00  0.00    +0.000 A 
ATOM     11  C   UNL     1       4.546   4.047  18.298  0.00  0.00    +0.000 A 
ATOM     12  C   UNL     1       5.709   4.786  18.536  0.00  0.00    +0.000 A 
ATOM     13  C   UNL     1       6.579   5.079  17.485  0.00  0.00    +0.000 A 
ENDBRANCH   1  11
BRANCH   6  14
ATOM     14  C   UNL     1       2.264   5.809  19.141  0.00  0.00    +0.000 A 
ATOM     15  C   UNL     1       2.470   6.570  18.000  0.00  0.00    +0.000 A 
ATOM     16  C   UNL     1       2.291   7.964  18.233  0.00  0.00    +0.000 A 
ATOM     17  C   UNL     1       1.963   8.229  19.541  0.00  0.00    +0.000 A 
ATOM     18  S   UNL     1       1.886   6.806  20.485  0.00  0.00    +0.000 S 
ENDBRANCH   6  14
TORSDOF 2
ENDMDL
MODEL 2
REMARK VINA RESULT:      -6.8      0.097      1.143
REMARK  Name = 
REMARK  3 active torsions:
REMARK  status: ('A' for Active; 'I' for Inactive)
REMARK    1  A    between atoms: C_1  and  C_2
REMARK    2  A    between atoms: C_5  and  N_6
REMARK    3  A    between atoms: C_11  and  C_12
REMARK                            x       y       z     vdW  Elec       q    Type
REMARK                         _______ _______ _______ _____ _____    ______ ____
ROOT
ATOM      1  N   UNL     1       3.648   3.889  19.348  0.00  0.00    +0.000 N 
ATOM      2  C   UNL     1       3.899   2.820  20.203  0.00  0.00    +0.000 C 
ATOM      3  O   UNL     1       4.913   2.132  20.217  0.00  0.00    +0.000 OA
ATOM      4  C   UNL     1       2.738   2.550  21.136  0.00  0.00    +0.000 C 
ATOM      5  S   UNL     1       1.489   3.813  20.829  0.00  0.00    +0.000 S 
ATOM      6  C   UNL     1       2.282   4.371  19.298  0.00  0.00    +0.000 C 
ENDROOT
BRANCH   1  11
ATOM      7  C   UNL     1       7.265   4.850  15.025  0.00  0.00    +0.000 C 
ATOM      8  C   UNL     1       6.321   4.623  16.169  0.00  0.00    +0.000 A 
ATOM      9  C   UNL     1       6.616   5.094  17.454  0.00  0.00    +0.000 A 
ATOM     10  C   UNL     1       5.741   4.853  18.516  0.00  0.00    +0.000 A 
ATOM     11  C   UNL     1       4.545   4.167  18.293  0.00  0.00    +0.000 A 
ATOM     12  C   UNL     1       4.234   3.712  17.008  0.00  0.00    +0.000 A 
ATOM     13  C   UNL     1       5.128   3.920  15.957  0.00  0.00    +0.000 A 
ENDBRANCH   1  11
BRANCH   6  14
ATOM     14  C   UNL     1       2.239   5.874  19.179  0.00  0.00    +0.000 A 
ATOM     15  C   UNL     1       2.470   6.680  18.075  0.00  0.00    +0.000 A 
ATOM     16  C   UNL     1       2.268   8.063  18.355  0.00  0.00    +0.000 A 
ATOM     17  C   UNL     1       1.896   8.274  19.661  0.00  0.00    +0.000 A 
ATOM     18  S   UNL     1       1.806   6.816  20.547  0.00  0.00    +0.000 S 
ENDBRANCH   6  14
TORSDOF 2
ENDMDL
MODEL 3
REMARK VINA RESULT:      -6.5      2.280      4.716
REMARK  Name = 
REMARK  3 active torsions:
REMARK  status: ('A' for Active; 'I' for Inactive)
REMARK    1  A    between atoms: C_1  and  C_2
REMARK    2  A    between atoms: C_5  and  N_6
REMARK    3  A    between atoms: C_11  and  C_12
REMARK                            x       y       z     vdW  Elec       q    Type
REMARK                         _______ _______ _______ _____ _____    ______ ____
ROOT
ATOM      1  N   UNL     1       3.007   4.451  19.007  0.00  0.00    +0.000 N 
ATOM      2  C   UNL     1       2.017   3.476  18.926  0.00  0.00    +0.000 C 
ATOM      3  O   UNL     1       0.828   3.673  18.706  0.00  0.00    +0.000 OA
ATOM      4  C   UNL     1       2.562   2.087  19.182  0.00  0.00    +0.000 C 
ATOM      5  S   UNL     1       4.344   2.235  19.402  0.00  0.00    +0.000 S 
ATOM      6  C   UNL     1       4.279   4.039  19.566  0.00  0.00    +0.000 C 
ENDROOT
BRANCH   1  11
ATOM      7  C   UNL     1       1.412   9.942  18.967  0.00  0.00    +0.000 C 
ATOM      8  C   UNL     1       1.851   8.507  18.960  0.00  0.00    +0.000 A 
ATOM      9  C   UNL     1       2.288   7.891  17.781  0.00  0.00    +0.000 A 
ATOM     10  C   UNL     1       2.669   6.547  17.782  0.00  0.00    +0.000 A 
ATOM     11  C   UNL     1       2.647   5.817  18.973  0.00  0.00    +0.000 A 
ATOM     12  C   UNL     1       2.231   6.431  20.158  0.00  0.00    +0.000 A 
ATOM     13  C   UNL     1       1.815   7.763  20.146  0.00  0.00    +0.000 A 
ENDBRANCH   1  11
BRANCH   6  14
ATOM     14  C   UNL     1       5.429   4.693  18.842  0.00  0.00    +0.000 A 
ATOM     15  C   UNL     1       6.421   5.529  19.333  0.00  0.00    +0.000 A 
ATOM     16  C   UNL     1       7.374   5.891  18.337  0.00  0.00    +0.000 A 
ATOM     17  C   UNL     1       7.081   5.329  17.117  0.00  0.00    +0.000 A 
ATOM     18  S   UNL     1       5.658   4.385  17.169  0.00  0.00    +0.000 S 
ENDBRANCH   6  14
TORSDOF 2
ENDMDL
MODEL 4
REMARK VINA RESULT:      -6.5      2.309      4.742
REMARK  Name = 
REMARK  3 active torsions:
REMARK  status: ('A' for Active; 'I' for Inactive)
REMARK    1  A    between atoms: C_1  and  C_2
REMARK    2  A    between atoms: C_5  and  N_6
REMARK    3  A    between atoms: C_11  and  C_12
REMARK                            x       y       z     vdW  Elec       q    Type
REMARK                         _______ _______ _______ _____ _____    ______ ____
ROOT
ATOM      1  N   UNL     1       2.977   4.354  18.947  0.00  0.00    +0.000 N 
ATOM      2  C   UNL     1       2.006   3.364  18.827  0.00  0.00    +0.000 C 
ATOM      3  O   UNL     1       0.815   3.546  18.598  0.00  0.00    +0.000 OA
ATOM      4  C   UNL     1       2.573   1.978  19.049  0.00  0.00    +0.000 C 
ATOM      5  S   UNL     1       4.350   2.151  19.294  0.00  0.00    +0.000 S 
ATOM      6  C   UNL     1       4.250   3.948  19.509  0.00  0.00    +0.000 C 
ENDROOT
BRANCH   1  11
ATOM      7  C   UNL     1       1.561   9.893  18.856  0.00  0.00    +0.000 C 
ATOM      8  C   UNL     1       1.912   8.435  18.898  0.00  0.00    +0.000 A 
ATOM      9  C   UNL     1       1.872   7.716  20.099  0.00  0.00    +0.000 A 
ATOM     10  C   UNL     1       2.227   6.365  20.129  0.00  0.00    +0.000 A 
ATOM     11  C   UNL     1       2.593   5.713  18.949  0.00  0.00    +0.000 A 
ATOM     12  C   UNL     1       2.616   6.420  17.743  0.00  0.00    +0.000 A 
ATOM     13  C   UNL     1       2.298   7.778  17.722  0.00  0.00    +0.000 A 
ENDBRANCH   1  11
BRANCH   6  14
ATOM     14  C   UNL     1       5.396   4.643  18.818  0.00  0.00    +0.000 A 
ATOM     15  C   UNL     1       6.352   5.502  19.339  0.00  0.00    +0.000 A 
ATOM     16  C   UNL     1       7.315   5.902  18.369  0.00  0.00    +0.000 A 
ATOM     17  C   UNL     1       7.066   5.346  17.137  0.00  0.00    +0.000 A 
ATOM     18  S   UNL     1       5.670   4.360  17.147  0.00  0.00    +0.000 S 
ENDBRANCH   6  14
TORSDOF 2
ENDMDL
MODEL 5
REMARK VINA RESULT:      -6.4      2.350      5.299
REMARK  Name = 
REMARK  3 active torsions:
REMARK  status: ('A' for Active; 'I' for Inactive)
REMARK    1  A    between atoms: C_1  and  C_2
REMARK    2  A    between atoms: C_5  and  N_6
REMARK    3  A    between atoms: C_11  and  C_12
REMARK                            x       y       z     vdW  Elec       q    Type
REMARK                         _______ _______ _______ _____ _____    ______ ____
ROOT
ATOM      1  N   UNL     1       3.881   5.878  17.870  0.00  0.00    +0.000 N 
ATOM      2  C   UNL     1       5.153   6.212  17.418  0.00  0.00    +0.000 C 
ATOM      3  O   UNL     1       5.682   7.315  17.505  0.00  0.00    +0.000 OA
ATOM      4  C   UNL     1       5.845   5.046  16.745  0.00  0.00    +0.000 C 
ATOM      5  S   UNL     1       4.758   3.616  16.882  0.00  0.00    +0.000 S 
ATOM      6  C   UNL     1       3.339   4.616  17.406  0.00  0.00    +0.000 C 
ENDROOT
BRANCH   1  11
ATOM      7  C   UNL     1       0.511  10.086  19.776  0.00  0.00    +0.000 C 
ATOM      8  C   UNL     1       1.381   8.963  19.291  0.00  0.00    +0.000 A 
ATOM      9  C   UNL     1       1.795   7.945  20.157  0.00  0.00    +0.000 A 
ATOM     10  C   UNL     1       2.627   6.919  19.700  0.00  0.00    +0.000 A 
ATOM     11  C   UNL     1       3.024   6.888  18.361  0.00  0.00    +0.000 A 
ATOM     12  C   UNL     1       2.598   7.891  17.486  0.00  0.00    +0.000 A 
ATOM     13  C   UNL     1       1.799   8.935  17.954  0.00  0.00    +0.000 A 
ENDBRANCH   1  11
BRANCH   6  14
ATOM     14  C   UNL     1       2.559   3.924  18.495  0.00  0.00    +0.000 A 
ATOM     15  C   UNL     1       1.194   3.697  18.597  0.00  0.00    +0.000 A 
ATOM     16  C   UNL     1       0.850   2.946  19.757  0.00  0.00    +0.000 A 
ATOM     17  C   UNL     1       1.954   2.627  20.510  0.00  0.00    +0.000 A 
ATOM     18  S   UNL     1       3.396   3.243  19.830  0.00  0.00    +0.000 S 
ENDBRANCH   6  14
TORSDOF 2
ENDMDL
MODEL 6
REMARK VINA RESULT:      -6.3      2.361      5.249
REMARK  Name = 
REMARK  3 active torsions:
REMARK  status: ('A' for Active; 'I' for Inactive)
REMARK    1  A    between atoms: C_1  and  C_2
REMARK    2  A    between atoms: C_5  and  N_6
REMARK    3  A    between atoms: C_11  and  C_12
REMARK                            x       y       z     vdW  Elec       q    Type
REMARK                         _______ _______ _______ _____ _____    ______ ____
ROOT
ATOM      1  N   UNL     1       3.969   5.881  17.808  0.00  0.00    +0.000 N 
ATOM      2  C   UNL     1       5.251   6.209  17.376  0.00  0.00    +0.000 C 
ATOM      3  O   UNL     1       5.789   7.305  17.483  0.00  0.00    +0.000 OA
ATOM      4  C   UNL     1       5.941   5.043  16.700  0.00  0.00    +0.000 C 
ATOM      5  S   UNL     1       4.838   3.622  16.806  0.00  0.00    +0.000 S 
ATOM      6  C   UNL     1       3.422   4.630  17.322  0.00  0.00    +0.000 C 
ENDROOT
BRANCH   1  11
ATOM      7  C   UNL     1       0.421   9.861  19.872  0.00  0.00    +0.000 C 
ATOM      8  C   UNL     1       1.365   8.837  19.315  0.00  0.00    +0.000 A 
ATOM      9  C   UNL     1       1.759   8.871  17.973  0.00  0.00    +0.000 A 
ATOM     10  C   UNL     1       2.618   7.895  17.460  0.00  0.00    +0.000 A 
ATOM     11  C   UNL     1       3.116   6.894  18.298  0.00  0.00    +0.000 A 
ATOM     12  C   UNL     1       2.742   6.866  19.645  0.00  0.00    +0.000 A 
ATOM     13  C   UNL     1       1.855   7.819  20.145  0.00  0.00    +0.000 A 
ENDBRANCH   1  11
BRANCH   6  14
ATOM     14  C   UNL     1       2.620   3.934  18.393  0.00  0.00    +0.000 A 
ATOM     15  C   UNL     1       1.250   3.735  18.482  0.00  0.00    +0.000 A 
ATOM     16  C   UNL     1       0.883   2.968  19.625  0.00  0.00    +0.000 A 
ATOM     17  C   UNL     1       1.976   2.610  20.378  0.00  0.00    +0.000 A 
ATOM     18  S   UNL     1       3.434   3.208  19.718  0.00  0.00    +0.000 S 
ENDBRANCH   6  14
TORSDOF 2
ENDMDL
MODEL 7
REMARK VINA RESULT:      -6.3      0.795      1.539
REMARK  Name = 
REMARK  3 active torsions:
REMARK  status: ('A' for Active; 'I' for Inactive)
REMARK    1  A    between atoms: C_1  and  C_2
REMARK    2  A    between atoms: C_5  and  N_6
REMARK    3  A    between atoms: C_11  and  C_12
REMARK                            x       y       z     vdW  Elec       q    Type
REMARK                         _______ _______ _______ _____ _____    ______ ____
ROOT
ATOM      1  N   UNL     1       3.674   3.638  19.638  0.00  0.00    +0.000 N 
ATOM      2  C   UNL     1       3.978   2.554  20.457  0.00  0.00    +0.000 C 
ATOM      3  O   UNL     1       5.022   1.912  20.444  0.00  0.00    +0.000 OA
ATOM      4  C   UNL     1       2.836   2.202  21.386  0.00  0.00    +0.000 C 
ATOM      5  S   UNL     1       1.530   3.416  21.127  0.00  0.00    +0.000 S 
ATOM      6  C   UNL     1       2.287   4.059  19.611  0.00  0.00    +0.000 C 
ENDROOT
BRANCH   1  11
ATOM      7  C   UNL     1       7.225   4.898  15.339  0.00  0.00    +0.000 C 
ATOM      8  C   UNL     1       6.296   4.593  16.476  0.00  0.00    +0.000 A 
ATOM      9  C   UNL     1       6.537   5.095  17.761  0.00  0.00    +0.000 A 
ATOM     10  C   UNL     1       5.678   4.782  18.818  0.00  0.00    +0.000 A 
ATOM     11  C   UNL     1       4.551   3.990  18.589  0.00  0.00    +0.000 A 
ATOM     12  C   UNL     1       4.293   3.501  17.305  0.00  0.00    +0.000 A 
ATOM     13  C   UNL     1       5.173   3.784  16.259  0.00  0.00    +0.000 A 
ENDBRANCH   1  11
BRANCH   6  14
ATOM     14  C   UNL     1       2.176   5.561  19.542  0.00  0.00    +0.000 A 
ATOM     15  C   UNL     1       1.942   6.478  20.557  0.00  0.00    +0.000 A 
ATOM     16  C   UNL     1       1.973   7.825  20.095  0.00  0.00    +0.000 A 
ATOM     17  C   UNL     1       2.221   7.901  18.745  0.00  0.00    +0.000 A 
ATOM     18  S   UNL     1       2.401   6.356  18.037  0.00  0.00    +0.000 S 
ENDBRANCH   6  14
TORSDOF 2
ENDMDL
MODEL 8
REMARK VINA RESULT:      -6.3      2.002      4.573
REMARK  Name = 
REMARK  3 active torsions:
REMARK  status: ('A' for Active; 'I' for Inactive)
REMARK    1  A    between atoms: C_1  and  C_2
REMARK    2  A    between atoms: C_5  and  N_6
REMARK    3  A    between atoms: C_11  and  C_12
REMARK                            x       y       z     vdW  Elec       q    Type
REMARK                         _______ _______ _______ _____ _____    ______ ____
ROOT
ATOM      1  N   UNL     1       2.813   4.547  19.317  0.00  0.00    +0.000 N 
ATOM      2  C   UNL     1       1.824   3.687  19.785  0.00  0.00    +0.000 C 
ATOM      3  O   UNL     1       0.640   3.965  19.935  0.00  0.00    +0.000 OA
ATOM      4  C   UNL     1       2.375   2.322  20.141  0.00  0.00    +0.000 C 
ATOM      5  S   UNL     1       4.127   2.317  19.718  0.00  0.00    +0.000 S 
ATOM      6  C   UNL     1       4.185   4.115  19.497  0.00  0.00    +0.000 C 
ENDROOT
BRANCH   1  11
ATOM      7  C   UNL     1       1.464  10.054  18.581  0.00  0.00    +0.000 C 
ATOM      8  C   UNL     1       1.838   8.611  18.755  0.00  0.00    +0.000 A 
ATOM      9  C   UNL     1       2.147   7.807  17.652  0.00  0.00    +0.000 A 
ATOM     10  C   UNL     1       2.468   6.458  17.824  0.00  0.00    +0.000 A 
ATOM     11  C   UNL     1       2.513   5.911  19.108  0.00  0.00    +0.000 A 
ATOM     12  C   UNL     1       2.224   6.713  20.216  0.00  0.00    +0.000 A 
ATOM     13  C   UNL     1       1.867   8.050  20.038  0.00  0.00    +0.000 A 
ENDBRANCH   1  11
BRANCH   6  14
ATOM     14  C   UNL     1       5.034   4.489  18.308  0.00  0.00    +0.000 A 
ATOM     15  C   UNL     1       4.945   4.066  16.990  0.00  0.00    +0.000 A 
ATOM     16  C   UNL     1       5.899   4.704  16.145  0.00  0.00    +0.000 A 
ATOM     17  C   UNL     1       6.691   5.588  16.839  0.00  0.00    +0.000 A 
ATOM     18  S   UNL     1       6.297   5.636  18.501  0.00  0.00    +0.000 S 
ENDBRANCH   6  14
TORSDOF 2
ENDMDL
MODEL 9
REMARK VINA RESULT:      -6.2      2.006      4.625
REMARK  Name = 
REMARK  3 active torsions:
REMARK  status: ('A' for Active; 'I' for Inactive)
REMARK    1  A    between atoms: C_1  and  C_2
REMARK    2  A    between atoms: C_5  and  N_6
REMARK    3  A    between atoms: C_11  and  C_12
REMARK                            x       y       z     vdW  Elec       q    Type
REMARK                         _______ _______ _______ _____ _____    ______ ____
ROOT
ATOM      1  N   UNL     1       2.760   4.616  19.403  0.00  0.00    +0.000 N 
ATOM      2  C   UNL     1       1.821   3.769  19.982  0.00  0.00    +0.000 C 
ATOM      3  O   UNL     1       0.649   4.043  20.214  0.00  0.00    +0.000 OA
ATOM      4  C   UNL     1       2.413   2.425  20.349  0.00  0.00    +0.000 C 
ATOM      5  S   UNL     1       4.126   2.416  19.791  0.00  0.00    +0.000 S 
ATOM      6  C   UNL     1       4.147   4.203  19.492  0.00  0.00    +0.000 C 
ENDROOT
BRANCH   1  11
ATOM      7  C   UNL     1       1.553  10.100  18.322  0.00  0.00    +0.000 C 
ATOM      8  C   UNL     1       1.850   8.660  18.625  0.00  0.00    +0.000 A 
ATOM      9  C   UNL     1       1.849   8.184  19.941  0.00  0.00    +0.000 A 
ATOM     10  C   UNL     1       2.153   6.848  20.213  0.00  0.00    +0.000 A 
ATOM     11  C   UNL     1       2.429   5.969  19.163  0.00  0.00    +0.000 A 
ATOM     12  C   UNL     1       2.413   6.433  17.845  0.00  0.00    +0.000 A 
ATOM     13  C   UNL     1       2.146   7.776  17.580  0.00  0.00    +0.000 A 
ENDBRANCH   1  11
BRANCH   6  14
ATOM     14  C   UNL     1       4.896   4.534  18.226  0.00  0.00    +0.000 A 
ATOM     15  C   UNL     1       4.725   4.037  16.942  0.00  0.00    +0.000 A 
ATOM     16  C   UNL     1       5.595   4.654  15.997  0.00  0.00    +0.000 A 
ATOM     17  C   UNL     1       6.407   5.595  16.582  0.00  0.00    +0.000 A 
ATOM     18  S   UNL     1       6.133   5.723  18.264  0.00  0.00    +0.000 S 
ENDBRANCH   6  14
TORSDOF 2
ENDMDL
