MODEL 1
REMARK VINA RESULT:      -6.7      0.000      0.000
REMARK  Name = 
REMARK  6 active torsions:
REMARK  status: ('A' for Active; 'I' for Inactive)
REMARK    1  A    between atoms: C_1  and  C_2
REMARK    2  A    between atoms: C_8  and  C_9
REMARK    3  A    between atoms: C_11  and  C_12
REMARK    4  A    between atoms: N_13  and  C_14
REMARK    5  A    between atoms: C_17  and  C_18
REMARK    6  A    between atoms: C_21  and  C_22
REMARK                            x       y       z     vdW  Elec       q    Type
REMARK                         _______ _______ _______ _____ _____    ______ ____
ROOT
ATOM      1  C   UNL     1       2.213   8.282  18.275  0.00  0.00    +0.000 C 
ATOM      2  C   UNL     1       1.400   9.210  19.099  0.00  0.00    +0.000 C 
ATOM      3  N   UNL     1       0.923  10.294  18.575  0.00  0.00    +0.000 NA
ATOM      4  N   UNL     1       0.445  11.083  19.589  0.00  0.00    +0.000 N 
ATOM      5  C   UNL     1       0.413  12.447  19.408  0.00  0.00    +0.000 C 
ATOM      6  N   UNL     1       0.556  12.963  18.226  0.00  0.00    +0.000 NA
ATOM      7  C   UNL     1       0.244  13.226  20.659  0.00  0.00    +0.000 C 
ATOM      8  C   UNL     1       0.843  14.402  20.908  0.00  0.00    +0.000 C 
ATOM      9  C   UNL     1      -0.309  12.473  21.841  0.00  0.00    +0.000 C 
ATOM     10  O   UNL     1      -0.993  13.043  22.687  0.00  0.00    +0.000 OA
ATOM     11  N   UNL     1       0.104  11.155  21.953  0.00  0.00    +0.000 NA
ATOM     12  C   UNL     1       0.445  10.557  20.861  0.00  0.00    +0.000 C 
ATOM     13  S   UNL     1       1.123   8.939  20.809  0.00  0.00    +0.000 S 
ATOM     14  H   UNL     1       0.700  12.161  17.592  0.00  0.00    +0.000 HD
ENDROOT
BRANCH   8  15
ATOM     15  C   UNL     1       1.805  15.056  20.082  0.00  0.00    +0.000 A 
ATOM     16  C   UNL     1       1.480  15.958  19.054  0.00  0.00    +0.000 A 
ATOM     17  C   UNL     1       2.646  16.260  18.380  0.00  0.00    +0.000 A 
ATOM     18  C   UNL     1       2.738  16.940  17.054  0.00  0.00    +0.000 C 
ATOM     19  N   UNL     1       3.715  15.672  19.067  0.00  0.00    +0.000 N 
ATOM     20  C   UNL     1       3.182  14.931  20.132  0.00  0.00    +0.000 A 
ATOM     21  C   UNL     1       3.982  14.214  21.174  0.00  0.00    +0.000 C 
BRANCH  19  22
ATOM     22  C   UNL     1       5.090  15.749  18.674  0.00  0.00    +0.000 A 
ATOM     23  C   UNL     1       5.691  14.706  17.955  0.00  0.00    +0.000 A 
ATOM     24  C   UNL     1       7.060  14.739  17.663  0.00  0.00    +0.000 A 
ATOM     25  C   UNL     1       7.839  15.831  18.055  0.00  0.00    +0.000 A 
ATOM     26  C   UNL     1       9.314  15.871  17.791  0.00  0.00    +0.000 C 
ATOM     27  C   UNL     1       7.227  16.895  18.726  0.00  0.00    +0.000 A 
ATOM     28  C   UNL     1       5.868  16.848  19.047  0.00  0.00    +0.000 A 
ENDBRANCH  19  22
ENDBRANCH   8  15
TORSDOF 2
ENDMDL
MODEL 2
REMARK VINA RESULT:      -6.5      4.298      6.784
REMARK  Name = 
REMARK  6 active torsions:
REMARK  status: ('A' for Active; 'I' for Inactive)
REMARK    1  A    between atoms: C_1  and  C_2
REMARK    2  A    between atoms: C_8  and  C_9
REMARK    3  A    between atoms: C_11  and  C_12
REMARK    4  A    between atoms: N_13  and  C_14
REMARK    5  A    between atoms: C_17  and  C_18
REMARK    6  A    between atoms: C_21  and  C_22
REMARK                            x       y       z     vdW  Elec       q    Type
REMARK                         _______ _______ _______ _____ _____    ______ ____
ROOT
ATOM      1  C   UNL     1      -6.618  11.238  18.327  0.00  0.00    +0.000 C 
ATOM      2  C   UNL     1      -6.051  11.910  19.523  0.00  0.00    +0.000 C 
ATOM      3  N   UNL     1      -5.018  12.682  19.404  0.00  0.00    +0.000 NA
ATOM      4  N   UNL     1      -4.548  12.961  20.661  0.00  0.00    +0.000 N 
ATOM      5  C   UNL     1      -3.214  13.257  20.819  0.00  0.00    +0.000 C 
ATOM      6  N   UNL     1      -2.473  13.546  19.793  0.00  0.00    +0.000 NA
ATOM      7  C   UNL     1      -2.730  13.173  22.219  0.00  0.00    +0.000 C 
ATOM      8  C   UNL     1      -1.518  12.719  22.578  0.00  0.00    +0.000 C 
ATOM      9  C   UNL     1      -3.786  13.235  23.291  0.00  0.00    +0.000 C 
ATOM     10  O   UNL     1      -3.540  13.722  24.390  0.00  0.00    +0.000 OA
ATOM     11  N   UNL     1      -4.982  12.607  22.984  0.00  0.00    +0.000 NA
ATOM     12  C   UNL     1      -5.285  12.509  21.733  0.00  0.00    +0.000 C 
ATOM     13  S   UNL     1      -6.682  11.632  21.135  0.00  0.00    +0.000 S 
ATOM     14  H   UNL     1      -3.095  13.469  18.974  0.00  0.00    +0.000 HD
ENDROOT
BRANCH   8  15
ATOM     15  C   UNL     1      -0.533  12.153  21.714  0.00  0.00    +0.000 A 
ATOM     16  C   UNL     1       0.354  12.907  20.927  0.00  0.00    +0.000 A 
ATOM     17  C   UNL     1       1.041  12.028  20.115  0.00  0.00    +0.000 A 
ATOM     18  C   UNL     1       1.866  12.399  18.927  0.00  0.00    +0.000 C 
ATOM     19  N   UNL     1       0.698  10.724  20.489  0.00  0.00    +0.000 N 
ATOM     20  C   UNL     1      -0.278  10.812  21.493  0.00  0.00    +0.000 A 
ATOM     21  C   UNL     1      -0.859   9.652  22.239  0.00  0.00    +0.000 C 
BRANCH  19  22
ATOM     22  C   UNL     1       1.196   9.531  19.874  0.00  0.00    +0.000 A 
ATOM     23  C   UNL     1       1.537   8.412  20.647  0.00  0.00    +0.000 A 
ATOM     24  C   UNL     1       2.121   7.286  20.054  0.00  0.00    +0.000 A 
ATOM     25  C   UNL     1       2.339   7.251  18.675  0.00  0.00    +0.000 A 
ATOM     26  C   UNL     1       3.001   6.074  18.021  0.00  0.00    +0.000 C 
ATOM     27  C   UNL     1       1.952   8.346  17.896  0.00  0.00    +0.000 A 
ATOM     28  C   UNL     1       1.399   9.483  18.493  0.00  0.00    +0.000 A 
ENDBRANCH  19  22
ENDBRANCH   8  15
TORSDOF 2
ENDMDL
MODEL 3
REMARK VINA RESULT:      -6.5      4.947      7.468
REMARK  Name = 
REMARK  6 active torsions:
REMARK  status: ('A' for Active; 'I' for Inactive)
REMARK    1  A    between atoms: C_1  and  C_2
REMARK    2  A    between atoms: C_8  and  C_9
REMARK    3  A    between atoms: C_11  and  C_12
REMARK    4  A    between atoms: N_13  and  C_14
REMARK    5  A    between atoms: C_17  and  C_18
REMARK    6  A    between atoms: C_21  and  C_22
REMARK                            x       y       z     vdW  Elec       q    Type
REMARK                         _______ _______ _______ _____ _____    ______ ____
ROOT
ATOM      1  C   UNL     1       0.675   3.040  20.641  0.00  0.00    +0.000 C 
ATOM      2  C   UNL     1       1.615   3.978  19.978  0.00  0.00    +0.000 C 
ATOM      3  N   UNL     1       1.823   5.153  20.483  0.00  0.00    +0.000 NA
ATOM      4  N   UNL     1       2.511   5.897  19.560  0.00  0.00    +0.000 N 
ATOM      5  C   UNL     1       2.375   7.266  19.578  0.00  0.00    +0.000 C 
ATOM      6  N   UNL     1       1.845   7.867  20.600  0.00  0.00    +0.000 NA
ATOM      7  C   UNL     1       2.840   7.944  18.343  0.00  0.00    +0.000 C 
ATOM      8  C   UNL     1       2.246   9.016  17.795  0.00  0.00    +0.000 C 
ATOM      9  C   UNL     1       3.780   7.157  17.468  0.00  0.00    +0.000 C 
ATOM     10  O   UNL     1       4.633   7.723  16.791  0.00  0.00    +0.000 OA
ATOM     11  N   UNL     1       3.530   5.795  17.401  0.00  0.00    +0.000 NA
ATOM     12  C   UNL     1       2.933   5.262  18.414  0.00  0.00    +0.000 C 
ATOM     13  S   UNL     1       2.408   3.589  18.463  0.00  0.00    +0.000 S 
ATOM     14  H   UNL     1       1.587   7.114  21.257  0.00  0.00    +0.000 HD
ENDROOT
BRANCH   8  15
ATOM     15  C   UNL     1       1.031   9.627  18.227  0.00  0.00    +0.000 A 
ATOM     16  C   UNL     1      -0.249   9.226  17.803  0.00  0.00    +0.000 A 
ATOM     17  C   UNL     1      -1.157  10.138  18.300  0.00  0.00    +0.000 A 
ATOM     18  C   UNL     1      -2.580  10.276  17.870  0.00  0.00    +0.000 C 
ATOM     19  N   UNL     1      -0.477  11.018  19.150  0.00  0.00    +0.000 N 
ATOM     20  C   UNL     1       0.886  10.686  19.104  0.00  0.00    +0.000 A 
ATOM     21  C   UNL     1       1.959  11.320  19.933  0.00  0.00    +0.000 C 
BRANCH  19  22
ATOM     22  C   UNL     1      -1.074  12.113  19.852  0.00  0.00    +0.000 A 
ATOM     23  C   UNL     1      -0.997  13.419  19.346  0.00  0.00    +0.000 A 
ATOM     24  C   UNL     1      -1.492  14.500  20.085  0.00  0.00    +0.000 A 
ATOM     25  C   UNL     1      -2.101  14.287  21.324  0.00  0.00    +0.000 A 
ATOM     26  C   UNL     1      -2.601  15.431  22.154  0.00  0.00    +0.000 C 
ATOM     27  C   UNL     1      -2.224  12.979  21.805  0.00  0.00    +0.000 A 
ATOM     28  C   UNL     1      -1.701  11.903  21.082  0.00  0.00    +0.000 A 
ENDBRANCH  19  22
ENDBRANCH   8  15
TORSDOF 2
ENDMDL
MODEL 4
REMARK VINA RESULT:      -6.4      3.448      6.787
REMARK  Name = 
REMARK  6 active torsions:
REMARK  status: ('A' for Active; 'I' for Inactive)
REMARK    1  A    between atoms: C_1  and  C_2
REMARK    2  A    between atoms: C_8  and  C_9
REMARK    3  A    between atoms: C_11  and  C_12
REMARK    4  A    between atoms: N_13  and  C_14
REMARK    5  A    between atoms: C_17  and  C_18
REMARK    6  A    between atoms: C_21  and  C_22
REMARK                            x       y       z     vdW  Elec       q    Type
REMARK                         _______ _______ _______ _____ _____    ______ ____
ROOT
ATOM      1  C   UNL     1       5.229  14.365  23.219  0.00  0.00    +0.000 C 
ATOM      2  C   UNL     1       4.241  15.125  22.412  0.00  0.00    +0.000 C 
ATOM      3  N   UNL     1       2.987  14.804  22.453  0.00  0.00    +0.000 NA
ATOM      4  N   UNL     1       2.344  15.472  21.443  0.00  0.00    +0.000 N 
ATOM      5  C   UNL     1       1.200  14.923  20.910  0.00  0.00    +0.000 C 
ATOM      6  N   UNL     1       0.581  13.958  21.518  0.00  0.00    +0.000 NA
ATOM      7  C   UNL     1       0.796  15.502  19.605  0.00  0.00    +0.000 C 
ATOM      8  C   UNL     1       0.258  14.797  18.595  0.00  0.00    +0.000 C 
ATOM      9  C   UNL     1       1.373  16.852  19.270  0.00  0.00    +0.000 C 
ATOM     10  O   UNL     1       0.748  17.651  18.579  0.00  0.00    +0.000 OA
ATOM     11  N   UNL     1       2.676  17.063  19.692  0.00  0.00    +0.000 NA
ATOM     12  C   UNL     1       3.073  16.387  20.717  0.00  0.00    +0.000 C 
ATOM     13  S   UNL     1       4.721  16.410  21.319  0.00  0.00    +0.000 S 
ATOM     14  H   UNL     1       1.142  13.760  22.362  0.00  0.00    +0.000 HD
ENDROOT
BRANCH   8  15
ATOM     15  C   UNL     1       0.074  13.383  18.551  0.00  0.00    +0.000 A 
ATOM     16  C   UNL     1      -1.176  12.754  18.416  0.00  0.00    +0.000 A 
ATOM     17  C   UNL     1      -0.977  11.397  18.570  0.00  0.00    +0.000 A 
ATOM     18  C   UNL     1      -2.046  10.378  18.791  0.00  0.00    +0.000 C 
ATOM     19  N   UNL     1       0.400  11.160  18.653  0.00  0.00    +0.000 N 
ATOM     20  C   UNL     1       1.048  12.404  18.632  0.00  0.00    +0.000 A 
ATOM     21  C   UNL     1       2.530  12.608  18.610  0.00  0.00    +0.000 C 
BRANCH  19  22
ATOM     22  C   UNL     1       1.007   9.876  18.827  0.00  0.00    +0.000 A 
ATOM     23  C   UNL     1       1.056   9.269  20.090  0.00  0.00    +0.000 A 
ATOM     24  C   UNL     1       1.740   8.061  20.275  0.00  0.00    +0.000 A 
ATOM     25  C   UNL     1       2.355   7.427  19.192  0.00  0.00    +0.000 A 
ATOM     26  C   UNL     1       3.129   6.155  19.371  0.00  0.00    +0.000 C 
ATOM     27  C   UNL     1       2.261   8.006  17.922  0.00  0.00    +0.000 A 
ATOM     28  C   UNL     1       1.606   9.228  17.744  0.00  0.00    +0.000 A 
ENDBRANCH  19  22
ENDBRANCH   8  15
TORSDOF 2
ENDMDL
MODEL 5
REMARK VINA RESULT:      -6.3      4.379      6.901
REMARK  Name = 
REMARK  6 active torsions:
REMARK  status: ('A' for Active; 'I' for Inactive)
REMARK    1  A    between atoms: C_1  and  C_2
REMARK    2  A    between atoms: C_8  and  C_9
REMARK    3  A    between atoms: C_11  and  C_12
REMARK    4  A    between atoms: N_13  and  C_14
REMARK    5  A    between atoms: C_17  and  C_18
REMARK    6  A    between atoms: C_21  and  C_22
REMARK                            x       y       z     vdW  Elec       q    Type
REMARK                         _______ _______ _______ _____ _____    ______ ____
ROOT
ATOM      1  C   UNL     1      -6.383  12.001  17.900  0.00  0.00    +0.000 C 
ATOM      2  C   UNL     1      -5.893  12.386  19.248  0.00  0.00    +0.000 C 
ATOM      3  N   UNL     1      -4.813  13.090  19.368  0.00  0.00    +0.000 NA
ATOM      4  N   UNL     1      -4.447  13.085  20.689  0.00  0.00    +0.000 N 
ATOM      5  C   UNL     1      -3.119  13.248  21.009  0.00  0.00    +0.000 C 
ATOM      6  N   UNL     1      -2.270  13.676  20.125  0.00  0.00    +0.000 NA
ATOM      7  C   UNL     1      -2.772  12.860  22.399  0.00  0.00    +0.000 C 
ATOM      8  C   UNL     1      -1.625  12.258  22.756  0.00  0.00    +0.000 C 
ATOM      9  C   UNL     1      -3.918  12.789  23.373  0.00  0.00    +0.000 C 
ATOM     10  O   UNL     1      -3.749  13.035  24.564  0.00  0.00    +0.000 OA
ATOM     11  N   UNL     1      -5.114  12.320  22.853  0.00  0.00    +0.000 NA
ATOM     12  C   UNL     1      -5.304  12.489  21.587  0.00  0.00    +0.000 C 
ATOM     13  S   UNL     1      -6.686  11.848  20.716  0.00  0.00    +0.000 S 
ATOM     14  H   UNL     1      -2.818  13.804  19.259  0.00  0.00    +0.000 HD
ENDROOT
BRANCH   8  15
ATOM     15  C   UNL     1      -0.598  11.800  21.879  0.00  0.00    +0.000 A 
ATOM     16  C   UNL     1       0.261  12.648  21.158  0.00  0.00    +0.000 A 
ATOM     17  C   UNL     1       1.008  11.859  20.307  0.00  0.00    +0.000 A 
ATOM     18  C   UNL     1       1.832  12.348  19.162  0.00  0.00    +0.000 C 
ATOM     19  N   UNL     1       0.728  10.518  20.592  0.00  0.00    +0.000 N 
ATOM     20  C   UNL     1      -0.268  10.491  21.579  0.00  0.00    +0.000 A 
ATOM     21  C   UNL     1      -0.799   9.257  22.239  0.00  0.00    +0.000 C 
BRANCH  19  22
ATOM     22  C   UNL     1       1.300   9.394  19.913  0.00  0.00    +0.000 A 
ATOM     23  C   UNL     1       1.411   9.379  18.516  0.00  0.00    +0.000 A 
ATOM     24  C   UNL     1       1.876   8.238  17.850  0.00  0.00    +0.000 A 
ATOM     25  C   UNL     1       2.266   7.110  18.575  0.00  0.00    +0.000 A 
ATOM     26  C   UNL     1       2.727   5.861  17.884  0.00  0.00    +0.000 C 
ATOM     27  C   UNL     1       2.204   7.144  19.972  0.00  0.00    +0.000 A 
ATOM     28  C   UNL     1       1.710   8.270  20.635  0.00  0.00    +0.000 A 
ENDBRANCH  19  22
ENDBRANCH   8  15
TORSDOF 2
ENDMDL
MODEL 6
REMARK VINA RESULT:      -6.2      4.380      6.891
REMARK  Name = 
REMARK  6 active torsions:
REMARK  status: ('A' for Active; 'I' for Inactive)
REMARK    1  A    between atoms: C_1  and  C_2
REMARK    2  A    between atoms: C_8  and  C_9
REMARK    3  A    between atoms: C_11  and  C_12
REMARK    4  A    between atoms: N_13  and  C_14
REMARK    5  A    between atoms: C_17  and  C_18
REMARK    6  A    between atoms: C_21  and  C_22
REMARK                            x       y       z     vdW  Elec       q    Type
REMARK                         _______ _______ _______ _____ _____    ______ ____
ROOT
ATOM      1  C   UNL     1      -4.218  12.876  24.986  0.00  0.00    +0.000 C 
ATOM      2  C   UNL     1      -3.665  13.866  24.029  0.00  0.00    +0.000 C 
ATOM      3  N   UNL     1      -3.872  13.725  22.758  0.00  0.00    +0.000 NA
ATOM      4  N   UNL     1      -3.056  14.603  22.094  0.00  0.00    +0.000 N 
ATOM      5  C   UNL     1      -2.657  14.297  20.813  0.00  0.00    +0.000 C 
ATOM      6  N   UNL     1      -3.251  13.360  20.139  0.00  0.00    +0.000 NA
ATOM      7  C   UNL     1      -1.503  15.092  20.325  0.00  0.00    +0.000 C 
ATOM      8  C   UNL     1      -0.524  14.608  19.543  0.00  0.00    +0.000 C 
ATOM      9  C   UNL     1      -1.225  16.378  21.058  0.00  0.00    +0.000 C 
ATOM     10  O   UNL     1      -0.732  17.340  20.477  0.00  0.00    +0.000 OA
ATOM     11  N   UNL     1      -1.453  16.344  22.424  0.00  0.00    +0.000 NA
ATOM     12  C   UNL     1      -2.323  15.491  22.849  0.00  0.00    +0.000 C 
ATOM     13  S   UNL     1      -2.653  15.201  24.548  0.00  0.00    +0.000 S 
ATOM     14  H   UNL     1      -3.968  12.976  20.775  0.00  0.00    +0.000 HD
ENDROOT
BRANCH   8  15
ATOM     15  C   UNL     1      -0.359  13.253  19.129  0.00  0.00    +0.000 A 
ATOM     16  C   UNL     1      -1.185  12.607  18.193  0.00  0.00    +0.000 A 
ATOM     17  C   UNL     1      -0.824  11.275  18.166  0.00  0.00    +0.000 A 
ATOM     18  C   UNL     1      -1.609  10.170  17.542  0.00  0.00    +0.000 C 
ATOM     19  N   UNL     1       0.313  11.112  18.967  0.00  0.00    +0.000 N 
ATOM     20  C   UNL     1       0.600  12.353  19.556  0.00  0.00    +0.000 A 
ATOM     21  C   UNL     1       1.788  12.647  20.418  0.00  0.00    +0.000 C 
BRANCH  19  22
ATOM     22  C   UNL     1       0.985   9.870  19.201  0.00  0.00    +0.000 A 
ATOM     23  C   UNL     1       1.706   9.239  18.178  0.00  0.00    +0.000 A 
ATOM     24  C   UNL     1       2.275   7.976  18.381  0.00  0.00    +0.000 A 
ATOM     25  C   UNL     1       2.160   7.343  19.621  0.00  0.00    +0.000 A 
ATOM     26  C   UNL     1       2.724   5.973  19.852  0.00  0.00    +0.000 C 
ATOM     27  C   UNL     1       1.485   7.996  20.658  0.00  0.00    +0.000 A 
ATOM     28  C   UNL     1       0.889   9.242  20.445  0.00  0.00    +0.000 A 
ENDBRANCH  19  22
ENDBRANCH   8  15
TORSDOF 2
ENDMDL
MODEL 7
REMARK VINA RESULT:      -6.0      4.382      7.897
REMARK  Name = 
REMARK  6 active torsions:
REMARK  status: ('A' for Active; 'I' for Inactive)
REMARK    1  A    between atoms: C_1  and  C_2
REMARK    2  A    between atoms: C_8  and  C_9
REMARK    3  A    between atoms: C_11  and  C_12
REMARK    4  A    between atoms: N_13  and  C_14
REMARK    5  A    between atoms: C_17  and  C_18
REMARK    6  A    between atoms: C_21  and  C_22
REMARK                            x       y       z     vdW  Elec       q    Type
REMARK                         _______ _______ _______ _____ _____    ______ ____
ROOT
ATOM      1  C   UNL     1       9.611  10.689  19.822  0.00  0.00    +0.000 C 
ATOM      2  C   UNL     1       9.887  12.094  19.432  0.00  0.00    +0.000 C 
ATOM      3  N   UNL     1       9.522  13.066  20.206  0.00  0.00    +0.000 NA
ATOM      4  N   UNL     1       9.656  14.239  19.510  0.00  0.00    +0.000 N 
ATOM      5  C   UNL     1       8.852  15.304  19.845  0.00  0.00    +0.000 C 
ATOM      6  N   UNL     1       8.187  15.309  20.960  0.00  0.00    +0.000 NA
ATOM      7  C   UNL     1       8.800  16.377  18.821  0.00  0.00    +0.000 C 
ATOM      8  C   UNL     1       7.700  17.087  18.520  0.00  0.00    +0.000 C 
ATOM      9  C   UNL     1       9.924  16.393  17.819  0.00  0.00    +0.000 C 
ATOM     10  O   UNL     1      10.311  17.448  17.324  0.00  0.00    +0.000 OA
ATOM     11  N   UNL     1      10.388  15.149  17.425  0.00  0.00    +0.000 NA
ATOM     12  C   UNL     1      10.234  14.178  18.261  0.00  0.00    +0.000 C 
ATOM     13  S   UNL     1      10.628  12.508  17.897  0.00  0.00    +0.000 S 
ATOM     14  H   UNL     1       8.403  14.406  21.412  0.00  0.00    +0.000 HD
ENDROOT
BRANCH   8  15
ATOM     15  C   UNL     1       6.387  16.880  19.041  0.00  0.00    +0.000 A 
ATOM     16  C   UNL     1       5.772  17.720  19.985  0.00  0.00    +0.000 A 
ATOM     17  C   UNL     1       4.586  17.123  20.364  0.00  0.00    +0.000 A 
ATOM     18  C   UNL     1       3.753  17.505  21.542  0.00  0.00    +0.000 C 
ATOM     19  N   UNL     1       4.386  15.995  19.560  0.00  0.00    +0.000 N 
ATOM     20  C   UNL     1       5.510  15.857  18.732  0.00  0.00    +0.000 A 
ATOM     21  C   UNL     1       5.670  14.831  17.654  0.00  0.00    +0.000 C 
BRANCH  19  22
ATOM     22  C   UNL     1       3.270  15.103  19.653  0.00  0.00    +0.000 A 
ATOM     23  C   UNL     1       2.131  15.291  18.857  0.00  0.00    +0.000 A 
ATOM     24  C   UNL     1       1.002  14.480  19.024  0.00  0.00    +0.000 A 
ATOM     25  C   UNL     1       1.009  13.448  19.966  0.00  0.00    +0.000 A 
ATOM     26  C   UNL     1      -0.201  12.593  20.194  0.00  0.00    +0.000 C 
ATOM     27  C   UNL     1       2.164  13.228  20.724  0.00  0.00    +0.000 A 
ATOM     28  C   UNL     1       3.279  14.058  20.580  0.00  0.00    +0.000 A 
ENDBRANCH  19  22
ENDBRANCH   8  15
TORSDOF 2
ENDMDL
MODEL 8
REMARK VINA RESULT:      -5.9      5.599      7.945
REMARK  Name = 
REMARK  6 active torsions:
REMARK  status: ('A' for Active; 'I' for Inactive)
REMARK    1  A    between atoms: C_1  and  C_2
REMARK    2  A    between atoms: C_8  and  C_9
REMARK    3  A    between atoms: C_11  and  C_12
REMARK    4  A    between atoms: N_13  and  C_14
REMARK    5  A    between atoms: C_17  and  C_18
REMARK    6  A    between atoms: C_21  and  C_22
REMARK                            x       y       z     vdW  Elec       q    Type
REMARK                         _______ _______ _______ _____ _____    ______ ____
ROOT
ATOM      1  C   UNL     1       0.535   2.353  19.026  0.00  0.00    +0.000 C 
ATOM      2  C   UNL     1       1.574   3.386  18.788  0.00  0.00    +0.000 C 
ATOM      3  N   UNL     1       1.680   4.396  19.592  0.00  0.00    +0.000 NA
ATOM      4  N   UNL     1       2.520   5.313  19.015  0.00  0.00    +0.000 N 
ATOM      5  C   UNL     1       2.374   6.642  19.340  0.00  0.00    +0.000 C 
ATOM      6  N   UNL     1       1.664   7.000  20.366  0.00  0.00    +0.000 NA
ATOM      7  C   UNL     1       3.051   7.578  18.409  0.00  0.00    +0.000 C 
ATOM      8  C   UNL     1       2.559   8.772  18.041  0.00  0.00    +0.000 C 
ATOM      9  C   UNL     1       4.139   6.988  17.550  0.00  0.00    +0.000 C 
ATOM     10  O   UNL     1       5.097   7.667  17.192  0.00  0.00    +0.000 OA
ATOM     11  N   UNL     1       3.914   5.693  17.111  0.00  0.00    +0.000 NA
ATOM     12  C   UNL     1       3.146   4.956  17.842  0.00  0.00    +0.000 C 
ATOM     13  S   UNL     1       2.632   3.340  17.390  0.00  0.00    +0.000 S 
ATOM     14  H   UNL     1       1.295   6.122  20.765  0.00  0.00    +0.000 HD
ENDROOT
BRANCH   8  15
ATOM     15  C   UNL     1       1.283   9.307  18.385  0.00  0.00    +0.000 A 
ATOM     16  C   UNL     1       0.115   9.117  17.625  0.00  0.00    +0.000 A 
ATOM     17  C   UNL     1      -0.875   9.904  18.176  0.00  0.00    +0.000 A 
ATOM     18  C   UNL     1      -2.181  10.240  17.537  0.00  0.00    +0.000 C 
ATOM     19  N   UNL     1      -0.379  10.470  19.357  0.00  0.00    +0.000 N 
ATOM     20  C   UNL     1       0.964  10.086  19.483  0.00  0.00    +0.000 A 
ATOM     21  C   UNL     1       1.847  10.399  20.650  0.00  0.00    +0.000 C 
BRANCH  19  22
ATOM     22  C   UNL     1      -1.106  11.359  20.213  0.00  0.00    +0.000 A 
ATOM     23  C   UNL     1      -1.085  11.192  21.605  0.00  0.00    +0.000 A 
ATOM     24  C   UNL     1      -1.877  11.998  22.431  0.00  0.00    +0.000 A 
ATOM     25  C   UNL     1      -2.675  13.004  21.879  0.00  0.00    +0.000 A 
ATOM     26  C   UNL     1      -3.564  13.852  22.738  0.00  0.00    +0.000 C 
ATOM     27  C   UNL     1      -2.656  13.204  20.495  0.00  0.00    +0.000 A 
ATOM     28  C   UNL     1      -1.890  12.378  19.667  0.00  0.00    +0.000 A 
ENDBRANCH  19  22
ENDBRANCH   8  15
TORSDOF 2
ENDMDL
MODEL 9
REMARK VINA RESULT:      -5.9      4.644      7.687
REMARK  Name = 
REMARK  6 active torsions:
REMARK  status: ('A' for Active; 'I' for Inactive)
REMARK    1  A    between atoms: C_1  and  C_2
REMARK    2  A    between atoms: C_8  and  C_9
REMARK    3  A    between atoms: C_11  and  C_12
REMARK    4  A    between atoms: N_13  and  C_14
REMARK    5  A    between atoms: C_17  and  C_18
REMARK    6  A    between atoms: C_21  and  C_22
REMARK                            x       y       z     vdW  Elec       q    Type
REMARK                         _______ _______ _______ _____ _____    ______ ____
ROOT
ATOM      1  C   UNL     1       8.706   9.452  18.576  0.00  0.00    +0.000 C 
ATOM      2  C   UNL     1       9.354  10.747  18.901  0.00  0.00    +0.000 C 
ATOM      3  N   UNL     1       9.022  11.386  19.977  0.00  0.00    +0.000 NA
ATOM      4  N   UNL     1       9.561  12.645  19.908  0.00  0.00    +0.000 N 
ATOM      5  C   UNL     1       8.939  13.670  20.584  0.00  0.00    +0.000 C 
ATOM      6  N   UNL     1       8.041  13.420  21.488  0.00  0.00    +0.000 NA
ATOM      7  C   UNL     1       9.359  15.027  20.157  0.00  0.00    +0.000 C 
ATOM      8  C   UNL     1       8.536  16.086  20.074  0.00  0.00    +0.000 C 
ATOM      9  C   UNL     1      10.669  15.116  19.421  0.00  0.00    +0.000 C 
ATOM     10  O   UNL     1      11.375  16.117  19.508  0.00  0.00    +0.000 OA
ATOM     11  N   UNL     1      10.946  14.059  18.569  0.00  0.00    +0.000 NA
ATOM     12  C   UNL     1      10.397  12.925  18.851  0.00  0.00    +0.000 C 
ATOM     13  S   UNL     1      10.512  11.506  17.825  0.00  0.00    +0.000 S 
ATOM     14  H   UNL     1       7.950  12.392  21.507  0.00  0.00    +0.000 HD
ENDROOT
BRANCH   8  15
ATOM     15  C   UNL     1       7.123  16.081  20.276  0.00  0.00    +0.000 A 
ATOM     16  C   UNL     1       6.485  16.626  21.403  0.00  0.00    +0.000 A 
ATOM     17  C   UNL     1       5.147  16.298  21.324  0.00  0.00    +0.000 A 
ATOM     18  C   UNL     1       4.152  16.414  22.431  0.00  0.00    +0.000 C 
ATOM     19  N   UNL     1       4.918  15.681  20.089  0.00  0.00    +0.000 N 
ATOM     20  C   UNL     1       6.155  15.558  19.438  0.00  0.00    +0.000 A 
ATOM     21  C   UNL     1       6.354  15.033  18.051  0.00  0.00    +0.000 C 
BRANCH  19  22
ATOM     22  C   UNL     1       3.653  15.186  19.636  0.00  0.00    +0.000 A 
ATOM     23  C   UNL     1       2.764  16.016  18.940  0.00  0.00    +0.000 A 
ATOM     24  C   UNL     1       1.487  15.560  18.590  0.00  0.00    +0.000 A 
ATOM     25  C   UNL     1       1.096  14.255  18.901  0.00  0.00    +0.000 A 
ATOM     26  C   UNL     1      -0.280  13.756  18.574  0.00  0.00    +0.000 C 
ATOM     27  C   UNL     1       2.002  13.410  19.549  0.00  0.00    +0.000 A 
ATOM     28  C   UNL     1       3.264  13.876  19.928  0.00  0.00    +0.000 A 
ENDBRANCH  19  22
ENDBRANCH   8  15
TORSDOF 2
ENDMDL
