MODEL 1
REMARK VINA RESULT:      -6.6      0.000      0.000
REMARK  Name = 
REMARK  10 active torsions:
REMARK  status: ('A' for Active; 'I' for Inactive)
REMARK    1  A    between atoms: C_1  and  C_2
REMARK    2  A    between atoms: C_2  and  C_3
REMARK    3  A    between atoms: C_2  and  C_4
REMARK    4  A    between atoms: C_4  and  C_5
REMARK    5  A    between atoms: C_5  and  C_6
REMARK    6  A    between atoms: C_5  and  N_7
REMARK    7  A    between atoms: N_7  and  C_8
REMARK    8  A    between atoms: C_9  and  C_11
REMARK    9  A    between atoms: C_11  and  C_12
REMARK   10  A    between atoms: C_16  and  O_17
REMARK                            x       y       z     vdW  Elec       q    Type
REMARK                         _______ _______ _______ _____ _____    ______ ____
ROOT
ATOM      1  N   UNL     1       5.822   5.970  18.264  0.00  0.00    +0.000 N 
ATOM      2  C   UNL     1       6.639   5.454  19.356  0.00  0.00    +0.000 C 
ATOM      3  C   UNL     1       4.435   6.110  18.381  0.00  0.00    +0.000 C 
ATOM      4  O   UNL     1       3.761   6.706  17.542  0.00  0.00    +0.000 OA
ENDROOT
BRANCH   1   5
ATOM      5  C   UNL     1       6.496   6.566  17.093  0.00  0.00    +0.000 C 
ATOM      6  C   UNL     1       7.600   7.544  17.520  0.00  0.00    +0.000 C 
BRANCH   5   7
ATOM      7  C   UNL     1       7.056   5.499  16.126  0.00  0.00    +0.000 C 
BRANCH   7   9
ATOM      8  C   UNL     1       6.657   4.475  13.800  0.00  0.00    +0.000 C 
ATOM      9  C   UNL     1       6.041   4.870  15.145  0.00  0.00    +0.000 C 
ATOM     10  C   UNL     1       5.419   3.628  15.795  0.00  0.00    +0.000 C 
ENDBRANCH   7   9
ENDBRANCH   5   7
ENDBRANCH   1   5
BRANCH   3  11
ATOM     11  C   UNL     1       3.745   5.472  19.582  0.00  0.00    +0.000 C 
BRANCH  11  12
ATOM     12  C   UNL     1       3.051   4.170  19.269  0.00  0.00    +0.000 A 
ATOM     13  C   UNL     1       1.652   4.094  19.235  0.00  0.00    +0.000 A 
ATOM     14  C   UNL     1       1.014   2.892  18.915  0.00  0.00    +0.000 A 
ATOM     15  C   UNL     1       1.765   1.753  18.625  0.00  0.00    +0.000 A 
ATOM     16  C   UNL     1       3.153   1.829  18.655  0.00  0.00    +0.000 A 
ATOM     17  C   UNL     1       3.798   3.022  18.971  0.00  0.00    +0.000 A 
BRANCH  16  18
ATOM     18  O   UNL     1       3.932   0.747  18.372  0.00  0.00    +0.000 OA
ATOM     19  H   UNL     1       4.839   1.055  18.212  0.00  0.00    +0.000 HD
ENDBRANCH  16  18
ENDBRANCH  11  12
ENDBRANCH   3  11
TORSDOF 6
ENDMDL
MODEL 2
REMARK VINA RESULT:      -6.5      1.589      1.872
REMARK  Name = 
REMARK  10 active torsions:
REMARK  status: ('A' for Active; 'I' for Inactive)
REMARK    1  A    between atoms: C_1  and  C_2
REMARK    2  A    between atoms: C_2  and  C_3
REMARK    3  A    between atoms: C_2  and  C_4
REMARK    4  A    between atoms: C_4  and  C_5
REMARK    5  A    between atoms: C_5  and  C_6
REMARK    6  A    between atoms: C_5  and  N_7
REMARK    7  A    between atoms: N_7  and  C_8
REMARK    8  A    between atoms: C_9  and  C_11
REMARK    9  A    between atoms: C_11  and  C_12
REMARK   10  A    between atoms: C_16  and  O_17
REMARK                            x       y       z     vdW  Elec       q    Type
REMARK                         _______ _______ _______ _____ _____    ______ ____
ROOT
ATOM      1  N   UNL     1       5.424   5.962  18.165  0.00  0.00    +0.000 N 
ATOM      2  C   UNL     1       5.861   5.324  19.401  0.00  0.00    +0.000 C 
ATOM      3  C   UNL     1       4.191   6.615  18.065  0.00  0.00    +0.000 C 
ATOM      4  O   UNL     1       3.890   7.306  17.092  0.00  0.00    +0.000 OA
ENDROOT
BRANCH   1   5
ATOM      5  C   UNL     1       6.395   6.114  17.062  0.00  0.00    +0.000 C 
ATOM      6  C   UNL     1       7.459   7.171  17.396  0.00  0.00    +0.000 C 
BRANCH   5   7
ATOM      7  C   UNL     1       7.060   4.775  16.670  0.00  0.00    +0.000 C 
BRANCH   7   9
ATOM      8  C   UNL     1       4.952   4.026  15.401  0.00  0.00    +0.000 C 
ATOM      9  C   UNL     1       6.482   4.068  15.423  0.00  0.00    +0.000 C 
ATOM     10  C   UNL     1       6.983   4.785  14.164  0.00  0.00    +0.000 C 
ENDBRANCH   7   9
ENDBRANCH   5   7
ENDBRANCH   1   5
BRANCH   3  11
ATOM     11  C   UNL     1       3.186   6.434  19.197  0.00  0.00    +0.000 C 
BRANCH  11  12
ATOM     12  C   UNL     1       2.396   5.152  19.115  0.00  0.00    +0.000 A 
ATOM     13  C   UNL     1       2.141   4.545  17.878  0.00  0.00    +0.000 A 
ATOM     14  C   UNL     1       1.434   3.341  17.810  0.00  0.00    +0.000 A 
ATOM     15  C   UNL     1       0.974   2.729  18.975  0.00  0.00    +0.000 A 
ATOM     16  C   UNL     1       1.230   3.329  20.204  0.00  0.00    +0.000 A 
ATOM     17  C   UNL     1       1.934   4.528  20.281  0.00  0.00    +0.000 A 
BRANCH  16  18
ATOM     18  O   UNL     1       0.809   2.768  21.372  0.00  0.00    +0.000 OA
ATOM     19  H   UNL     1       0.921   3.418  22.084  0.00  0.00    +0.000 HD
ENDBRANCH  16  18
ENDBRANCH  11  12
ENDBRANCH   3  11
TORSDOF 6
ENDMDL
MODEL 3
REMARK VINA RESULT:      -6.4      1.005      1.315
REMARK  Name = 
REMARK  10 active torsions:
REMARK  status: ('A' for Active; 'I' for Inactive)
REMARK    1  A    between atoms: C_1  and  C_2
REMARK    2  A    between atoms: C_2  and  C_3
REMARK    3  A    between atoms: C_2  and  C_4
REMARK    4  A    between atoms: C_4  and  C_5
REMARK    5  A    between atoms: C_5  and  C_6
REMARK    6  A    between atoms: C_5  and  N_7
REMARK    7  A    between atoms: N_7  and  C_8
REMARK    8  A    between atoms: C_9  and  C_11
REMARK    9  A    between atoms: C_11  and  C_12
REMARK   10  A    between atoms: C_16  and  O_17
REMARK                            x       y       z     vdW  Elec       q    Type
REMARK                         _______ _______ _______ _____ _____    ______ ____
ROOT
ATOM      1  N   UNL     1       5.541   5.832  18.242  0.00  0.00    +0.000 N 
ATOM      2  C   UNL     1       6.132   5.286  19.459  0.00  0.00    +0.000 C 
ATOM      3  C   UNL     1       4.240   6.346  18.219  0.00  0.00    +0.000 C 
ATOM      4  O   UNL     1       3.796   6.967  17.254  0.00  0.00    +0.000 OA
ENDROOT
BRANCH   1   5
ATOM      5  C   UNL     1       6.408   6.050  17.067  0.00  0.00    +0.000 C 
ATOM      6  C   UNL     1       7.434   7.163  17.327  0.00  0.00    +0.000 C 
BRANCH   5   7
ATOM      7  C   UNL     1       7.113   4.755  16.603  0.00  0.00    +0.000 C 
BRANCH   7   9
ATOM      8  C   UNL     1       5.024   4.056  15.276  0.00  0.00    +0.000 C 
ATOM      9  C   UNL     1       6.553   4.097  15.322  0.00  0.00    +0.000 C 
ATOM     10  C   UNL     1       7.072   4.861  14.098  0.00  0.00    +0.000 C 
ENDBRANCH   7   9
ENDBRANCH   5   7
ENDBRANCH   1   5
BRANCH   3  11
ATOM     11  C   UNL     1       3.345   6.097  19.427  0.00  0.00    +0.000 C 
BRANCH  11  12
ATOM     12  C   UNL     1       2.533   4.829  19.337  0.00  0.00    +0.000 A 
ATOM     13  C   UNL     1       1.514   4.563  20.262  0.00  0.00    +0.000 A 
ATOM     14  C   UNL     1       0.744   3.401  20.156  0.00  0.00    +0.000 A 
ATOM     15  C   UNL     1       0.982   2.493  19.125  0.00  0.00    +0.000 A 
ATOM     16  C   UNL     1       1.991   2.757  18.205  0.00  0.00    +0.000 A 
ATOM     17  C   UNL     1       2.761   3.913  18.302  0.00  0.00    +0.000 A 
BRANCH  16  18
ATOM     18  O   UNL     1       2.258   1.905  17.175  0.00  0.00    +0.000 OA
ATOM     19  H   UNL     1       3.123   2.137  16.802  0.00  0.00    +0.000 HD
ENDBRANCH  16  18
ENDBRANCH  11  12
ENDBRANCH   3  11
TORSDOF 6
ENDMDL
MODEL 4
REMARK VINA RESULT:      -6.1      1.367      1.777
REMARK  Name = 
REMARK  10 active torsions:
REMARK  status: ('A' for Active; 'I' for Inactive)
REMARK    1  A    between atoms: C_1  and  C_2
REMARK    2  A    between atoms: C_2  and  C_3
REMARK    3  A    between atoms: C_2  and  C_4
REMARK    4  A    between atoms: C_4  and  C_5
REMARK    5  A    between atoms: C_5  and  C_6
REMARK    6  A    between atoms: C_5  and  N_7
REMARK    7  A    between atoms: N_7  and  C_8
REMARK    8  A    between atoms: C_9  and  C_11
REMARK    9  A    between atoms: C_11  and  C_12
REMARK   10  A    between atoms: C_16  and  O_17
REMARK                            x       y       z     vdW  Elec       q    Type
REMARK                         _______ _______ _______ _____ _____    ______ ____
ROOT
ATOM      1  N   UNL     1       5.360   6.292  17.894  0.00  0.00    +0.000 N 
ATOM      2  C   UNL     1       4.344   7.071  17.195  0.00  0.00    +0.000 C 
ATOM      3  C   UNL     1       5.059   5.534  19.031  0.00  0.00    +0.000 C 
ATOM      4  O   UNL     1       5.859   4.738  19.521  0.00  0.00    +0.000 OA
ENDROOT
BRANCH   1   5
ATOM      5  C   UNL     1       6.684   6.121  17.262  0.00  0.00    +0.000 C 
ATOM      6  C   UNL     1       7.786   6.816  18.074  0.00  0.00    +0.000 C 
BRANCH   5   7
ATOM      7  C   UNL     1       7.037   4.636  17.022  0.00  0.00    +0.000 C 
BRANCH   7   9
ATOM      8  C   UNL     1       5.066   3.843  15.573  0.00  0.00    +0.000 C 
ATOM      9  C   UNL     1       6.580   4.037  15.672  0.00  0.00    +0.000 C 
ATOM     10  C   UNL     1       7.045   4.954  14.534  0.00  0.00    +0.000 C 
ENDBRANCH   7   9
ENDBRANCH   5   7
ENDBRANCH   1   5
BRANCH   3  11
ATOM     11  C   UNL     1       3.699   5.734  19.690  0.00  0.00    +0.000 C 
BRANCH  11  12
ATOM     12  C   UNL     1       2.771   4.555  19.548  0.00  0.00    +0.000 A 
ATOM     13  C   UNL     1       1.746   4.331  20.479  0.00  0.00    +0.000 A 
ATOM     14  C   UNL     1       0.870   3.254  20.325  0.00  0.00    +0.000 A 
ATOM     15  C   UNL     1       1.004   2.387  19.241  0.00  0.00    +0.000 A 
ATOM     16  C   UNL     1       2.018   2.610  18.315  0.00  0.00    +0.000 A 
ATOM     17  C   UNL     1       2.895   3.681  18.459  0.00  0.00    +0.000 A 
BRANCH  16  18
ATOM     18  O   UNL     1       2.186   1.797  17.234  0.00  0.00    +0.000 OA
ATOM     19  H   UNL     1       1.755   2.209  16.469  0.00  0.00    +0.000 HD
ENDBRANCH  16  18
ENDBRANCH  11  12
ENDBRANCH   3  11
TORSDOF 6
ENDMDL
MODEL 5
REMARK VINA RESULT:      -6.1      2.896      5.190
REMARK  Name = 
REMARK  10 active torsions:
REMARK  status: ('A' for Active; 'I' for Inactive)
REMARK    1  A    between atoms: C_1  and  C_2
REMARK    2  A    between atoms: C_2  and  C_3
REMARK    3  A    between atoms: C_2  and  C_4
REMARK    4  A    between atoms: C_4  and  C_5
REMARK    5  A    between atoms: C_5  and  C_6
REMARK    6  A    between atoms: C_5  and  N_7
REMARK    7  A    between atoms: N_7  and  C_8
REMARK    8  A    between atoms: C_9  and  C_11
REMARK    9  A    between atoms: C_11  and  C_12
REMARK   10  A    between atoms: C_16  and  O_17
REMARK                            x       y       z     vdW  Elec       q    Type
REMARK                         _______ _______ _______ _____ _____    ______ ____
ROOT
ATOM      1  N   UNL     1       2.907   4.135  18.785  0.00  0.00    +0.000 N 
ATOM      2  C   UNL     1       1.513   3.710  18.841  0.00  0.00    +0.000 C 
ATOM      3  C   UNL     1       3.395   5.174  19.585  0.00  0.00    +0.000 C 
ATOM      4  O   UNL     1       4.597   5.422  19.679  0.00  0.00    +0.000 OA
ENDROOT
BRANCH   1   5
ATOM      5  C   UNL     1       3.873   3.308  18.034  0.00  0.00    +0.000 C 
ATOM      6  C   UNL     1       3.468   1.826  18.044  0.00  0.00    +0.000 C 
BRANCH   5   7
ATOM      7  C   UNL     1       4.079   3.807  16.587  0.00  0.00    +0.000 C 
BRANCH   7   9
ATOM      8  C   UNL     1       6.133   4.047  15.057  0.00  0.00    +0.000 C 
ATOM      9  C   UNL     1       5.405   4.550  16.306  0.00  0.00    +0.000 C 
ATOM     10  C   UNL     1       5.117   6.048  16.150  0.00  0.00    +0.000 C 
ENDBRANCH   7   9
ENDBRANCH   5   7
ENDBRANCH   1   5
BRANCH   3  11
ATOM     11  C   UNL     1       2.389   6.037  20.338  0.00  0.00    +0.000 C 
BRANCH  11  12
ATOM     12  C   UNL     1       2.082   7.350  19.664  0.00  0.00    +0.000 A 
ATOM     13  C   UNL     1       2.438   7.569  18.326  0.00  0.00    +0.000 A 
ATOM     14  C   UNL     1       2.123   8.777  17.696  0.00  0.00    +0.000 A 
ATOM     15  C   UNL     1       1.450   9.779  18.394  0.00  0.00    +0.000 A 
ATOM     16  C   UNL     1       1.093   9.561  19.721  0.00  0.00    +0.000 A 
ATOM     17  C   UNL     1       1.401   8.361  20.356  0.00  0.00    +0.000 A 
BRANCH  16  18
ATOM     18  O   UNL     1       0.428  10.505  20.444  0.00  0.00    +0.000 OA
ATOM     19  H   UNL     1       0.333  10.184  21.355  0.00  0.00    +0.000 HD
ENDBRANCH  16  18
ENDBRANCH  11  12
ENDBRANCH   3  11
TORSDOF 6
ENDMDL
MODEL 6
REMARK VINA RESULT:      -6.1      2.361      5.858
REMARK  Name = 
REMARK  10 active torsions:
REMARK  status: ('A' for Active; 'I' for Inactive)
REMARK    1  A    between atoms: C_1  and  C_2
REMARK    2  A    between atoms: C_2  and  C_3
REMARK    3  A    between atoms: C_2  and  C_4
REMARK    4  A    between atoms: C_4  and  C_5
REMARK    5  A    between atoms: C_5  and  C_6
REMARK    6  A    between atoms: C_5  and  N_7
REMARK    7  A    between atoms: N_7  and  C_8
REMARK    8  A    between atoms: C_9  and  C_11
REMARK    9  A    between atoms: C_11  and  C_12
REMARK   10  A    between atoms: C_16  and  O_17
REMARK                            x       y       z     vdW  Elec       q    Type
REMARK                         _______ _______ _______ _____ _____    ______ ____
ROOT
ATOM      1  N   UNL     1       2.871   3.455  19.423  0.00  0.00    +0.000 N 
ATOM      2  C   UNL     1       3.873   2.591  20.036  0.00  0.00    +0.000 C 
ATOM      3  C   UNL     1       2.830   3.675  18.041  0.00  0.00    +0.000 C 
ATOM      4  O   UNL     1       1.891   4.252  17.495  0.00  0.00    +0.000 OA
ENDROOT
BRANCH   1   5
ATOM      5  C   UNL     1       1.742   3.932  20.247  0.00  0.00    +0.000 C 
ATOM      6  C   UNL     1       1.295   2.862  21.254  0.00  0.00    +0.000 C 
BRANCH   5   7
ATOM      7  C   UNL     1       2.055   5.262  20.967  0.00  0.00    +0.000 C 
BRANCH   7   9
ATOM      8  C   UNL     1       1.170   7.660  21.256  0.00  0.00    +0.000 C 
ATOM      9  C   UNL     1       1.546   6.547  20.275  0.00  0.00    +0.000 C 
ATOM     10  C   UNL     1       2.627   7.064  19.318  0.00  0.00    +0.000 C 
ENDBRANCH   7   9
ENDBRANCH   5   7
ENDBRANCH   1   5
BRANCH   3  11
ATOM     11  C   UNL     1       4.011   3.200  17.201  0.00  0.00    +0.000 C 
BRANCH  11  12
ATOM     12  C   UNL     1       5.105   4.225  17.048  0.00  0.00    +0.000 A 
ATOM     13  C   UNL     1       5.418   5.102  18.096  0.00  0.00    +0.000 A 
ATOM     14  C   UNL     1       6.454   6.030  17.960  0.00  0.00    +0.000 A 
ATOM     15  C   UNL     1       7.190   6.094  16.777  0.00  0.00    +0.000 A 
ATOM     16  C   UNL     1       6.882   5.223  15.737  0.00  0.00    +0.000 A 
ATOM     17  C   UNL     1       5.853   4.294  15.865  0.00  0.00    +0.000 A 
BRANCH  16  18
ATOM     18  O   UNL     1       7.575   5.240  14.564  0.00  0.00    +0.000 OA
ATOM     19  H   UNL     1       8.287   4.582  14.619  0.00  0.00    +0.000 HD
ENDBRANCH  16  18
ENDBRANCH  11  12
ENDBRANCH   3  11
TORSDOF 6
ENDMDL
MODEL 7
REMARK VINA RESULT:      -6.1      1.754      3.158
REMARK  Name = 
REMARK  10 active torsions:
REMARK  status: ('A' for Active; 'I' for Inactive)
REMARK    1  A    between atoms: C_1  and  C_2
REMARK    2  A    between atoms: C_2  and  C_3
REMARK    3  A    between atoms: C_2  and  C_4
REMARK    4  A    between atoms: C_4  and  C_5
REMARK    5  A    between atoms: C_5  and  C_6
REMARK    6  A    between atoms: C_5  and  N_7
REMARK    7  A    between atoms: N_7  and  C_8
REMARK    8  A    between atoms: C_9  and  C_11
REMARK    9  A    between atoms: C_11  and  C_12
REMARK   10  A    between atoms: C_16  and  O_17
REMARK                            x       y       z     vdW  Elec       q    Type
REMARK                         _______ _______ _______ _____ _____    ______ ____
ROOT
ATOM      1  N   UNL     1       5.245   5.774  16.481  0.00  0.00    +0.000 N 
ATOM      2  C   UNL     1       4.673   6.818  15.640  0.00  0.00    +0.000 C 
ATOM      3  C   UNL     1       4.475   5.073  17.417  0.00  0.00    +0.000 C 
ATOM      4  O   UNL     1       4.898   4.077  18.001  0.00  0.00    +0.000 OA
ENDROOT
BRANCH   1   5
ATOM      5  C   UNL     1       6.610   5.292  16.187  0.00  0.00    +0.000 C 
ATOM      6  C   UNL     1       6.766   4.922  14.705  0.00  0.00    +0.000 C 
BRANCH   5   7
ATOM      7  C   UNL     1       7.698   6.302  16.615  0.00  0.00    +0.000 C 
BRANCH   7   9
ATOM      8  C   UNL     1       8.023   6.143  19.161  0.00  0.00    +0.000 C 
ATOM      9  C   UNL     1       7.498   6.977  17.991  0.00  0.00    +0.000 C 
ATOM     10  C   UNL     1       8.202   8.339  17.989  0.00  0.00    +0.000 C 
ENDBRANCH   7   9
ENDBRANCH   5   7
ENDBRANCH   1   5
BRANCH   3  11
ATOM     11  C   UNL     1       3.076   5.591  17.730  0.00  0.00    +0.000 C 
BRANCH  11  12
ATOM     12  C   UNL     1       2.276   4.685  18.632  0.00  0.00    +0.000 A 
ATOM     13  C   UNL     1       2.143   4.969  19.999  0.00  0.00    +0.000 A 
ATOM     14  C   UNL     1       1.375   4.143  20.824  0.00  0.00    +0.000 A 
ATOM     15  C   UNL     1       0.731   3.025  20.296  0.00  0.00    +0.000 A 
ATOM     16  C   UNL     1       0.859   2.744  18.939  0.00  0.00    +0.000 A 
ATOM     17  C   UNL     1       1.620   3.562  18.109  0.00  0.00    +0.000 A 
BRANCH  16  18
ATOM     18  O   UNL     1       0.243   1.669  18.373  0.00  0.00    +0.000 OA
ATOM     19  H   UNL     1       0.774   1.374  17.616  0.00  0.00    +0.000 HD
ENDBRANCH  16  18
ENDBRANCH  11  12
ENDBRANCH   3  11
TORSDOF 6
ENDMDL
MODEL 8
REMARK VINA RESULT:      -6.1      1.990      5.256
REMARK  Name = 
REMARK  10 active torsions:
REMARK  status: ('A' for Active; 'I' for Inactive)
REMARK    1  A    between atoms: C_1  and  C_2
REMARK    2  A    between atoms: C_2  and  C_3
REMARK    3  A    between atoms: C_2  and  C_4
REMARK    4  A    between atoms: C_4  and  C_5
REMARK    5  A    between atoms: C_5  and  C_6
REMARK    6  A    between atoms: C_5  and  N_7
REMARK    7  A    between atoms: N_7  and  C_8
REMARK    8  A    between atoms: C_9  and  C_11
REMARK    9  A    between atoms: C_11  and  C_12
REMARK   10  A    between atoms: C_16  and  O_17
REMARK                            x       y       z     vdW  Elec       q    Type
REMARK                         _______ _______ _______ _____ _____    ______ ____
ROOT
ATOM      1  N   UNL     1       3.366   5.484  19.150  0.00  0.00    +0.000 N 
ATOM      2  C   UNL     1       2.366   6.189  18.357  0.00  0.00    +0.000 C 
ATOM      3  C   UNL     1       4.738   5.671  18.945  0.00  0.00    +0.000 C 
ATOM      4  O   UNL     1       5.585   5.225  19.717  0.00  0.00    +0.000 OA
ENDROOT
BRANCH   1   5
ATOM      5  C   UNL     1       2.927   4.727  20.339  0.00  0.00    +0.000 C 
ATOM      6  C   UNL     1       1.547   5.195  20.823  0.00  0.00    +0.000 C 
BRANCH   5   7
ATOM      7  C   UNL     1       2.934   3.200  20.104  0.00  0.00    +0.000 C 
BRANCH   7   9
ATOM      8  C   UNL     1       3.470   1.583  18.177  0.00  0.00    +0.000 C 
ATOM      9  C   UNL     1       2.587   2.730  18.673  0.00  0.00    +0.000 C 
ATOM     10  C   UNL     1       1.119   2.288  18.632  0.00  0.00    +0.000 C 
ENDBRANCH   7   9
ENDBRANCH   5   7
ENDBRANCH   1   5
BRANCH   3  11
ATOM     11  C   UNL     1       5.183   6.435  17.702  0.00  0.00    +0.000 C 
BRANCH  11  12
ATOM     12  C   UNL     1       5.595   5.549  16.554  0.00  0.00    +0.000 A 
ATOM     13  C   UNL     1       4.895   4.367  16.273  0.00  0.00    +0.000 A 
ATOM     14  C   UNL     1       5.263   3.565  15.189  0.00  0.00    +0.000 A 
ATOM     15  C   UNL     1       6.333   3.933  14.373  0.00  0.00    +0.000 A 
ATOM     16  C   UNL     1       7.026   5.107  14.650  0.00  0.00    +0.000 A 
ATOM     17  C   UNL     1       6.666   5.913  15.726  0.00  0.00    +0.000 A 
BRANCH  16  18
ATOM     18  O   UNL     1       8.074   5.514  13.879  0.00  0.00    +0.000 OA
ATOM     19  H   UNL     1       8.842   5.656  14.455  0.00  0.00    +0.000 HD
ENDBRANCH  16  18
ENDBRANCH  11  12
ENDBRANCH   3  11
TORSDOF 6
ENDMDL
MODEL 9
REMARK VINA RESULT:      -6.1      1.699      1.812
REMARK  Name = 
REMARK  10 active torsions:
REMARK  status: ('A' for Active; 'I' for Inactive)
REMARK    1  A    between atoms: C_1  and  C_2
REMARK    2  A    between atoms: C_2  and  C_3
REMARK    3  A    between atoms: C_2  and  C_4
REMARK    4  A    between atoms: C_4  and  C_5
REMARK    5  A    between atoms: C_5  and  C_6
REMARK    6  A    between atoms: C_5  and  N_7
REMARK    7  A    between atoms: N_7  and  C_8
REMARK    8  A    between atoms: C_9  and  C_11
REMARK    9  A    between atoms: C_11  and  C_12
REMARK   10  A    between atoms: C_16  and  O_17
REMARK                            x       y       z     vdW  Elec       q    Type
REMARK                         _______ _______ _______ _____ _____    ______ ____
ROOT
ATOM      1  N   UNL     1       4.910   5.981  18.128  0.00  0.00    +0.000 N 
ATOM      2  C   UNL     1       5.489   5.279  19.268  0.00  0.00    +0.000 C 
ATOM      3  C   UNL     1       3.687   6.657  18.219  0.00  0.00    +0.000 C 
ATOM      4  O   UNL     1       3.278   7.397  17.327  0.00  0.00    +0.000 OA
ENDROOT
BRANCH   1   5
ATOM      5  C   UNL     1       5.734   6.173  16.918  0.00  0.00    +0.000 C 
ATOM      6  C   UNL     1       7.099   6.788  17.261  0.00  0.00    +0.000 C 
BRANCH   5   7
ATOM      7  C   UNL     1       5.912   4.868  16.111  0.00  0.00    +0.000 C 
BRANCH   7   9
ATOM      8  C   UNL     1       7.466   5.053  14.070  0.00  0.00    +0.000 C 
ATOM      9  C   UNL     1       6.022   5.025  14.577  0.00  0.00    +0.000 C 
ATOM     10  C   UNL     1       5.274   3.871  13.899  0.00  0.00    +0.000 C 
ENDBRANCH   7   9
ENDBRANCH   5   7
ENDBRANCH   1   5
BRANCH   3  11
ATOM     11  C   UNL     1       2.833   6.435  19.463  0.00  0.00    +0.000 C 
BRANCH  11  12
ATOM     12  C   UNL     1       2.199   5.069  19.534  0.00  0.00    +0.000 A 
ATOM     13  C   UNL     1       1.753   4.423  18.373  0.00  0.00    +0.000 A 
ATOM     14  C   UNL     1       1.194   3.145  18.442  0.00  0.00    +0.000 A 
ATOM     15  C   UNL     1       1.074   2.495  19.669  0.00  0.00    +0.000 A 
ATOM     16  C   UNL     1       1.519   3.133  20.822  0.00  0.00    +0.000 A 
ATOM     17  C   UNL     1       2.079   4.406  20.763  0.00  0.00    +0.000 A 
BRANCH  16  18
ATOM     18  O   UNL     1       1.432   2.538  22.045  0.00  0.00    +0.000 OA
ATOM     19  H   UNL     1       0.896   3.103  22.624  0.00  0.00    +0.000 HD
ENDBRANCH  16  18
ENDBRANCH  11  12
ENDBRANCH   3  11
TORSDOF 6
ENDMDL
