MODEL 1
REMARK VINA RESULT:      -6.7      0.000      0.000
REMARK  Name = 
REMARK  7 active torsions:
REMARK  status: ('A' for Active; 'I' for Inactive)
REMARK    1  A    between atoms: C_1  and  C_2
REMARK    2  A    between atoms: C_2  and  N_3
REMARK    3  A    between atoms: C_6  and  C_7
REMARK    4  A    between atoms: N_9  and  C_10
REMARK    5  A    between atoms: C_16  and  C_17
REMARK    6  A    between atoms: C_17  and  O_18
REMARK    7  A    between atoms: O_18  and  C_19
REMARK                            x       y       z     vdW  Elec       q    Type
REMARK                         _______ _______ _______ _____ _____    ______ ____
ROOT
ATOM      1  C   UNL     1       5.194   4.669  16.703  0.00  0.00    +0.000 C 
ATOM      2  O   UNL     1       5.713   5.334  17.601  0.00  0.00    +0.000 OA
ATOM      3  N   UNL     1       3.996   3.999  16.869  0.00  0.00    +0.000 N 
ATOM      4  H   UNL     1       3.609   3.574  16.029  0.00  0.00    +0.000 HD
ENDROOT
BRANCH   3   5
ATOM      5  C   UNL     1       3.246   4.118  18.122  0.00  0.00    +0.000 C 
ATOM      6  C   UNL     1       2.029   3.143  18.231  0.00  0.00    +0.000 C 
ATOM      7  C   UNL     1       2.154   2.064  19.298  0.00  0.00    +0.000 C 
ATOM      8  C   UNL     1       1.498   2.625  20.559  0.00  0.00    +0.000 C 
ATOM      9  O   UNL     1       1.431   4.048  20.373  0.00  0.00    +0.000 OA
ATOM     10  C   UNL     1       1.292   4.286  18.954  0.00  0.00    +0.000 C 
ATOM     11  C   UNL     1       2.233   5.280  18.227  0.00  0.00    +0.000 C 
BRANCH  11  12
ATOM     12  C   UNL     1       2.719   6.498  18.989  0.00  0.00    +0.000 C 
BRANCH  12  13
ATOM     13  O   UNL     1       3.116   7.484  18.030  0.00  0.00    +0.000 OA
ATOM     14  C   UNL     1       2.138   8.507  17.898  0.00  0.00    +0.000 C 
ENDBRANCH  12  13
ENDBRANCH  11  12
ENDBRANCH   3   5
BRANCH   1  18
ATOM     15  N   UNL     1       6.222   3.954  13.387  0.00  0.00    +0.000 N 
ATOM     16  C   UNL     1       7.301   4.707  13.738  0.00  0.00    +0.000 A 
ATOM     17  C   UNL     1       7.081   5.094  15.032  0.00  0.00    +0.000 A 
ATOM     18  C   UNL     1       5.826   4.535  15.390  0.00  0.00    +0.000 A 
ATOM     19  N   UNL     1       5.292   3.843  14.360  0.00  0.00    +0.000 NA
BRANCH  15  21
ATOM     20  C   UNL     1       4.594   3.263  11.682  0.00  0.00    +0.000 C 
ATOM     21  C   UNL     1       6.047   3.260  12.125  0.00  0.00    +0.000 C 
ENDBRANCH  15  21
ENDBRANCH   1  18
TORSDOF 5
ENDMDL
MODEL 2
REMARK VINA RESULT:      -6.7      2.225      6.485
REMARK  Name = 
REMARK  7 active torsions:
REMARK  status: ('A' for Active; 'I' for Inactive)
REMARK    1  A    between atoms: C_1  and  C_2
REMARK    2  A    between atoms: C_2  and  N_3
REMARK    3  A    between atoms: C_6  and  C_7
REMARK    4  A    between atoms: N_9  and  C_10
REMARK    5  A    between atoms: C_16  and  C_17
REMARK    6  A    between atoms: C_17  and  O_18
REMARK    7  A    between atoms: O_18  and  C_19
REMARK                            x       y       z     vdW  Elec       q    Type
REMARK                         _______ _______ _______ _____ _____    ______ ____
ROOT
ATOM      1  C   UNL     1       3.871   5.970  17.904  0.00  0.00    +0.000 C 
ATOM      2  O   UNL     1       4.053   7.171  17.695  0.00  0.00    +0.000 OA
ATOM      3  N   UNL     1       4.569   4.983  17.234  0.00  0.00    +0.000 N 
ATOM      4  H   UNL     1       4.416   4.033  17.565  0.00  0.00    +0.000 HD
ENDROOT
BRANCH   3   5
ATOM      5  C   UNL     1       5.626   5.337  16.282  0.00  0.00    +0.000 C 
ATOM      6  C   UNL     1       6.190   4.122  15.476  0.00  0.00    +0.000 C 
ATOM      7  C   UNL     1       5.894   4.138  13.982  0.00  0.00    +0.000 C 
ATOM      8  C   UNL     1       7.089   4.817  13.313  0.00  0.00    +0.000 C 
ATOM      9  O   UNL     1       7.771   5.536  14.353  0.00  0.00    +0.000 OA
ATOM     10  C   UNL     1       7.567   4.805  15.582  0.00  0.00    +0.000 C 
ATOM     11  C   UNL     1       7.050   5.529  16.851  0.00  0.00    +0.000 C 
BRANCH  11  12
ATOM     12  C   UNL     1       7.469   6.968  17.079  0.00  0.00    +0.000 C 
BRANCH  12  13
ATOM     13  O   UNL     1       7.995   7.065  18.407  0.00  0.00    +0.000 OA
ATOM     14  C   UNL     1       7.782   5.867  19.142  0.00  0.00    +0.000 C 
ENDBRANCH  12  13
ENDBRANCH  11  12
ENDBRANCH   3   5
BRANCH   1  18
ATOM     15  N   UNL     1       1.482   4.298  19.918  0.00  0.00    +0.000 N 
ATOM     16  C   UNL     1       1.447   5.491  20.574  0.00  0.00    +0.000 A 
ATOM     17  C   UNL     1       2.339   6.300  19.924  0.00  0.00    +0.000 A 
ATOM     18  C   UNL     1       2.885   5.507  18.880  0.00  0.00    +0.000 A 
ATOM     19  N   UNL     1       2.360   4.262  18.893  0.00  0.00    +0.000 NA
BRANCH  15  21
ATOM     20  C   UNL     1       0.630   2.166  19.047  0.00  0.00    +0.000 C 
ATOM     21  C   UNL     1       0.642   3.150  20.203  0.00  0.00    +0.000 C 
ENDBRANCH  15  21
ENDBRANCH   1  18
TORSDOF 5
ENDMDL
MODEL 3
REMARK VINA RESULT:      -6.3      3.809      6.757
REMARK  Name = 
REMARK  7 active torsions:
REMARK  status: ('A' for Active; 'I' for Inactive)
REMARK    1  A    between atoms: C_1  and  C_2
REMARK    2  A    between atoms: C_2  and  N_3
REMARK    3  A    between atoms: C_6  and  C_7
REMARK    4  A    between atoms: N_9  and  C_10
REMARK    5  A    between atoms: C_16  and  C_17
REMARK    6  A    between atoms: C_17  and  O_18
REMARK    7  A    between atoms: O_18  and  C_19
REMARK                            x       y       z     vdW  Elec       q    Type
REMARK                         _______ _______ _______ _____ _____    ______ ____
ROOT
ATOM      1  C   UNL     1       2.534   7.615  18.457  0.00  0.00    +0.000 C 
ATOM      2  O   UNL     1       3.344   7.696  17.532  0.00  0.00    +0.000 OA
ATOM      3  N   UNL     1       2.233   6.418  19.081  0.00  0.00    +0.000 N 
ATOM      4  H   UNL     1       1.635   6.488  19.902  0.00  0.00    +0.000 HD
ENDROOT
BRANCH   3   5
ATOM      5  C   UNL     1       2.936   5.188  18.708  0.00  0.00    +0.000 C 
ATOM      6  C   UNL     1       2.321   3.890  19.324  0.00  0.00    +0.000 C 
ATOM      7  C   UNL     1       1.694   2.929  18.322  0.00  0.00    +0.000 C 
ATOM      8  C   UNL     1       2.786   1.930  17.941  0.00  0.00    +0.000 C 
ATOM      9  O   UNL     1       4.031   2.540  18.317  0.00  0.00    +0.000 OA
ATOM     10  C   UNL     1       3.766   3.378  19.465  0.00  0.00    +0.000 C 
ATOM     11  C   UNL     1       4.232   4.856  19.483  0.00  0.00    +0.000 C 
BRANCH  11  12
ATOM     12  C   UNL     1       5.523   5.213  18.773  0.00  0.00    +0.000 C 
BRANCH  12  13
ATOM     13  O   UNL     1       6.551   5.321  19.762  0.00  0.00    +0.000 OA
ATOM     14  C   UNL     1       7.762   5.816  19.205  0.00  0.00    +0.000 C 
ENDBRANCH  12  13
ENDBRANCH  11  12
ENDBRANCH   3   5
BRANCH   1  18
ATOM     15  N   UNL     1       0.685  10.100  20.181  0.00  0.00    +0.000 N 
ATOM     16  C   UNL     1       0.888  10.807  19.035  0.00  0.00    +0.000 A 
ATOM     17  C   UNL     1       1.615   9.988  18.214  0.00  0.00    +0.000 A 
ATOM     18  C   UNL     1       1.821   8.793  18.952  0.00  0.00    +0.000 A 
ATOM     19  N   UNL     1       1.255   8.876  20.176  0.00  0.00    +0.000 NA
BRANCH  15  21
ATOM     20  C   UNL     1      -0.083   9.512  22.438  0.00  0.00    +0.000 C 
ATOM     21  C   UNL     1      -0.106  10.535  21.315  0.00  0.00    +0.000 C 
ENDBRANCH  15  21
ENDBRANCH   1  18
TORSDOF 5
ENDMDL
MODEL 4
REMARK VINA RESULT:      -6.3      2.447      6.712
REMARK  Name = 
REMARK  7 active torsions:
REMARK  status: ('A' for Active; 'I' for Inactive)
REMARK    1  A    between atoms: C_1  and  C_2
REMARK    2  A    between atoms: C_2  and  N_3
REMARK    3  A    between atoms: C_6  and  C_7
REMARK    4  A    between atoms: N_9  and  C_10
REMARK    5  A    between atoms: C_16  and  C_17
REMARK    6  A    between atoms: C_17  and  O_18
REMARK    7  A    between atoms: O_18  and  C_19
REMARK                            x       y       z     vdW  Elec       q    Type
REMARK                         _______ _______ _______ _____ _____    ______ ____
ROOT
ATOM      1  C   UNL     1       4.048   6.156  18.129  0.00  0.00    +0.000 C 
ATOM      2  O   UNL     1       4.050   7.310  17.698  0.00  0.00    +0.000 OA
ATOM      3  N   UNL     1       4.811   5.150  17.567  0.00  0.00    +0.000 N 
ATOM      4  H   UNL     1       4.814   4.265  18.072  0.00  0.00    +0.000 HD
ENDROOT
BRANCH   3   5
ATOM      5  C   UNL     1       5.726   5.441  16.460  0.00  0.00    +0.000 C 
ATOM      6  C   UNL     1       6.319   4.169  15.773  0.00  0.00    +0.000 C 
ATOM      7  C   UNL     1       5.872   3.938  14.335  0.00  0.00    +0.000 C 
ATOM      8  C   UNL     1       6.923   4.603  13.446  0.00  0.00    +0.000 C 
ATOM      9  O   UNL     1       7.635   5.521  14.290  0.00  0.00    +0.000 OA
ATOM     10  C   UNL     1       7.628   4.968  15.624  0.00  0.00    +0.000 C 
ATOM     11  C   UNL     1       7.175   5.829  16.831  0.00  0.00    +0.000 C 
BRANCH  11  12
ATOM     12  C   UNL     1       7.475   7.315  16.806  0.00  0.00    +0.000 C 
BRANCH  12  13
ATOM     13  O   UNL     1       7.962   7.685  18.100  0.00  0.00    +0.000 OA
ATOM     14  C   UNL     1       8.333   9.057  18.146  0.00  0.00    +0.000 C 
ENDBRANCH  12  13
ENDBRANCH  11  12
ENDBRANCH   3   5
BRANCH   1  18
ATOM     15  N   UNL     1       2.403   4.680  20.901  0.00  0.00    +0.000 N 
ATOM     16  C   UNL     1       1.610   5.783  20.804  0.00  0.00    +0.000 A 
ATOM     17  C   UNL     1       2.106   6.508  19.754  0.00  0.00    +0.000 A 
ATOM     18  C   UNL     1       3.218   5.770  19.271  0.00  0.00    +0.000 A 
ATOM     19  N   UNL     1       3.406   4.647  19.997  0.00  0.00    +0.000 NA
BRANCH  15  21
ATOM     20  C   UNL     1       1.141   2.620  21.338  0.00  0.00    +0.000 C 
ATOM     21  C   UNL     1       2.213   3.579  21.825  0.00  0.00    +0.000 C 
ENDBRANCH  15  21
ENDBRANCH   1  18
TORSDOF 5
ENDMDL
MODEL 5
REMARK VINA RESULT:      -6.2      2.212      6.701
REMARK  Name = 
REMARK  7 active torsions:
REMARK  status: ('A' for Active; 'I' for Inactive)
REMARK    1  A    between atoms: C_1  and  C_2
REMARK    2  A    between atoms: C_2  and  N_3
REMARK    3  A    between atoms: C_6  and  C_7
REMARK    4  A    between atoms: N_9  and  C_10
REMARK    5  A    between atoms: C_16  and  C_17
REMARK    6  A    between atoms: C_17  and  O_18
REMARK    7  A    between atoms: O_18  and  C_19
REMARK                            x       y       z     vdW  Elec       q    Type
REMARK                         _______ _______ _______ _____ _____    ______ ____
ROOT
ATOM      1  C   UNL     1       3.716   5.390  17.587  0.00  0.00    +0.000 C 
ATOM      2  O   UNL     1       3.661   6.595  17.335  0.00  0.00    +0.000 OA
ATOM      3  N   UNL     1       4.591   4.534  16.946  0.00  0.00    +0.000 N 
ATOM      4  H   UNL     1       4.626   3.584  17.311  0.00  0.00    +0.000 HD
ENDROOT
BRANCH   3   5
ATOM      5  C   UNL     1       5.558   5.051  15.973  0.00  0.00    +0.000 C 
ATOM      6  C   UNL     1       6.334   3.941  15.194  0.00  0.00    +0.000 C 
ATOM      7  C   UNL     1       6.031   3.861  13.703  0.00  0.00    +0.000 C 
ATOM      8  C   UNL     1       7.076   4.731  13.004  0.00  0.00    +0.000 C 
ATOM      9  O   UNL     1       7.618   5.592  14.017  0.00  0.00    +0.000 OA
ATOM     10  C   UNL     1       7.560   4.869  15.268  0.00  0.00    +0.000 C 
ATOM     11  C   UNL     1       6.925   5.519  16.523  0.00  0.00    +0.000 C 
BRANCH  11  12
ATOM     12  C   UNL     1       7.070   7.017  16.709  0.00  0.00    +0.000 C 
BRANCH  12  13
ATOM     13  O   UNL     1       7.770   7.239  17.938  0.00  0.00    +0.000 OA
ATOM     14  C   UNL     1       8.225   8.582  18.044  0.00  0.00    +0.000 C 
ENDBRANCH  12  13
ENDBRANCH  11  12
ENDBRANCH   3   5
BRANCH   1  18
ATOM     15  N   UNL     1       2.105   3.970  20.407  0.00  0.00    +0.000 N 
ATOM     16  C   UNL     1       1.086   3.787  19.522  0.00  0.00    +0.000 A 
ATOM     17  C   UNL     1       1.530   4.294  18.331  0.00  0.00    +0.000 A 
ATOM     18  C   UNL     1       2.839   4.779  18.586  0.00  0.00    +0.000 A 
ATOM     19  N   UNL     1       3.182   4.590  19.879  0.00  0.00    +0.000 NA
BRANCH  15  21
ATOM     20  C   UNL     1       1.152   2.369  22.007  0.00  0.00    +0.000 C 
ATOM     21  C   UNL     1       2.122   3.517  21.784  0.00  0.00    +0.000 C 
ENDBRANCH  15  21
ENDBRANCH   1  18
TORSDOF 5
ENDMDL
MODEL 6
REMARK VINA RESULT:      -6.2      3.715      7.329
REMARK  Name = 
REMARK  7 active torsions:
REMARK  status: ('A' for Active; 'I' for Inactive)
REMARK    1  A    between atoms: C_1  and  C_2
REMARK    2  A    between atoms: C_2  and  N_3
REMARK    3  A    between atoms: C_6  and  C_7
REMARK    4  A    between atoms: N_9  and  C_10
REMARK    5  A    between atoms: C_16  and  C_17
REMARK    6  A    between atoms: C_17  and  O_18
REMARK    7  A    between atoms: O_18  and  C_19
REMARK                            x       y       z     vdW  Elec       q    Type
REMARK                         _______ _______ _______ _____ _____    ______ ____
ROOT
ATOM      1  C   UNL     1       2.142   7.541  19.273  0.00  0.00    +0.000 C 
ATOM      2  O   UNL     1       2.618   7.850  18.179  0.00  0.00    +0.000 OA
ATOM      3  N   UNL     1       2.198   6.254  19.773  0.00  0.00    +0.000 N 
ATOM      4  H   UNL     1       1.871   6.139  20.730  0.00  0.00    +0.000 HD
ENDROOT
BRANCH   3   5
ATOM      5  C   UNL     1       2.906   5.202  19.039  0.00  0.00    +0.000 C 
ATOM      6  C   UNL     1       2.669   3.763  19.601  0.00  0.00    +0.000 C 
ATOM      7  C   UNL     1       1.896   2.825  18.683  0.00  0.00    +0.000 C 
ATOM      8  C   UNL     1       2.941   2.063  17.867  0.00  0.00    +0.000 C 
ATOM      9  O   UNL     1       4.155   2.824  17.967  0.00  0.00    +0.000 OA
ATOM     10  C   UNL     1       4.143   3.480  19.255  0.00  0.00    +0.000 C 
ATOM     11  C   UNL     1       4.404   5.004  19.363  0.00  0.00    +0.000 C 
BRANCH  11  12
ATOM     12  C   UNL     1       5.369   5.640  18.382  0.00  0.00    +0.000 C 
BRANCH  12  13
ATOM     13  O   UNL     1       6.696   5.434  18.878  0.00  0.00    +0.000 OA
ATOM     14  C   UNL     1       7.526   4.812  17.905  0.00  0.00    +0.000 C 
ENDBRANCH  12  13
ENDBRANCH  11  12
ENDBRANCH   3   5
BRANCH   1  18
ATOM     15  N   UNL     1       0.538   9.470  21.777  0.00  0.00    +0.000 N 
ATOM     16  C   UNL     1       0.426  10.379  20.770  0.00  0.00    +0.000 A 
ATOM     17  C   UNL     1       1.013   9.799  19.678  0.00  0.00    +0.000 A 
ATOM     18  C   UNL     1       1.469   8.529  20.118  0.00  0.00    +0.000 A 
ATOM     19  N   UNL     1       1.185   8.338  21.424  0.00  0.00    +0.000 NA
BRANCH  15  21
ATOM     20  C   UNL     1      -1.098  10.673  23.157  0.00  0.00    +0.000 C 
ATOM     21  C   UNL     1      -0.012   9.613  23.112  0.00  0.00    +0.000 C 
ENDBRANCH  15  21
ENDBRANCH   1  18
TORSDOF 5
ENDMDL
MODEL 7
REMARK VINA RESULT:      -6.2      6.906      8.704
REMARK  Name = 
REMARK  7 active torsions:
REMARK  status: ('A' for Active; 'I' for Inactive)
REMARK    1  A    between atoms: C_1  and  C_2
REMARK    2  A    between atoms: C_2  and  N_3
REMARK    3  A    between atoms: C_6  and  C_7
REMARK    4  A    between atoms: N_9  and  C_10
REMARK    5  A    between atoms: C_16  and  C_17
REMARK    6  A    between atoms: C_17  and  O_18
REMARK    7  A    between atoms: O_18  and  C_19
REMARK                            x       y       z     vdW  Elec       q    Type
REMARK                         _______ _______ _______ _____ _____    ______ ____
ROOT
ATOM      1  C   UNL     1       8.217   9.124  18.100  0.00  0.00    +0.000 C 
ATOM      2  O   UNL     1       7.813   9.981  17.312  0.00  0.00    +0.000 OA
ATOM      3  N   UNL     1       9.038   9.425  19.170  0.00  0.00    +0.000 N 
ATOM      4  H   UNL     1       9.219   8.659  19.816  0.00  0.00    +0.000 HD
ENDROOT
BRANCH   3   5
ATOM      5  C   UNL     1       9.406  10.815  19.457  0.00  0.00    +0.000 C 
ATOM      6  C   UNL     1      10.900  11.154  19.150  0.00  0.00    +0.000 C 
ATOM      7  C   UNL     1      11.123  12.134  18.005  0.00  0.00    +0.000 C 
ATOM      8  C   UNL     1      11.197  13.524  18.637  0.00  0.00    +0.000 C 
ATOM      9  O   UNL     1      10.605  13.401  19.939  0.00  0.00    +0.000 OA
ATOM     10  C   UNL     1      10.860  12.055  20.399  0.00  0.00    +0.000 C 
ATOM     11  C   UNL     1       9.701  11.174  20.931  0.00  0.00    +0.000 C 
BRANCH  11  12
ATOM     12  C   UNL     1       8.565  11.850  21.674  0.00  0.00    +0.000 C 
BRANCH  12  13
ATOM     13  O   UNL     1       8.335  11.116  22.881  0.00  0.00    +0.000 OA
ATOM     14  C   UNL     1       7.330  11.728  23.680  0.00  0.00    +0.000 C 
ENDBRANCH  12  13
ENDBRANCH  11  12
ENDBRANCH   3   5
BRANCH   1  18
ATOM     15  N   UNL     1       7.053   5.906  17.175  0.00  0.00    +0.000 N 
ATOM     16  C   UNL     1       7.608   5.547  18.366  0.00  0.00    +0.000 A 
ATOM     17  C   UNL     1       8.134   6.696  18.893  0.00  0.00    +0.000 A 
ATOM     18  C   UNL     1       7.859   7.714  17.944  0.00  0.00    +0.000 A 
ATOM     19  N   UNL     1       7.203   7.214  16.874  0.00  0.00    +0.000 NA
BRANCH  15  21
ATOM     20  C   UNL     1       7.012   4.852  14.958  0.00  0.00    +0.000 C 
ATOM     21  C   UNL     1       6.307   5.032  16.291  0.00  0.00    +0.000 C 
ENDBRANCH  15  21
ENDBRANCH   1  18
TORSDOF 5
ENDMDL
MODEL 8
REMARK VINA RESULT:      -6.2      3.967      7.358
REMARK  Name = 
REMARK  7 active torsions:
REMARK  status: ('A' for Active; 'I' for Inactive)
REMARK    1  A    between atoms: C_1  and  C_2
REMARK    2  A    between atoms: C_2  and  N_3
REMARK    3  A    between atoms: C_6  and  C_7
REMARK    4  A    between atoms: N_9  and  C_10
REMARK    5  A    between atoms: C_16  and  C_17
REMARK    6  A    between atoms: C_17  and  O_18
REMARK    7  A    between atoms: O_18  and  C_19
REMARK                            x       y       z     vdW  Elec       q    Type
REMARK                         _______ _______ _______ _____ _____    ______ ____
ROOT
ATOM      1  C   UNL     1       2.080   7.634  19.416  0.00  0.00    +0.000 C 
ATOM      2  O   UNL     1       2.473   7.928  18.286  0.00  0.00    +0.000 OA
ATOM      3  N   UNL     1       2.182   6.356  19.932  0.00  0.00    +0.000 N 
ATOM      4  H   UNL     1       1.927   6.254  20.912  0.00  0.00    +0.000 HD
ENDROOT
BRANCH   3   5
ATOM      5  C   UNL     1       2.842   5.296  19.164  0.00  0.00    +0.000 C 
ATOM      6  C   UNL     1       2.316   3.858  19.481  0.00  0.00    +0.000 C 
ATOM      7  C   UNL     1       1.576   3.171  18.340  0.00  0.00    +0.000 C 
ATOM      8  C   UNL     1       2.619   2.351  17.581  0.00  0.00    +0.000 C 
ATOM      9  O   UNL     1       3.897   2.889  17.958  0.00  0.00    +0.000 OA
ATOM     10  C   UNL     1       3.771   3.384  19.309  0.00  0.00    +0.000 C 
ATOM     11  C   UNL     1       4.225   4.822  19.666  0.00  0.00    +0.000 C 
BRANCH  11  12
ATOM     12  C   UNL     1       5.416   5.403  18.930  0.00  0.00    +0.000 C 
BRANCH  12  13
ATOM     13  O   UNL     1       6.567   5.244  19.765  0.00  0.00    +0.000 OA
ATOM     14  C   UNL     1       7.730   5.797  19.162  0.00  0.00    +0.000 C 
ENDBRANCH  12  13
ENDBRANCH  11  12
ENDBRANCH   3   5
BRANCH   1  18
ATOM     15  N   UNL     1       0.551  10.413  20.998  0.00  0.00    +0.000 N 
ATOM     16  C   UNL     1       0.718   9.655  22.117  0.00  0.00    +0.000 A 
ATOM     17  C   UNL     1       1.312   8.496  21.697  0.00  0.00    +0.000 A 
ATOM     18  C   UNL     1       1.463   8.631  20.292  0.00  0.00    +0.000 A 
ATOM     19  N   UNL     1       0.975   9.815  19.864  0.00  0.00    +0.000 NA
BRANCH  15  21
ATOM     20  C   UNL     1      -0.686  12.124  22.253  0.00  0.00    +0.000 C 
ATOM     21  C   UNL     1       0.028  11.766  20.961  0.00  0.00    +0.000 C 
ENDBRANCH  15  21
ENDBRANCH   1  18
TORSDOF 5
ENDMDL
MODEL 9
REMARK VINA RESULT:      -6.2      3.164      7.200
REMARK  Name = 
REMARK  7 active torsions:
REMARK  status: ('A' for Active; 'I' for Inactive)
REMARK    1  A    between atoms: C_1  and  C_2
REMARK    2  A    between atoms: C_2  and  N_3
REMARK    3  A    between atoms: C_6  and  C_7
REMARK    4  A    between atoms: N_9  and  C_10
REMARK    5  A    between atoms: C_16  and  C_17
REMARK    6  A    between atoms: C_17  and  O_18
REMARK    7  A    between atoms: O_18  and  C_19
REMARK                            x       y       z     vdW  Elec       q    Type
REMARK                         _______ _______ _______ _____ _____    ______ ____
ROOT
ATOM      1  C   UNL     1       2.685   6.897  19.254  0.00  0.00    +0.000 C 
ATOM      2  O   UNL     1       2.636   5.923  20.008  0.00  0.00    +0.000 OA
ATOM      3  N   UNL     1       3.526   6.948  18.158  0.00  0.00    +0.000 N 
ATOM      4  H   UNL     1       3.404   7.752  17.546  0.00  0.00    +0.000 HD
ENDROOT
BRANCH   3   5
ATOM      5  C   UNL     1       4.354   5.792  17.802  0.00  0.00    +0.000 C 
ATOM      6  C   UNL     1       5.357   6.062  16.635  0.00  0.00    +0.000 C 
ATOM      7  C   UNL     1       6.830   6.033  17.023  0.00  0.00    +0.000 C 
ATOM      8  C   UNL     1       7.313   4.604  16.773  0.00  0.00    +0.000 C 
ATOM      9  O   UNL     1       6.130   3.791  16.705  0.00  0.00    +0.000 OA
ATOM     10  C   UNL     1       5.073   4.620  16.174  0.00  0.00    +0.000 C 
ATOM     11  C   UNL     1       3.707   4.715  16.902  0.00  0.00    +0.000 C 
BRANCH  11  12
ATOM     12  C   UNL     1       3.192   3.487  17.627  0.00  0.00    +0.000 C 
BRANCH  12  13
ATOM     13  O   UNL     1       1.768   3.460  17.484  0.00  0.00    +0.000 OA
ATOM     14  C   UNL     1       1.146   2.800  18.579  0.00  0.00    +0.000 C 
ENDBRANCH  12  13
ENDBRANCH  11  12
ENDBRANCH   3   5
BRANCH   1  18
ATOM     15  N   UNL     1       0.591   9.517  20.401  0.00  0.00    +0.000 N 
ATOM     16  C   UNL     1       0.717   9.953  19.117  0.00  0.00    +0.000 A 
ATOM     17  C   UNL     1       1.524   9.042  18.491  0.00  0.00    +0.000 A 
ATOM     18  C   UNL     1       1.855   8.080  19.480  0.00  0.00    +0.000 A 
ATOM     19  N   UNL     1       1.286   8.389  20.666  0.00  0.00    +0.000 NA
BRANCH  15  21
ATOM     20  C   UNL     1      -0.194   9.333  22.720  0.00  0.00    +0.000 C 
ATOM     21  C   UNL     1      -0.239  10.123  21.424  0.00  0.00    +0.000 C 
ENDBRANCH  15  21
ENDBRANCH   1  18
TORSDOF 5
ENDMDL
