MODEL 1
REMARK VINA RESULT:      -8.6      0.000      0.000
REMARK  Name = 
REMARK  5 active torsions:
REMARK  status: ('A' for Active; 'I' for Inactive)
REMARK    1  A    between atoms: C_1  and  C_2
REMARK    2  A    between atoms: C_4  and  C_5
REMARK    3  A    between atoms: C_9  and  C_10
REMARK    4  A    between atoms: N_12  and  C_13
REMARK    5  A    between atoms: C_20  and  O_21
REMARK                            x       y       z     vdW  Elec       q    Type
REMARK                         _______ _______ _______ _____ _____    ______ ____
ROOT
ATOM      1  C   UNL     1       1.812   7.766  19.946  0.00  0.00    +0.000 C 
ATOM      2  O   UNL     1       2.523   8.034  18.994  0.00  0.00    +0.000 OA
ATOM      3  N   UNL     1       1.810   6.519  20.541  0.00  0.00    +0.000 N 
ATOM      4  H   UNL     1       1.143   6.419  21.304  0.00  0.00    +0.000 HD
ENDROOT
BRANCH   3   5
ATOM      5  C   UNL     1       2.615   5.279  20.294  0.00  0.00    +0.000 C 
ATOM      6  C   UNL     1       1.997   3.962  20.837  0.00  0.00    +0.000 C 
ATOM      7  C   UNL     1       0.951   3.401  19.857  0.00  0.00    +0.000 C 
ATOM      8  C   UNL     1       1.590   3.098  18.490  0.00  0.00    +0.000 C 
ATOM      9  C   UNL     1       2.209   4.375  17.904  0.00  0.00    +0.000 C 
ATOM     10  C   UNL     1       3.220   5.001  18.886  0.00  0.00    +0.000 C 
ATOM     11  C   UNL     1       4.350   3.939  19.054  0.00  0.00    +0.000 C 
ATOM     12  C   UNL     1       3.775   2.617  19.613  0.00  0.00    +0.000 C 
ATOM     13  C   UNL     1       2.704   2.058  18.663  0.00  0.00    +0.000 C 
ATOM     14  C   UNL     1       3.125   2.900  20.979  0.00  0.00    +0.000 C 
BRANCH  12  15
ATOM     15  O   UNL     1       4.816   1.663  19.771  0.00  0.00    +0.000 OA
ATOM     16  H   UNL     1       4.588   0.873  19.248  0.00  0.00    +0.000 HD
ENDBRANCH  12  15
ENDBRANCH   3   5
BRANCH   1  21
ATOM     17  C   UNL     1      -1.008  11.089  23.070  0.00  0.00    +0.000 C 
ATOM     18  C   UNL     1      -0.381  10.316  21.959  0.00  0.00    +0.000 A 
ATOM     19  N   UNL     1      -0.458  10.703  20.713  0.00  0.00    +0.000 NA
ATOM     20  C   UNL     1       0.313   9.886  19.873  0.00  0.00    +0.000 A 
ATOM     21  C   UNL     1       0.922   8.803  20.522  0.00  0.00    +0.000 A 
ATOM     22  S   UNL     1       0.525   8.878  22.205  0.00  0.00    +0.000 S 
BRANCH  20  23
ATOM     23  C   UNL     1       0.423  10.306  18.432  0.00  0.00    +0.000 C 
ATOM     24  F   UNL     1      -0.436  11.330  18.148  0.00  0.00    +0.000 F 
ATOM     25  F   UNL     1       1.663  10.772  18.133  0.00  0.00    +0.000 F 
ATOM     26  F   UNL     1       0.120   9.319  17.555  0.00  0.00    +0.000 F 
ENDBRANCH  20  23
ENDBRANCH   1  21
TORSDOF 4
ENDMDL
MODEL 2
REMARK VINA RESULT:      -8.5      5.002      6.971
REMARK  Name = 
REMARK  5 active torsions:
REMARK  status: ('A' for Active; 'I' for Inactive)
REMARK    1  A    between atoms: C_1  and  C_2
REMARK    2  A    between atoms: C_4  and  C_5
REMARK    3  A    between atoms: C_9  and  C_10
REMARK    4  A    between atoms: N_12  and  C_13
REMARK    5  A    between atoms: C_20  and  O_21
REMARK                            x       y       z     vdW  Elec       q    Type
REMARK                         _______ _______ _______ _____ _____    ______ ____
ROOT
ATOM      1  C   UNL     1       4.668   4.166  16.623  0.00  0.00    +0.000 C 
ATOM      2  O   UNL     1       3.634   3.737  16.141  0.00  0.00    +0.000 OA
ATOM      3  N   UNL     1       4.864   4.262  17.988  0.00  0.00    +0.000 N 
ATOM      4  H   UNL     1       5.758   4.671  18.254  0.00  0.00    +0.000 HD
ENDROOT
BRANCH   3   5
ATOM      5  C   UNL     1       4.021   3.866  19.161  0.00  0.00    +0.000 C 
ATOM      6  C   UNL     1       2.773   4.754  19.418  0.00  0.00    +0.000 C 
ATOM      7  C   UNL     1       1.602   4.329  18.514  0.00  0.00    +0.000 C 
ATOM      8  C   UNL     1       1.207   2.866  18.783  0.00  0.00    +0.000 C 
ATOM      9  C   UNL     1       2.409   1.943  18.534  0.00  0.00    +0.000 C 
ATOM     10  C   UNL     1       3.624   2.375  19.379  0.00  0.00    +0.000 C 
ATOM     11  C   UNL     1       3.178   2.212  20.864  0.00  0.00    +0.000 C 
ATOM     12  C   UNL     1       1.948   3.098  21.163  0.00  0.00    +0.000 C 
ATOM     13  C   UNL     1       0.776   2.711  20.247  0.00  0.00    +0.000 C 
ATOM     14  C   UNL     1       2.321   4.568  20.894  0.00  0.00    +0.000 C 
BRANCH  12  15
ATOM     15  O   UNL     1       1.560   2.949  22.522  0.00  0.00    +0.000 OA
ATOM     16  H   UNL     1       0.648   2.604  22.543  0.00  0.00    +0.000 HD
ENDBRANCH  12  15
ENDBRANCH   3   5
BRANCH   1  21
ATOM     17  C   UNL     1       8.031   5.168  12.569  0.00  0.00    +0.000 C 
ATOM     18  C   UNL     1       7.327   5.030  13.878  0.00  0.00    +0.000 A 
ATOM     19  N   UNL     1       7.704   5.690  14.942  0.00  0.00    +0.000 NA
ATOM     20  C   UNL     1       6.815   5.492  16.008  0.00  0.00    +0.000 A 
ATOM     21  C   UNL     1       5.780   4.586  15.738  0.00  0.00    +0.000 A 
ATOM     22  S   UNL     1       5.947   4.034  14.105  0.00  0.00    +0.000 S 
BRANCH  20  23
ATOM     23  C   UNL     1       7.056   6.305  17.251  0.00  0.00    +0.000 C 
ATOM     24  F   UNL     1       7.960   7.305  17.022  0.00  0.00    +0.000 F 
ATOM     25  F   UNL     1       5.926   6.923  17.681  0.00  0.00    +0.000 F 
ATOM     26  F   UNL     1       7.561   5.584  18.281  0.00  0.00    +0.000 F 
ENDBRANCH  20  23
ENDBRANCH   1  21
TORSDOF 4
ENDMDL
MODEL 3
REMARK VINA RESULT:      -8.1      4.920      6.836
REMARK  Name = 
REMARK  5 active torsions:
REMARK  status: ('A' for Active; 'I' for Inactive)
REMARK    1  A    between atoms: C_1  and  C_2
REMARK    2  A    between atoms: C_4  and  C_5
REMARK    3  A    between atoms: C_9  and  C_10
REMARK    4  A    between atoms: N_12  and  C_13
REMARK    5  A    between atoms: C_20  and  O_21
REMARK                            x       y       z     vdW  Elec       q    Type
REMARK                         _______ _______ _______ _____ _____    ______ ____
ROOT
ATOM      1  C   UNL     1       5.967   4.450  18.166  0.00  0.00    +0.000 C 
ATOM      2  O   UNL     1       6.643   4.461  19.180  0.00  0.00    +0.000 OA
ATOM      3  N   UNL     1       4.632   4.093  18.170  0.00  0.00    +0.000 N 
ATOM      4  H   UNL     1       4.196   4.091  17.250  0.00  0.00    +0.000 HD
ENDROOT
BRANCH   3   5
ATOM      5  C   UNL     1       3.689   3.718  19.272  0.00  0.00    +0.000 C 
ATOM      6  C   UNL     1       2.399   4.578  19.369  0.00  0.00    +0.000 C 
ATOM      7  C   UNL     1       1.333   4.083  18.375  0.00  0.00    +0.000 C 
ATOM      8  C   UNL     1       0.951   2.621  18.666  0.00  0.00    +0.000 C 
ATOM      9  C   UNL     1       2.195   1.725  18.573  0.00  0.00    +0.000 C 
ATOM     10  C   UNL     1       3.311   2.226  19.513  0.00  0.00    +0.000 C 
ATOM     11  C   UNL     1       2.726   2.108  20.953  0.00  0.00    +0.000 C 
ATOM     12  C   UNL     1       1.450   2.969  21.095  0.00  0.00    +0.000 C 
ATOM     13  C   UNL     1       0.384   2.511  20.087  0.00  0.00    +0.000 C 
ATOM     14  C   UNL     1       1.809   4.437  20.802  0.00  0.00    +0.000 C 
BRANCH  12  15
ATOM     15  O   UNL     1       0.935   2.862  22.415  0.00  0.00    +0.000 OA
ATOM     16  H   UNL     1       0.480   3.695  22.634  0.00  0.00    +0.000 HD
ENDBRANCH  12  15
ENDBRANCH   3   5
BRANCH   1  21
ATOM     17  C   UNL     1       7.483   5.001  13.053  0.00  0.00    +0.000 C 
ATOM     18  C   UNL     1       7.271   5.092  14.527  0.00  0.00    +0.000 A 
ATOM     19  N   UNL     1       7.682   6.118  15.226  0.00  0.00    +0.000 NA
ATOM     20  C   UNL     1       7.256   6.032  16.559  0.00  0.00    +0.000 A 
ATOM     21  C   UNL     1       6.567   4.852  16.871  0.00  0.00    +0.000 A 
ATOM     22  S   UNL     1       6.445   3.892  15.435  0.00  0.00    +0.000 S 
BRANCH  20  23
ATOM     23  C   UNL     1       7.543   7.218  17.440  0.00  0.00    +0.000 C 
ATOM     24  F   UNL     1       8.339   8.128  16.802  0.00  0.00    +0.000 F 
ATOM     25  F   UNL     1       6.411   7.889  17.772  0.00  0.00    +0.000 F 
ATOM     26  F   UNL     1       8.196   6.898  18.584  0.00  0.00    +0.000 F 
ENDBRANCH  20  23
ENDBRANCH   1  21
TORSDOF 4
ENDMDL
MODEL 4
REMARK VINA RESULT:      -8.1      2.333      2.833
REMARK  Name = 
REMARK  5 active torsions:
REMARK  status: ('A' for Active; 'I' for Inactive)
REMARK    1  A    between atoms: C_1  and  C_2
REMARK    2  A    between atoms: C_4  and  C_5
REMARK    3  A    between atoms: C_9  and  C_10
REMARK    4  A    between atoms: N_12  and  C_13
REMARK    5  A    between atoms: C_20  and  O_21
REMARK                            x       y       z     vdW  Elec       q    Type
REMARK                         _______ _______ _______ _____ _____    ______ ____
ROOT
ATOM      1  C   UNL     1       1.501   7.654  20.539  0.00  0.00    +0.000 C 
ATOM      2  O   UNL     1       0.934   6.966  21.369  0.00  0.00    +0.000 OA
ATOM      3  N   UNL     1       2.569   7.189  19.796  0.00  0.00    +0.000 N 
ATOM      4  H   UNL     1       2.972   7.880  19.165  0.00  0.00    +0.000 HD
ENDROOT
BRANCH   3   5
ATOM      5  C   UNL     1       3.247   5.855  19.724  0.00  0.00    +0.000 C 
ATOM      6  C   UNL     1       2.299   4.627  19.660  0.00  0.00    +0.000 C 
ATOM      7  C   UNL     1       1.811   4.385  18.220  0.00  0.00    +0.000 C 
ATOM      8  C   UNL     1       2.999   4.118  17.278  0.00  0.00    +0.000 C 
ATOM      9  C   UNL     1       3.964   5.312  17.299  0.00  0.00    +0.000 C 
ATOM     10  C   UNL     1       4.428   5.624  18.736  0.00  0.00    +0.000 C 
ATOM     11  C   UNL     1       5.204   4.355  19.207  0.00  0.00    +0.000 C 
ATOM     12  C   UNL     1       4.285   3.113  19.176  0.00  0.00    +0.000 C 
ATOM     13  C   UNL     1       3.760   2.874  17.751  0.00  0.00    +0.000 C 
ATOM     14  C   UNL     1       3.086   3.362  20.109  0.00  0.00    +0.000 C 
BRANCH  12  15
ATOM     15  O   UNL     1       5.000   1.968  19.619  0.00  0.00    +0.000 OA
ATOM     16  H   UNL     1       4.465   1.178  19.420  0.00  0.00    +0.000 HD
ENDBRANCH  12  15
ENDBRANCH   3   5
BRANCH   1  21
ATOM     17  C   UNL     1      -0.033  12.353  18.460  0.00  0.00    +0.000 C 
ATOM     18  C   UNL     1       0.346  11.196  19.324  0.00  0.00    +0.000 A 
ATOM     19  N   UNL     1       0.070  11.163  20.601  0.00  0.00    +0.000 NA
ATOM     20  C   UNL     1       0.410   9.927  21.167  0.00  0.00    +0.000 A 
ATOM     21  C   UNL     1       1.035   9.038  20.281  0.00  0.00    +0.000 A 
ATOM     22  S   UNL     1       1.137   9.794  18.727  0.00  0.00    +0.000 S 
BRANCH  20  23
ATOM     23  C   UNL     1       0.017   9.706  22.603  0.00  0.00    +0.000 C 
ATOM     24  F   UNL     1      -0.500  10.845  23.155  0.00  0.00    +0.000 F 
ATOM     25  F   UNL     1      -0.954   8.765  22.724  0.00  0.00    +0.000 F 
ATOM     26  F   UNL     1       1.053   9.350  23.400  0.00  0.00    +0.000 F 
ENDBRANCH  20  23
ENDBRANCH   1  21
TORSDOF 4
ENDMDL
MODEL 5
REMARK VINA RESULT:      -8.0      4.884      6.753
REMARK  Name = 
REMARK  5 active torsions:
REMARK  status: ('A' for Active; 'I' for Inactive)
REMARK    1  A    between atoms: C_1  and  C_2
REMARK    2  A    between atoms: C_4  and  C_5
REMARK    3  A    between atoms: C_9  and  C_10
REMARK    4  A    between atoms: N_12  and  C_13
REMARK    5  A    between atoms: C_20  and  O_21
REMARK                            x       y       z     vdW  Elec       q    Type
REMARK                         _______ _______ _______ _____ _____    ______ ____
ROOT
ATOM      1  C   UNL     1       4.649   5.148  17.230  0.00  0.00    +0.000 C 
ATOM      2  O   UNL     1       3.704   5.915  17.177  0.00  0.00    +0.000 OA
ATOM      3  N   UNL     1       4.768   4.187  18.216  0.00  0.00    +0.000 N 
ATOM      4  H   UNL     1       5.624   3.638  18.164  0.00  0.00    +0.000 HD
ENDROOT
BRANCH   3   5
ATOM      5  C   UNL     1       3.871   3.781  19.346  0.00  0.00    +0.000 C 
ATOM      6  C   UNL     1       2.574   4.620  19.504  0.00  0.00    +0.000 C 
ATOM      7  C   UNL     1       1.479   4.125  18.543  0.00  0.00    +0.000 C 
ATOM      8  C   UNL     1       1.129   2.653  18.823  0.00  0.00    +0.000 C 
ATOM      9  C   UNL     1       2.382   1.777  18.669  0.00  0.00    +0.000 C 
ATOM     10  C   UNL     1       3.524   2.280  19.575  0.00  0.00    +0.000 C 
ATOM     11  C   UNL     1       2.994   2.130  21.034  0.00  0.00    +0.000 C 
ATOM     12  C   UNL     1       1.712   2.969  21.237  0.00  0.00    +0.000 C 
ATOM     13  C   UNL     1       0.616   2.512  20.262  0.00  0.00    +0.000 C 
ATOM     14  C   UNL     1       2.040   4.447  20.955  0.00  0.00    +0.000 C 
BRANCH  12  15
ATOM     15  O   UNL     1       1.248   2.833  22.573  0.00  0.00    +0.000 OA
ATOM     16  H   UNL     1       1.604   2.002  22.936  0.00  0.00    +0.000 HD
ENDBRANCH  12  15
ENDBRANCH   3   5
BRANCH   1  21
ATOM     17  C   UNL     1       7.672   4.865  12.810  0.00  0.00    +0.000 C 
ATOM     18  C   UNL     1       7.102   5.066  14.175  0.00  0.00    +0.000 A 
ATOM     19  N   UNL     1       7.699   5.800  15.076  0.00  0.00    +0.000 NA
ATOM     20  C   UNL     1       6.911   5.939  16.228  0.00  0.00    +0.000 A 
ATOM     21  C   UNL     1       5.714   5.211  16.200  0.00  0.00    +0.000 A 
ATOM     22  S   UNL     1       5.605   4.392  14.679  0.00  0.00    +0.000 S 
BRANCH  20  23
ATOM     23  C   UNL     1       7.421   6.876  17.289  0.00  0.00    +0.000 C 
ATOM     24  F   UNL     1       6.406   7.619  17.824  0.00  0.00    +0.000 F 
ATOM     25  F   UNL     1       7.977   6.207  18.332  0.00  0.00    +0.000 F 
ATOM     26  F   UNL     1       8.328   7.772  16.831  0.00  0.00    +0.000 F 
ENDBRANCH  20  23
ENDBRANCH   1  21
TORSDOF 4
ENDMDL
MODEL 6
REMARK VINA RESULT:      -8.0      2.265      2.704
REMARK  Name = 
REMARK  5 active torsions:
REMARK  status: ('A' for Active; 'I' for Inactive)
REMARK    1  A    between atoms: C_1  and  C_2
REMARK    2  A    between atoms: C_4  and  C_5
REMARK    3  A    between atoms: C_9  and  C_10
REMARK    4  A    between atoms: N_12  and  C_13
REMARK    5  A    between atoms: C_20  and  O_21
REMARK                            x       y       z     vdW  Elec       q    Type
REMARK                         _______ _______ _______ _____ _____    ______ ____
ROOT
ATOM      1  C   UNL     1       1.603   8.132  20.538  0.00  0.00    +0.000 C 
ATOM      2  O   UNL     1       1.985   7.939  21.679  0.00  0.00    +0.000 OA
ATOM      3  N   UNL     1       1.915   7.276  19.499  0.00  0.00    +0.000 N 
ATOM      4  H   UNL     1       1.563   7.574  18.591  0.00  0.00    +0.000 HD
ENDROOT
BRANCH   3   5
ATOM      5  C   UNL     1       2.661   5.978  19.447  0.00  0.00    +0.000 C 
ATOM      6  C   UNL     1       2.255   4.930  20.519  0.00  0.00    +0.000 C 
ATOM      7  C   UNL     1       1.002   4.153  20.080  0.00  0.00    +0.000 C 
ATOM      8  C   UNL     1       1.256   3.406  18.759  0.00  0.00    +0.000 C 
ATOM      9  C   UNL     1       1.653   4.403  17.660  0.00  0.00    +0.000 C 
ATOM     10  C   UNL     1       2.871   5.244  18.089  0.00  0.00    +0.000 C 
ATOM     11  C   UNL     1       4.037   4.225  18.273  0.00  0.00    +0.000 C 
ATOM     12  C   UNL     1       3.678   3.175  19.350  0.00  0.00    +0.000 C 
ATOM     13  C   UNL     1       2.408   2.410  18.945  0.00  0.00    +0.000 C 
ATOM     14  C   UNL     1       3.413   3.904  20.680  0.00  0.00    +0.000 C 
BRANCH  12  15
ATOM     15  O   UNL     1       4.752   2.261  19.515  0.00  0.00    +0.000 OA
ATOM     16  H   UNL     1       5.064   2.320  20.437  0.00  0.00    +0.000 HD
ENDBRANCH  12  15
ENDBRANCH   3   5
BRANCH   1  21
ATOM     17  C   UNL     1      -1.196  12.115  18.291  0.00  0.00    +0.000 C 
ATOM     18  C   UNL     1      -0.517  11.142  19.196  0.00  0.00    +0.000 A 
ATOM     19  N   UNL     1      -0.811  11.052  20.466  0.00  0.00    +0.000 NA
ATOM     20  C   UNL     1      -0.136   9.985  21.075  0.00  0.00    +0.000 A 
ATOM     21  C   UNL     1       0.754   9.307  20.230  0.00  0.00    +0.000 A 
ATOM     22  S   UNL     1       0.676  10.030  18.659  0.00  0.00    +0.000 S 
BRANCH  20  23
ATOM     23  C   UNL     1      -0.492   9.685  22.506  0.00  0.00    +0.000 C 
ATOM     24  F   UNL     1      -1.450  10.543  22.969  0.00  0.00    +0.000 F 
ATOM     25  F   UNL     1      -1.013   8.439  22.649  0.00  0.00    +0.000 F 
ATOM     26  F   UNL     1       0.553   9.806  23.361  0.00  0.00    +0.000 F 
ENDBRANCH  20  23
ENDBRANCH   1  21
TORSDOF 4
ENDMDL
MODEL 7
REMARK VINA RESULT:      -7.9      2.190      2.578
REMARK  Name = 
REMARK  5 active torsions:
REMARK  status: ('A' for Active; 'I' for Inactive)
REMARK    1  A    between atoms: C_1  and  C_2
REMARK    2  A    between atoms: C_4  and  C_5
REMARK    3  A    between atoms: C_9  and  C_10
REMARK    4  A    between atoms: N_12  and  C_13
REMARK    5  A    between atoms: C_20  and  O_21
REMARK                            x       y       z     vdW  Elec       q    Type
REMARK                         _______ _______ _______ _____ _____    ______ ____
ROOT
ATOM      1  C   UNL     1       1.977   7.907  18.870  0.00  0.00    +0.000 C 
ATOM      2  O   UNL     1       1.855   7.526  17.719  0.00  0.00    +0.000 OA
ATOM      3  N   UNL     1       2.574   7.133  19.846  0.00  0.00    +0.000 N 
ATOM      4  H   UNL     1       2.579   7.557  20.772  0.00  0.00    +0.000 HD
ENDROOT
BRANCH   3   5
ATOM      5  C   UNL     1       3.234   5.788  19.808  0.00  0.00    +0.000 C 
ATOM      6  C   UNL     1       2.273   4.570  19.871  0.00  0.00    +0.000 C 
ATOM      7  C   UNL     1       1.695   4.254  18.480  0.00  0.00    +0.000 C 
ATOM      8  C   UNL     1       2.820   3.921  17.483  0.00  0.00    +0.000 C 
ATOM      9  C   UNL     1       3.795   5.102  17.378  0.00  0.00    +0.000 C 
ATOM     10  C   UNL     1       4.350   5.488  18.764  0.00  0.00    +0.000 C 
ATOM     11  C   UNL     1       5.142   4.239  19.258  0.00  0.00    +0.000 C 
ATOM     12  C   UNL     1       4.212   3.008  19.353  0.00  0.00    +0.000 C 
ATOM     13  C   UNL     1       3.599   2.696  17.979  0.00  0.00    +0.000 C 
ATOM     14  C   UNL     1       3.076   3.323  20.342  0.00  0.00    +0.000 C 
BRANCH  12  15
ATOM     15  O   UNL     1       4.943   1.880  19.815  0.00  0.00    +0.000 OA
ATOM     16  H   UNL     1       4.327   1.131  19.900  0.00  0.00    +0.000 HD
ENDBRANCH  12  15
ENDBRANCH   3   5
BRANCH   1  21
ATOM     17  C   UNL     1       0.442  13.038  19.126  0.00  0.00    +0.000 C 
ATOM     18  C   UNL     1       0.810  11.614  19.375  0.00  0.00    +0.000 A 
ATOM     19  N   UNL     1       0.492  10.998  20.484  0.00  0.00    +0.000 NA
ATOM     20  C   UNL     1       0.832   9.639  20.431  0.00  0.00    +0.000 A 
ATOM     21  C   UNL     1       1.499   9.255  19.258  0.00  0.00    +0.000 A 
ATOM     22  S   UNL     1       1.641  10.641  18.230  0.00  0.00    +0.000 S 
BRANCH  20  23
ATOM     23  C   UNL     1       0.395   8.784  21.590  0.00  0.00    +0.000 C 
ATOM     24  F   UNL     1      -0.523   9.436  22.366  0.00  0.00    +0.000 F 
ATOM     25  F   UNL     1      -0.216   7.644  21.178  0.00  0.00    +0.000 F 
ATOM     26  F   UNL     1       1.406   8.445  22.425  0.00  0.00    +0.000 F 
ENDBRANCH  20  23
ENDBRANCH   1  21
TORSDOF 4
ENDMDL
MODEL 8
REMARK VINA RESULT:      -7.8      2.179      2.480
REMARK  Name = 
REMARK  5 active torsions:
REMARK  status: ('A' for Active; 'I' for Inactive)
REMARK    1  A    between atoms: C_1  and  C_2
REMARK    2  A    between atoms: C_4  and  C_5
REMARK    3  A    between atoms: C_9  and  C_10
REMARK    4  A    between atoms: N_12  and  C_13
REMARK    5  A    between atoms: C_20  and  O_21
REMARK                            x       y       z     vdW  Elec       q    Type
REMARK                         _______ _______ _______ _____ _____    ______ ____
ROOT
ATOM      1  C   UNL     1       1.869   8.393  18.997  0.00  0.00    +0.000 C 
ATOM      2  O   UNL     1       2.751   8.633  18.191  0.00  0.00    +0.000 OA
ATOM      3  N   UNL     1       1.728   7.155  19.593  0.00  0.00    +0.000 N 
ATOM      4  H   UNL     1       0.928   7.080  20.219  0.00  0.00    +0.000 HD
ENDROOT
BRANCH   3   5
ATOM      5  C   UNL     1       2.535   5.895  19.511  0.00  0.00    +0.000 C 
ATOM      6  C   UNL     1       2.185   4.808  20.564  0.00  0.00    +0.000 C 
ATOM      7  C   UNL     1       0.967   3.981  20.115  0.00  0.00    +0.000 C 
ATOM      8  C   UNL     1       1.249   3.273  18.778  0.00  0.00    +0.000 C 
ATOM      9  C   UNL     1       1.592   4.309  17.698  0.00  0.00    +0.000 C 
ATOM     10  C   UNL     1       2.772   5.199  18.138  0.00  0.00    +0.000 C 
ATOM     11  C   UNL     1       3.986   4.233  18.296  0.00  0.00    +0.000 C 
ATOM     12  C   UNL     1       3.683   3.147  19.353  0.00  0.00    +0.000 C 
ATOM     13  C   UNL     1       2.448   2.330  18.939  0.00  0.00    +0.000 C 
ATOM     14  C   UNL     1       3.392   3.835  20.699  0.00  0.00    +0.000 C 
BRANCH  12  15
ATOM     15  O   UNL     1       4.801   2.281  19.495  0.00  0.00    +0.000 OA
ATOM     16  H   UNL     1       4.509   1.372  19.300  0.00  0.00    +0.000 HD
ENDBRANCH  12  15
ENDBRANCH   3   5
BRANCH   1  21
ATOM     17  C   UNL     1      -1.785  12.311  19.233  0.00  0.00    +0.000 C 
ATOM     18  C   UNL     1      -0.753  11.264  19.490  0.00  0.00    +0.000 A 
ATOM     19  N   UNL     1      -0.503  10.816  20.692  0.00  0.00    +0.000 NA
ATOM     20  C   UNL     1       0.411   9.753  20.663  0.00  0.00    +0.000 A 
ATOM     21  C   UNL     1       0.912   9.457  19.387  0.00  0.00    +0.000 A 
ATOM     22  S   UNL     1       0.170  10.525  18.245  0.00  0.00    +0.000 S 
BRANCH  20  23
ATOM     23  C   UNL     1       0.680   9.053  21.968  0.00  0.00    +0.000 C 
ATOM     24  F   UNL     1       0.147   9.745  23.020  0.00  0.00    +0.000 F 
ATOM     25  F   UNL     1       0.110   7.822  22.011  0.00  0.00    +0.000 F 
ATOM     26  F   UNL     1       1.999   8.919  22.248  0.00  0.00    +0.000 F 
ENDBRANCH  20  23
ENDBRANCH   1  21
TORSDOF 4
ENDMDL
MODEL 9
REMARK VINA RESULT:      -7.6      2.184      2.457
REMARK  Name = 
REMARK  5 active torsions:
REMARK  status: ('A' for Active; 'I' for Inactive)
REMARK    1  A    between atoms: C_1  and  C_2
REMARK    2  A    between atoms: C_4  and  C_5
REMARK    3  A    between atoms: C_9  and  C_10
REMARK    4  A    between atoms: N_12  and  C_13
REMARK    5  A    between atoms: C_20  and  O_21
REMARK                            x       y       z     vdW  Elec       q    Type
REMARK                         _______ _______ _______ _____ _____    ______ ____
ROOT
ATOM      1  C   UNL     1       1.782   8.300  19.002  0.00  0.00    +0.000 C 
ATOM      2  O   UNL     1       1.904   8.144  17.800  0.00  0.00    +0.000 OA
ATOM      3  N   UNL     1       2.171   7.339  19.916  0.00  0.00    +0.000 N 
ATOM      4  H   UNL     1       1.979   7.583  20.886  0.00  0.00    +0.000 HD
ENDROOT
BRANCH   3   5
ATOM      5  C   UNL     1       2.837   6.006  19.761  0.00  0.00    +0.000 C 
ATOM      6  C   UNL     1       2.323   4.888  20.708  0.00  0.00    +0.000 C 
ATOM      7  C   UNL     1       1.043   4.241  20.149  0.00  0.00    +0.000 C 
ATOM      8  C   UNL     1       1.306   3.611  18.769  0.00  0.00    +0.000 C 
ATOM      9  C   UNL     1       1.808   4.683  17.791  0.00  0.00    +0.000 C 
ATOM     10  C   UNL     1       3.058   5.396  18.344  0.00  0.00    +0.000 C 
ATOM     11  C   UNL     1       4.150   4.290  18.467  0.00  0.00    +0.000 C 
ATOM     12  C   UNL     1       3.682   3.166  19.419  0.00  0.00    +0.000 C 
ATOM     13  C   UNL     1       2.385   2.529  18.896  0.00  0.00    +0.000 C 
ATOM     14  C   UNL     1       3.408   3.777  20.806  0.00  0.00    +0.000 C 
BRANCH  12  15
ATOM     15  O   UNL     1       4.690   2.172  19.531  0.00  0.00    +0.000 OA
ATOM     16  H   UNL     1       4.278   1.356  19.868  0.00  0.00    +0.000 HD
ENDBRANCH  12  15
ENDBRANCH   3   5
BRANCH   1  21
ATOM     17  C   UNL     1      -0.077  13.265  19.803  0.00  0.00    +0.000 C 
ATOM     18  C   UNL     1       0.382  11.849  19.899  0.00  0.00    +0.000 A 
ATOM     19  N   UNL     1       0.112  11.100  20.935  0.00  0.00    +0.000 NA
ATOM     20  C   UNL     1       0.538   9.779  20.738  0.00  0.00    +0.000 A 
ATOM     21  C   UNL     1       1.220   9.565  19.532  0.00  0.00    +0.000 A 
ATOM     22  S   UNL     1       1.267  11.059  18.657  0.00  0.00    +0.000 S 
BRANCH  20  23
ATOM     23  C   UNL     1       0.163   8.779  21.799  0.00  0.00    +0.000 C 
ATOM     24  F   UNL     1       1.273   8.259  22.404  0.00  0.00    +0.000 F 
ATOM     25  F   UNL     1      -0.567   9.345  22.794  0.00  0.00    +0.000 F 
ATOM     26  F   UNL     1      -0.526   7.715  21.321  0.00  0.00    +0.000 F 
ENDBRANCH  20  23
ENDBRANCH   1  21
TORSDOF 4
ENDMDL
