MODEL 1
REMARK VINA RESULT:      -6.1      0.000      0.000
REMARK  Name = 
REMARK  14 active torsions:
REMARK  status: ('A' for Active; 'I' for Inactive)
REMARK    1  A    between atoms: C_1  and  C_2
REMARK    2  A    between atoms: C_2  and  C_3
REMARK    3  A    between atoms: C_3  and  N_4
REMARK    4  A    between atoms: N_4  and  C_5
REMARK    5  A    between atoms: N_4  and  C_8
REMARK    6  A    between atoms: C_5  and  C_6
REMARK    7  A    between atoms: C_6  and  C_7
REMARK    8  A    between atoms: C_8  and  C_9
REMARK    9  A    between atoms: C_9  and  O_10
REMARK   10  A    between atoms: O_10  and  C_11
REMARK   11  A    between atoms: C_13  and  C_14
REMARK   12  A    between atoms: C_17  and  C_18
REMARK   13  A    between atoms: C_18  and  C_19
REMARK   14  A    between atoms: C_18  and  C_20
REMARK                            x       y       z     vdW  Elec       q    Type
REMARK                         _______ _______ _______ _____ _____    ______ ____
ROOT
ATOM      1  O   UNL     1       4.727   7.170  17.087  0.00  0.00    +0.000 OA
ENDROOT
BRANCH   1   2
ATOM      2  C   UNL     1       5.481   6.199  16.472  0.00  0.00    +0.000 A 
ATOM      3  C   UNL     1       5.059   5.536  15.312  0.00  0.00    +0.000 A 
ATOM      4  C   UNL     1       5.842   4.557  14.699  0.00  0.00    +0.000 A 
ATOM      5  C   UNL     1       5.352   3.890  13.450  0.00  0.00    +0.000 C 
ATOM      6  C   UNL     1       7.064   4.230  15.274  0.00  0.00    +0.000 A 
ATOM      7  C   UNL     1       7.495   4.873  16.442  0.00  0.00    +0.000 A 
ATOM      8  C   UNL     1       6.723   5.876  17.056  0.00  0.00    +0.000 A 
BRANCH   8   9
ATOM      9  C   UNL     1       7.191   6.558  18.344  0.00  0.00    +0.000 C 
ATOM     10  C   UNL     1       7.948   5.565  19.232  0.00  0.00    +0.000 C 
ATOM     11  C   UNL     1       8.052   7.811  18.129  0.00  0.00    +0.000 C 
ENDBRANCH   8   9
ENDBRANCH   1   2
BRANCH   1  12
ATOM     12  C   UNL     1       3.425   6.761  17.517  0.00  0.00    +0.000 C 
BRANCH  12  13
ATOM     13  C   UNL     1       3.431   6.428  19.011  0.00  0.00    +0.000 C 
BRANCH  13  14
ATOM     14  N   UNL     1       3.196   5.004  19.368  0.00  0.00    +0.000 NA
BRANCH  14  15
ATOM     15  C   UNL     1       2.124   4.907  20.386  0.00  0.00    +0.000 C 
BRANCH  15  17
ATOM     16  C   UNL     1       1.344   2.682  21.371  0.00  0.00    +0.000 C 
ATOM     17  C   UNL     1       2.293   3.862  21.499  0.00  0.00    +0.000 C 
ENDBRANCH  15  17
ENDBRANCH  14  15
BRANCH  14  18
ATOM     18  C   UNL     1       2.899   4.226  18.148  0.00  0.00    +0.000 C 
BRANCH  18  19
ATOM     19  C   UNL     1       3.876   3.071  17.858  0.00  0.00    +0.000 C 
ATOM     20  C   UNL     1       3.374   1.716  18.338  0.00  0.00    +0.000 C 
ENDBRANCH  18  19
ENDBRANCH  14  18
ENDBRANCH  13  14
ENDBRANCH  12  13
ENDBRANCH   1  12
TORSDOF 9
ENDMDL
MODEL 2
REMARK VINA RESULT:      -6.0      1.752      5.851
REMARK  Name = 
REMARK  14 active torsions:
REMARK  status: ('A' for Active; 'I' for Inactive)
REMARK    1  A    between atoms: C_1  and  C_2
REMARK    2  A    between atoms: C_2  and  C_3
REMARK    3  A    between atoms: C_3  and  N_4
REMARK    4  A    between atoms: N_4  and  C_5
REMARK    5  A    between atoms: N_4  and  C_8
REMARK    6  A    between atoms: C_5  and  C_6
REMARK    7  A    between atoms: C_6  and  C_7
REMARK    8  A    between atoms: C_8  and  C_9
REMARK    9  A    between atoms: C_9  and  O_10
REMARK   10  A    between atoms: O_10  and  C_11
REMARK   11  A    between atoms: C_13  and  C_14
REMARK   12  A    between atoms: C_17  and  C_18
REMARK   13  A    between atoms: C_18  and  C_19
REMARK   14  A    between atoms: C_18  and  C_20
REMARK                            x       y       z     vdW  Elec       q    Type
REMARK                         _______ _______ _______ _____ _____    ______ ____
ROOT
ATOM      1  O   UNL     1       3.608   5.613  17.182  0.00  0.00    +0.000 OA
ENDROOT
BRANCH   1   2
ATOM      2  C   UNL     1       2.988   5.678  18.408  0.00  0.00    +0.000 A 
ATOM      3  C   UNL     1       2.525   6.881  18.958  0.00  0.00    +0.000 A 
ATOM      4  C   UNL     1       1.894   6.926  20.201  0.00  0.00    +0.000 A 
ATOM      5  C   UNL     1       1.401   8.236  20.736  0.00  0.00    +0.000 C 
ATOM      6  C   UNL     1       1.742   5.740  20.910  0.00  0.00    +0.000 A 
ATOM      7  C   UNL     1       2.213   4.530  20.382  0.00  0.00    +0.000 A 
ATOM      8  C   UNL     1       2.832   4.471  19.120  0.00  0.00    +0.000 A 
BRANCH   8   9
ATOM      9  C   UNL     1       3.362   3.150  18.560  0.00  0.00    +0.000 C 
ATOM     10  C   UNL     1       4.182   2.409  19.621  0.00  0.00    +0.000 C 
ATOM     11  C   UNL     1       2.284   2.211  18.000  0.00  0.00    +0.000 C 
ENDBRANCH   8   9
ENDBRANCH   1   2
BRANCH   1  12
ATOM     12  C   UNL     1       4.667   6.552  16.974  0.00  0.00    +0.000 C 
BRANCH  12  13
ATOM     13  C   UNL     1       5.411   6.245  15.672  0.00  0.00    +0.000 C 
BRANCH  13  14
ATOM     14  N   UNL     1       6.718   5.551  15.810  0.00  0.00    +0.000 NA
BRANCH  14  15
ATOM     15  C   UNL     1       6.681   4.625  16.966  0.00  0.00    +0.000 C 
BRANCH  15  17
ATOM     16  C   UNL     1       7.551   5.741  19.093  0.00  0.00    +0.000 C 
ATOM     17  C   UNL     1       7.817   4.725  17.994  0.00  0.00    +0.000 C 
ENDBRANCH  15  17
ENDBRANCH  14  15
BRANCH  14  18
ATOM     18  C   UNL     1       7.060   4.873  14.543  0.00  0.00    +0.000 C 
BRANCH  18  19
ATOM     19  C   UNL     1       5.937   4.005  13.945  0.00  0.00    +0.000 C 
ATOM     20  C   UNL     1       6.238   3.510  12.536  0.00  0.00    +0.000 C 
ENDBRANCH  18  19
ENDBRANCH  14  18
ENDBRANCH  13  14
ENDBRANCH  12  13
ENDBRANCH   1  12
TORSDOF 9
ENDMDL
MODEL 3
REMARK VINA RESULT:      -5.9      1.693      6.089
REMARK  Name = 
REMARK  14 active torsions:
REMARK  status: ('A' for Active; 'I' for Inactive)
REMARK    1  A    between atoms: C_1  and  C_2
REMARK    2  A    between atoms: C_2  and  C_3
REMARK    3  A    between atoms: C_3  and  N_4
REMARK    4  A    between atoms: N_4  and  C_5
REMARK    5  A    between atoms: N_4  and  C_8
REMARK    6  A    between atoms: C_5  and  C_6
REMARK    7  A    between atoms: C_6  and  C_7
REMARK    8  A    between atoms: C_8  and  C_9
REMARK    9  A    between atoms: C_9  and  O_10
REMARK   10  A    between atoms: O_10  and  C_11
REMARK   11  A    between atoms: C_13  and  C_14
REMARK   12  A    between atoms: C_17  and  C_18
REMARK   13  A    between atoms: C_18  and  C_19
REMARK   14  A    between atoms: C_18  and  C_20
REMARK                            x       y       z     vdW  Elec       q    Type
REMARK                         _______ _______ _______ _____ _____    ______ ____
ROOT
ATOM      1  O   UNL     1       2.622   3.665  17.517  0.00  0.00    +0.000 OA
ENDROOT
BRANCH   1   2
ATOM      2  C   UNL     1       2.432   4.749  18.342  0.00  0.00    +0.000 A 
ATOM      3  C   UNL     1       2.495   6.071  17.879  0.00  0.00    +0.000 A 
ATOM      4  C   UNL     1       2.294   7.157  18.731  0.00  0.00    +0.000 A 
ATOM      5  C   UNL     1       2.354   8.551  18.182  0.00  0.00    +0.000 C 
ATOM      6  C   UNL     1       2.042   6.908  20.074  0.00  0.00    +0.000 A 
ATOM      7  C   UNL     1       1.990   5.593  20.557  0.00  0.00    +0.000 A 
ATOM      8  C   UNL     1       2.170   4.490  19.702  0.00  0.00    +0.000 A 
BRANCH   8   9
ATOM      9  C   UNL     1       2.133   3.058  20.241  0.00  0.00    +0.000 C 
ATOM     10  C   UNL     1       3.543   2.590  20.615  0.00  0.00    +0.000 C 
ATOM     11  C   UNL     1       1.190   2.846  21.434  0.00  0.00    +0.000 C 
ENDBRANCH   8   9
ENDBRANCH   1   2
BRANCH   1  12
ATOM     12  C   UNL     1       3.833   3.672  16.757  0.00  0.00    +0.000 C 
BRANCH  12  13
ATOM     13  C   UNL     1       5.041   3.902  17.670  0.00  0.00    +0.000 C 
BRANCH  13  14
ATOM     14  N   UNL     1       6.091   4.818  17.153  0.00  0.00    +0.000 NA
BRANCH  14  15
ATOM     15  C   UNL     1       5.768   5.228  15.766  0.00  0.00    +0.000 C 
BRANCH  15  17
ATOM     16  C   UNL     1       6.127   3.853  13.643  0.00  0.00    +0.000 C 
ATOM     17  C   UNL     1       6.740   4.807  14.655  0.00  0.00    +0.000 C 
ENDBRANCH  15  17
ENDBRANCH  14  15
BRANCH  14  18
ATOM     18  C   UNL     1       6.247   5.966  18.068  0.00  0.00    +0.000 C 
BRANCH  18  19
ATOM     19  C   UNL     1       7.663   6.570  18.122  0.00  0.00    +0.000 C 
ATOM     20  C   UNL     1       7.737   7.994  17.589  0.00  0.00    +0.000 C 
ENDBRANCH  18  19
ENDBRANCH  14  18
ENDBRANCH  13  14
ENDBRANCH  12  13
ENDBRANCH   1  12
TORSDOF 9
ENDMDL
MODEL 4
REMARK VINA RESULT:      -5.9      0.385      1.936
REMARK  Name = 
REMARK  14 active torsions:
REMARK  status: ('A' for Active; 'I' for Inactive)
REMARK    1  A    between atoms: C_1  and  C_2
REMARK    2  A    between atoms: C_2  and  C_3
REMARK    3  A    between atoms: C_3  and  N_4
REMARK    4  A    between atoms: N_4  and  C_5
REMARK    5  A    between atoms: N_4  and  C_8
REMARK    6  A    between atoms: C_5  and  C_6
REMARK    7  A    between atoms: C_6  and  C_7
REMARK    8  A    between atoms: C_8  and  C_9
REMARK    9  A    between atoms: C_9  and  O_10
REMARK   10  A    between atoms: O_10  and  C_11
REMARK   11  A    between atoms: C_13  and  C_14
REMARK   12  A    between atoms: C_17  and  C_18
REMARK   13  A    between atoms: C_18  and  C_19
REMARK   14  A    between atoms: C_18  and  C_20
REMARK                            x       y       z     vdW  Elec       q    Type
REMARK                         _______ _______ _______ _____ _____    ______ ____
ROOT
ATOM      1  O   UNL     1       4.898   7.333  17.207  0.00  0.00    +0.000 OA
ENDROOT
BRANCH   1   2
ATOM      2  C   UNL     1       5.571   6.278  16.634  0.00  0.00    +0.000 A 
ATOM      3  C   UNL     1       5.112   5.627  15.482  0.00  0.00    +0.000 A 
ATOM      4  C   UNL     1       5.811   4.562  14.912  0.00  0.00    +0.000 A 
ATOM      5  C   UNL     1       5.287   3.910  13.669  0.00  0.00    +0.000 C 
ATOM      6  C   UNL     1       6.984   4.137  15.525  0.00  0.00    +0.000 A 
ATOM      7  C   UNL     1       7.450   4.768  16.686  0.00  0.00    +0.000 A 
ATOM      8  C   UNL     1       6.763   5.856  17.256  0.00  0.00    +0.000 A 
BRANCH   8   9
ATOM      9  C   UNL     1       7.266   6.525  18.537  0.00  0.00    +0.000 C 
ATOM     10  C   UNL     1       7.965   5.502  19.438  0.00  0.00    +0.000 C 
ATOM     11  C   UNL     1       8.196   7.727  18.310  0.00  0.00    +0.000 C 
ENDBRANCH   8   9
ENDBRANCH   1   2
BRANCH   1  12
ATOM     12  C   UNL     1       3.513   7.107  17.479  0.00  0.00    +0.000 C 
BRANCH  12  13
ATOM     13  C   UNL     1       3.327   6.530  18.885  0.00  0.00    +0.000 C 
BRANCH  13  14
ATOM     14  N   UNL     1       2.648   5.210  18.970  0.00  0.00    +0.000 NA
BRANCH  14  15
ATOM     15  C   UNL     1       3.641   4.119  18.825  0.00  0.00    +0.000 C 
BRANCH  15  17
ATOM     16  C   UNL     1       3.650   1.681  18.064  0.00  0.00    +0.000 C 
ATOM     17  C   UNL     1       3.448   3.133  17.665  0.00  0.00    +0.000 C 
ENDBRANCH  15  17
ENDBRANCH  14  15
BRANCH  14  18
ATOM     18  C   UNL     1       1.881   5.123  20.229  0.00  0.00    +0.000 C 
BRANCH  18  19
ATOM     19  C   UNL     1       2.295   3.973  21.166  0.00  0.00    +0.000 C 
ATOM     20  C   UNL     1       1.274   2.845  21.232  0.00  0.00    +0.000 C 
ENDBRANCH  18  19
ENDBRANCH  14  18
ENDBRANCH  13  14
ENDBRANCH  12  13
ENDBRANCH   1  12
TORSDOF 9
ENDMDL
MODEL 5
REMARK VINA RESULT:      -5.9      1.189      2.447
REMARK  Name = 
REMARK  14 active torsions:
REMARK  status: ('A' for Active; 'I' for Inactive)
REMARK    1  A    between atoms: C_1  and  C_2
REMARK    2  A    between atoms: C_2  and  C_3
REMARK    3  A    between atoms: C_3  and  N_4
REMARK    4  A    between atoms: N_4  and  C_5
REMARK    5  A    between atoms: N_4  and  C_8
REMARK    6  A    between atoms: C_5  and  C_6
REMARK    7  A    between atoms: C_6  and  C_7
REMARK    8  A    between atoms: C_8  and  C_9
REMARK    9  A    between atoms: C_9  and  O_10
REMARK   10  A    between atoms: O_10  and  C_11
REMARK   11  A    between atoms: C_13  and  C_14
REMARK   12  A    between atoms: C_17  and  C_18
REMARK   13  A    between atoms: C_18  and  C_19
REMARK   14  A    between atoms: C_18  and  C_20
REMARK                            x       y       z     vdW  Elec       q    Type
REMARK                         _______ _______ _______ _____ _____    ______ ____
ROOT
ATOM      1  O   UNL     1       4.237   5.079  16.715  0.00  0.00    +0.000 OA
ENDROOT
BRANCH   1   2
ATOM      2  C   UNL     1       5.264   4.911  15.816  0.00  0.00    +0.000 A 
ATOM      3  C   UNL     1       5.100   4.232  14.601  0.00  0.00    +0.000 A 
ATOM      4  C   UNL     1       6.153   4.077  13.698  0.00  0.00    +0.000 A 
ATOM      5  C   UNL     1       5.920   3.358  12.404  0.00  0.00    +0.000 C 
ATOM      6  C   UNL     1       7.395   4.601  14.034  0.00  0.00    +0.000 A 
ATOM      7  C   UNL     1       7.581   5.270  15.251  0.00  0.00    +0.000 A 
ATOM      8  C   UNL     1       6.520   5.449  16.159  0.00  0.00    +0.000 A 
BRANCH   8   9
ATOM      9  C   UNL     1       6.736   6.162  17.496  0.00  0.00    +0.000 C 
ATOM     10  C   UNL     1       7.442   5.235  18.490  0.00  0.00    +0.000 C 
ATOM     11  C   UNL     1       7.505   7.488  17.399  0.00  0.00    +0.000 C 
ENDBRANCH   8   9
ENDBRANCH   1   2
BRANCH   1  12
ATOM     12  C   UNL     1       3.621   3.875  17.181  0.00  0.00    +0.000 C 
BRANCH  12  13
ATOM     13  C   UNL     1       3.976   3.621  18.649  0.00  0.00    +0.000 C 
BRANCH  13  14
ATOM     14  N   UNL     1       3.143   4.328  19.657  0.00  0.00    +0.000 NA
BRANCH  14  15
ATOM     15  C   UNL     1       3.530   5.757  19.723  0.00  0.00    +0.000 C 
BRANCH  15  17
ATOM     16  C   UNL     1       2.728   7.672  18.234  0.00  0.00    +0.000 C 
ATOM     17  C   UNL     1       2.439   6.802  19.446  0.00  0.00    +0.000 C 
ENDBRANCH  15  17
ENDBRANCH  14  15
BRANCH  14  18
ATOM     18  C   UNL     1       1.711   4.136  19.345  0.00  0.00    +0.000 C 
BRANCH  18  19
ATOM     19  C   UNL     1       1.056   2.915  20.017  0.00  0.00    +0.000 C 
ATOM     20  C   UNL     1       1.424   2.759  21.486  0.00  0.00    +0.000 C 
ENDBRANCH  18  19
ENDBRANCH  14  18
ENDBRANCH  13  14
ENDBRANCH  12  13
ENDBRANCH   1  12
TORSDOF 9
ENDMDL
MODEL 6
REMARK VINA RESULT:      -5.9      1.740      5.882
REMARK  Name = 
REMARK  14 active torsions:
REMARK  status: ('A' for Active; 'I' for Inactive)
REMARK    1  A    between atoms: C_1  and  C_2
REMARK    2  A    between atoms: C_2  and  C_3
REMARK    3  A    between atoms: C_3  and  N_4
REMARK    4  A    between atoms: N_4  and  C_5
REMARK    5  A    between atoms: N_4  and  C_8
REMARK    6  A    between atoms: C_5  and  C_6
REMARK    7  A    between atoms: C_6  and  C_7
REMARK    8  A    between atoms: C_8  and  C_9
REMARK    9  A    between atoms: C_9  and  O_10
REMARK   10  A    between atoms: O_10  and  C_11
REMARK   11  A    between atoms: C_13  and  C_14
REMARK   12  A    between atoms: C_17  and  C_18
REMARK   13  A    between atoms: C_18  and  C_19
REMARK   14  A    between atoms: C_18  and  C_20
REMARK                            x       y       z     vdW  Elec       q    Type
REMARK                         _______ _______ _______ _____ _____    ______ ____
ROOT
ATOM      1  O   UNL     1       2.580   3.913  17.555  0.00  0.00    +0.000 OA
ENDROOT
BRANCH   1   2
ATOM      2  C   UNL     1       2.393   5.028  18.338  0.00  0.00    +0.000 A 
ATOM      3  C   UNL     1       2.485   6.331  17.831  0.00  0.00    +0.000 A 
ATOM      4  C   UNL     1       2.287   7.450  18.640  0.00  0.00    +0.000 A 
ATOM      5  C   UNL     1       2.378   8.822  18.045  0.00  0.00    +0.000 C 
ATOM      6  C   UNL     1       2.008   7.252  19.987  0.00  0.00    +0.000 A 
ATOM      7  C   UNL     1       1.927   5.956  20.514  0.00  0.00    +0.000 A 
ATOM      8  C   UNL     1       2.105   4.821  19.702  0.00  0.00    +0.000 A 
BRANCH   8   9
ATOM      9  C   UNL     1       2.037   3.409  20.289  0.00  0.00    +0.000 C 
ATOM     10  C   UNL     1       2.168   3.457  21.815  0.00  0.00    +0.000 C 
ATOM     11  C   UNL     1       0.778   2.616  19.909  0.00  0.00    +0.000 C 
ENDBRANCH   8   9
ENDBRANCH   1   2
BRANCH   1  12
ATOM     12  C   UNL     1       3.780   3.898  16.776  0.00  0.00    +0.000 C 
BRANCH  12  13
ATOM     13  C   UNL     1       5.010   4.010  17.682  0.00  0.00    +0.000 C 
BRANCH  13  14
ATOM     14  N   UNL     1       5.996   5.063  17.323  0.00  0.00    +0.000 NA
BRANCH  14  15
ATOM     15  C   UNL     1       6.509   5.715  18.551  0.00  0.00    +0.000 C 
BRANCH  15  17
ATOM     16  C   UNL     1       7.989   7.752  18.116  0.00  0.00    +0.000 C 
ATOM     17  C   UNL     1       7.934   6.285  18.509  0.00  0.00    +0.000 C 
ENDBRANCH  15  17
ENDBRANCH  14  15
BRANCH  14  18
ATOM     18  C   UNL     1       7.069   4.480  16.493  0.00  0.00    +0.000 C 
BRANCH  18  19
ATOM     19  C   UNL     1       7.057   4.912  15.014  0.00  0.00    +0.000 C 
ATOM     20  C   UNL     1       6.332   3.931  14.102  0.00  0.00    +0.000 C 
ENDBRANCH  18  19
ENDBRANCH  14  18
ENDBRANCH  13  14
ENDBRANCH  12  13
ENDBRANCH   1  12
TORSDOF 9
ENDMDL
MODEL 7
REMARK VINA RESULT:      -5.8      1.744      5.902
REMARK  Name = 
REMARK  14 active torsions:
REMARK  status: ('A' for Active; 'I' for Inactive)
REMARK    1  A    between atoms: C_1  and  C_2
REMARK    2  A    between atoms: C_2  and  C_3
REMARK    3  A    between atoms: C_3  and  N_4
REMARK    4  A    between atoms: N_4  and  C_5
REMARK    5  A    between atoms: N_4  and  C_8
REMARK    6  A    between atoms: C_5  and  C_6
REMARK    7  A    between atoms: C_6  and  C_7
REMARK    8  A    between atoms: C_8  and  C_9
REMARK    9  A    between atoms: C_9  and  O_10
REMARK   10  A    between atoms: O_10  and  C_11
REMARK   11  A    between atoms: C_13  and  C_14
REMARK   12  A    between atoms: C_17  and  C_18
REMARK   13  A    between atoms: C_18  and  C_19
REMARK   14  A    between atoms: C_18  and  C_20
REMARK                            x       y       z     vdW  Elec       q    Type
REMARK                         _______ _______ _______ _____ _____    ______ ____
ROOT
ATOM      1  O   UNL     1       3.160   4.204  17.201  0.00  0.00    +0.000 OA
ENDROOT
BRANCH   1   2
ATOM      2  C   UNL     1       2.679   4.509  18.453  0.00  0.00    +0.000 A 
ATOM      3  C   UNL     1       2.346   3.526  19.394  0.00  0.00    +0.000 A 
ATOM      4  C   UNL     1       1.865   3.857  20.662  0.00  0.00    +0.000 A 
ATOM      5  C   UNL     1       1.540   2.768  21.639  0.00  0.00    +0.000 C 
ATOM      6  C   UNL     1       1.701   5.200  20.979  0.00  0.00    +0.000 A 
ATOM      7  C   UNL     1       2.016   6.195  20.044  0.00  0.00    +0.000 A 
ATOM      8  C   UNL     1       2.521   5.873  18.771  0.00  0.00    +0.000 A 
BRANCH   8   9
ATOM      9  C   UNL     1       2.841   6.965  17.747  0.00  0.00    +0.000 C 
ATOM     10  C   UNL     1       2.023   8.228  18.037  0.00  0.00    +0.000 C 
ATOM     11  C   UNL     1       4.329   7.332  17.645  0.00  0.00    +0.000 C 
ENDBRANCH   8   9
ENDBRANCH   1   2
BRANCH   1  12
ATOM     12  C   UNL     1       4.491   3.683  17.160  0.00  0.00    +0.000 C 
BRANCH  12  13
ATOM     13  C   UNL     1       5.097   3.862  15.766  0.00  0.00    +0.000 C 
BRANCH  13  14
ATOM     14  N   UNL     1       6.220   4.831  15.657  0.00  0.00    +0.000 NA
BRANCH  14  15
ATOM     15  C   UNL     1       7.147   4.663  16.801  0.00  0.00    +0.000 C 
BRANCH  15  17
ATOM     16  C   UNL     1       7.583   5.696  19.096  0.00  0.00    +0.000 C 
ATOM     17  C   UNL     1       7.531   5.920  17.594  0.00  0.00    +0.000 C 
ENDBRANCH  15  17
ENDBRANCH  14  15
BRANCH  14  18
ATOM     18  C   UNL     1       6.890   4.674  14.350  0.00  0.00    +0.000 C 
BRANCH  18  19
ATOM     19  C   UNL     1       6.016   4.062  13.238  0.00  0.00    +0.000 C 
ATOM     20  C   UNL     1       6.821   3.457  12.097  0.00  0.00    +0.000 C 
ENDBRANCH  18  19
ENDBRANCH  14  18
ENDBRANCH  13  14
ENDBRANCH  12  13
ENDBRANCH   1  12
TORSDOF 9
ENDMDL
MODEL 8
REMARK VINA RESULT:      -5.8      2.734      6.147
REMARK  Name = 
REMARK  14 active torsions:
REMARK  status: ('A' for Active; 'I' for Inactive)
REMARK    1  A    between atoms: C_1  and  C_2
REMARK    2  A    between atoms: C_2  and  C_3
REMARK    3  A    between atoms: C_3  and  N_4
REMARK    4  A    between atoms: N_4  and  C_5
REMARK    5  A    between atoms: N_4  and  C_8
REMARK    6  A    between atoms: C_5  and  C_6
REMARK    7  A    between atoms: C_6  and  C_7
REMARK    8  A    between atoms: C_8  and  C_9
REMARK    9  A    between atoms: C_9  and  O_10
REMARK   10  A    between atoms: O_10  and  C_11
REMARK   11  A    between atoms: C_13  and  C_14
REMARK   12  A    between atoms: C_17  and  C_18
REMARK   13  A    between atoms: C_18  and  C_19
REMARK   14  A    between atoms: C_18  and  C_20
REMARK                            x       y       z     vdW  Elec       q    Type
REMARK                         _______ _______ _______ _____ _____    ______ ____
ROOT
ATOM      1  O   UNL     1       5.817   5.212  15.682  0.00  0.00    +0.000 OA
ENDROOT
BRANCH   1   2
ATOM      2  C   UNL     1       5.163   5.091  16.886  0.00  0.00    +0.000 A 
ATOM      3  C   UNL     1       3.838   4.644  16.984  0.00  0.00    +0.000 A 
ATOM      4  C   UNL     1       3.194   4.523  18.216  0.00  0.00    +0.000 A 
ATOM      5  C   UNL     1       1.782   4.023  18.269  0.00  0.00    +0.000 C 
ATOM      6  C   UNL     1       3.891   4.874  19.366  0.00  0.00    +0.000 A 
ATOM      7  C   UNL     1       5.211   5.337  19.284  0.00  0.00    +0.000 A 
ATOM      8  C   UNL     1       5.877   5.443  18.049  0.00  0.00    +0.000 A 
BRANCH   8   9
ATOM      9  C   UNL     1       7.311   5.970  17.967  0.00  0.00    +0.000 C 
ATOM     10  C   UNL     1       7.320   7.430  17.501  0.00  0.00    +0.000 C 
ATOM     11  C   UNL     1       8.117   5.844  19.268  0.00  0.00    +0.000 C 
ENDBRANCH   8   9
ENDBRANCH   1   2
BRANCH   1  12
ATOM     12  C   UNL     1       5.232   4.502  14.587  0.00  0.00    +0.000 C 
BRANCH  12  13
ATOM     13  C   UNL     1       6.315   3.814  13.752  0.00  0.00    +0.000 C 
BRANCH  13  14
ATOM     14  N   UNL     1       5.863   3.178  12.487  0.00  0.00    +0.000 NA
BRANCH  14  15
ATOM     15  C   UNL     1       4.605   3.808  12.023  0.00  0.00    +0.000 C 
BRANCH  15  17
ATOM     16  C   UNL     1       3.153   4.051   9.935  0.00  0.00    +0.000 C 
ATOM     17  C   UNL     1       3.821   3.097  10.911  0.00  0.00    +0.000 C 
ENDBRANCH  15  17
ENDBRANCH  14  15
BRANCH  14  18
ATOM     18  C   UNL     1       6.943   3.247  11.480  0.00  0.00    +0.000 C 
BRANCH  18  19
ATOM     19  C   UNL     1       7.488   1.884  11.014  0.00  0.00    +0.000 C 
ATOM     20  C   UNL     1       6.470   0.755  11.119  0.00  0.00    +0.000 C 
ENDBRANCH  18  19
ENDBRANCH  14  18
ENDBRANCH  13  14
ENDBRANCH  12  13
ENDBRANCH   1  12
TORSDOF 9
ENDMDL
MODEL 9
REMARK VINA RESULT:      -5.8      1.275      2.406
REMARK  Name = 
REMARK  14 active torsions:
REMARK  status: ('A' for Active; 'I' for Inactive)
REMARK    1  A    between atoms: C_1  and  C_2
REMARK    2  A    between atoms: C_2  and  C_3
REMARK    3  A    between atoms: C_3  and  N_4
REMARK    4  A    between atoms: N_4  and  C_5
REMARK    5  A    between atoms: N_4  and  C_8
REMARK    6  A    between atoms: C_5  and  C_6
REMARK    7  A    between atoms: C_6  and  C_7
REMARK    8  A    between atoms: C_8  and  C_9
REMARK    9  A    between atoms: C_9  and  O_10
REMARK   10  A    between atoms: O_10  and  C_11
REMARK   11  A    between atoms: C_13  and  C_14
REMARK   12  A    between atoms: C_17  and  C_18
REMARK   13  A    between atoms: C_18  and  C_19
REMARK   14  A    between atoms: C_18  and  C_20
REMARK                            x       y       z     vdW  Elec       q    Type
REMARK                         _______ _______ _______ _____ _____    ______ ____
ROOT
ATOM      1  O   UNL     1       4.351   4.494  16.813  0.00  0.00    +0.000 OA
ENDROOT
BRANCH   1   2
ATOM      2  C   UNL     1       5.293   4.546  15.812  0.00  0.00    +0.000 A 
ATOM      3  C   UNL     1       5.118   3.908  14.577  0.00  0.00    +0.000 A 
ATOM      4  C   UNL     1       6.084   3.978  13.571  0.00  0.00    +0.000 A 
ATOM      5  C   UNL     1       5.841   3.293  12.261  0.00  0.00    +0.000 C 
ATOM      6  C   UNL     1       7.251   4.690  13.822  0.00  0.00    +0.000 A 
ATOM      7  C   UNL     1       7.448   5.322  15.057  0.00  0.00    +0.000 A 
ATOM      8  C   UNL     1       6.472   5.274  16.070  0.00  0.00    +0.000 A 
BRANCH   8   9
ATOM      9  C   UNL     1       6.704   5.949  17.424  0.00  0.00    +0.000 C 
ATOM     10  C   UNL     1       7.619   5.089  18.301  0.00  0.00    +0.000 C 
ATOM     11  C   UNL     1       7.267   7.376  17.341  0.00  0.00    +0.000 C 
ENDBRANCH   8   9
ENDBRANCH   1   2
BRANCH   1  12
ATOM     12  C   UNL     1       4.244   3.241  17.495  0.00  0.00    +0.000 C 
BRANCH  12  13
ATOM     13  C   UNL     1       4.230   3.453  19.012  0.00  0.00    +0.000 C 
BRANCH  13  14
ATOM     14  N   UNL     1       3.115   4.277  19.549  0.00  0.00    +0.000 NA
BRANCH  14  15
ATOM     15  C   UNL     1       2.577   3.658  20.783  0.00  0.00    +0.000 C 
BRANCH  15  17
ATOM     16  C   UNL     1       0.659   2.841  19.307  0.00  0.00    +0.000 C 
ATOM     17  C   UNL     1       1.379   2.709  20.638  0.00  0.00    +0.000 C 
ENDBRANCH  15  17
ENDBRANCH  14  15
BRANCH  14  18
ATOM     18  C   UNL     1       3.575   5.665  19.758  0.00  0.00    +0.000 C 
BRANCH  18  19
ATOM     19  C   UNL     1       2.517   6.751  19.485  0.00  0.00    +0.000 C 
ATOM     20  C   UNL     1       2.619   7.363  18.094  0.00  0.00    +0.000 C 
ENDBRANCH  18  19
ENDBRANCH  14  18
ENDBRANCH  13  14
ENDBRANCH  12  13
ENDBRANCH   1  12
TORSDOF 9
ENDMDL
