MODEL 1
REMARK VINA RESULT:      -7.5      0.000      0.000
REMARK  Name = 
REMARK  8 active torsions:
REMARK  status: ('A' for Active; 'I' for Inactive)
REMARK    1  A    between atoms: C_1  and  C_2
REMARK    2  A    between atoms: C_2  and  C_3
REMARK    3  A    between atoms: C_2  and  C_4
REMARK    4  A    between atoms: C_4  and  C_5
REMARK    5  A    between atoms: C_4  and  N_8
REMARK    6  A    between atoms: C_10  and  C_11
REMARK    7  A    between atoms: C_14  and  C_15
REMARK    8  A    between atoms: C_20  and  C_21
REMARK                            x       y       z     vdW  Elec       q    Type
REMARK                         _______ _______ _______ _____ _____    ______ ____
ROOT
ATOM      1  N   UNL     1       3.197   4.279  19.506  0.00  0.00    +0.000 N 
ATOM      2  C   UNL     1       2.823   5.542  19.876  0.00  0.00    +0.000 A 
ATOM      3  C   UNL     1       2.794   6.239  18.691  0.00  0.00    +0.000 A 
ATOM      4  N   UNL     1       3.215   5.423  17.674  0.00  0.00    +0.000 NA
ATOM      5  N   UNL     1       3.478   4.225  18.187  0.00  0.00    +0.000 NA
ENDROOT
BRANCH   3   6
ATOM      6  C   UNL     1       2.342   7.644  18.528  0.00  0.00    +0.000 A 
ATOM      7  C   UNL     1       2.900   8.583  17.684  0.00  0.00    +0.000 A 
ATOM      8  C   UNL     1       2.140   9.773  17.834  0.00  0.00    +0.000 A 
ATOM      9  C   UNL     1       1.167   9.503  18.776  0.00  0.00    +0.000 A 
ATOM     10  O   UNL     1       1.288   8.208  19.191  0.00  0.00    +0.000 OA
BRANCH   9  11
ATOM     11  C   UNL     1       0.134  10.310  19.432  0.00  0.00    +0.000 A 
ATOM     12  C   UNL     1      -0.816  10.962  18.620  0.00  0.00    +0.000 A 
ATOM     13  C   UNL     1      -1.801  11.788  19.167  0.00  0.00    +0.000 A 
ATOM     14  C   UNL     1      -1.871  11.970  20.543  0.00  0.00    +0.000 A 
ATOM     15  C   UNL     1      -0.954  11.322  21.370  0.00  0.00    +0.000 A 
ATOM     16  C   UNL     1       0.049  10.498  20.828  0.00  0.00    +0.000 A 
BRANCH  16  17
ATOM     17  C   UNL     1       0.948   9.863  21.750  0.00  0.00    +0.000 C 
ATOM     18  N   UNL     1       1.645   9.315  22.507  0.00  0.00    +0.000 NA
ENDBRANCH  16  17
ENDBRANCH   9  11
ENDBRANCH   3   6
BRANCH   1  19
ATOM     19  C   UNL     1       3.185   3.075  20.326  0.00  0.00    +0.000 C 
BRANCH  19  20
ATOM     20  C   UNL     1       4.223   2.077  19.815  0.00  0.00    +0.000 C 
ATOM     21  N   UNL     1       3.943   1.385  18.671  0.00  0.00    +0.000 N 
ATOM     22  O   UNL     1       5.263   1.839  20.429  0.00  0.00    +0.000 OA
ATOM     23  H   UNL     1       3.323   1.784  17.973  0.00  0.00    +0.000 HD
ATOM     24  H   UNL     1       4.678   0.777  18.331  0.00  0.00    +0.000 HD
ENDBRANCH  19  20
BRANCH  19  26
ATOM     25  C   UNL     1       1.240   2.650  21.916  0.00  0.00    +0.000 C 
ATOM     26  C   UNL     1       1.780   2.426  20.495  0.00  0.00    +0.000 C 
ATOM     27  C   UNL     1       0.752   2.981  19.501  0.00  0.00    +0.000 C 
ENDBRANCH  19  26
ENDBRANCH   1  19
TORSDOF 6
ENDMDL
MODEL 2
REMARK VINA RESULT:      -7.5      3.047      8.184
REMARK  Name = 
REMARK  8 active torsions:
REMARK  status: ('A' for Active; 'I' for Inactive)
REMARK    1  A    between atoms: C_1  and  C_2
REMARK    2  A    between atoms: C_2  and  C_3
REMARK    3  A    between atoms: C_2  and  C_4
REMARK    4  A    between atoms: C_4  and  C_5
REMARK    5  A    between atoms: C_4  and  N_8
REMARK    6  A    between atoms: C_10  and  C_11
REMARK    7  A    between atoms: C_14  and  C_15
REMARK    8  A    between atoms: C_20  and  C_21
REMARK                            x       y       z     vdW  Elec       q    Type
REMARK                         _______ _______ _______ _____ _____    ______ ____
ROOT
ATOM      1  N   UNL     1       0.855   9.686  19.746  0.00  0.00    +0.000 N 
ATOM      2  C   UNL     1       1.739   8.904  19.056  0.00  0.00    +0.000 A 
ATOM      3  C   UNL     1       1.867   7.780  19.838  0.00  0.00    +0.000 A 
ATOM      4  N   UNL     1       1.138   7.941  20.987  0.00  0.00    +0.000 NA
ATOM      5  N   UNL     1       0.533   9.124  20.930  0.00  0.00    +0.000 NA
ENDROOT
BRANCH   3   6
ATOM      6  C   UNL     1       2.642   6.565  19.481  0.00  0.00    +0.000 A 
ATOM      7  C   UNL     1       2.587   5.347  20.130  0.00  0.00    +0.000 A 
ATOM      8  C   UNL     1       3.467   4.474  19.440  0.00  0.00    +0.000 A 
ATOM      9  C   UNL     1       4.029   5.209  18.414  0.00  0.00    +0.000 A 
ATOM     10  O   UNL     1       3.521   6.476  18.438  0.00  0.00    +0.000 OA
BRANCH   9  11
ATOM     11  C   UNL     1       5.058   4.931  17.408  0.00  0.00    +0.000 A 
ATOM     12  C   UNL     1       4.640   4.631  16.096  0.00  0.00    +0.000 A 
ATOM     13  C   UNL     1       5.558   4.308  15.092  0.00  0.00    +0.000 A 
ATOM     14  C   UNL     1       6.919   4.293  15.373  0.00  0.00    +0.000 A 
ATOM     15  C   UNL     1       7.359   4.603  16.659  0.00  0.00    +0.000 A 
ATOM     16  C   UNL     1       6.442   4.919  17.679  0.00  0.00    +0.000 A 
BRANCH  16  17
ATOM     17  C   UNL     1       6.980   5.233  18.973  0.00  0.00    +0.000 C 
ATOM     18  N   UNL     1       7.442   5.523  20.003  0.00  0.00    +0.000 NA
ENDBRANCH  16  17
ENDBRANCH   9  11
ENDBRANCH   3   6
BRANCH   1  19
ATOM     19  C   UNL     1       0.195  10.899  19.282  0.00  0.00    +0.000 C 
BRANCH  19  20
ATOM     20  C   UNL     1       0.451  12.046  20.258  0.00  0.00    +0.000 C 
ATOM     21  N   UNL     1      -0.001  11.914  21.540  0.00  0.00    +0.000 N 
ATOM     22  O   UNL     1       0.991  13.096  19.911  0.00  0.00    +0.000 OA
ATOM     23  H   UNL     1      -0.107  10.991  21.951  0.00  0.00    +0.000 HD
ATOM     24  H   UNL     1       0.237  12.668  22.173  0.00  0.00    +0.000 HD
ENDBRANCH  19  20
BRANCH  19  26
ATOM     25  C   UNL     1      -2.015  12.092  18.853  0.00  0.00    +0.000 C 
ATOM     26  C   UNL     1      -1.319  10.726  18.963  0.00  0.00    +0.000 C 
ATOM     27  C   UNL     1      -1.561   9.961  17.655  0.00  0.00    +0.000 C 
ENDBRANCH  19  26
ENDBRANCH   1  19
TORSDOF 6
ENDMDL
MODEL 3
REMARK VINA RESULT:      -7.2      1.756      2.148
REMARK  Name = 
REMARK  8 active torsions:
REMARK  status: ('A' for Active; 'I' for Inactive)
REMARK    1  A    between atoms: C_1  and  C_2
REMARK    2  A    between atoms: C_2  and  C_3
REMARK    3  A    between atoms: C_2  and  C_4
REMARK    4  A    between atoms: C_4  and  C_5
REMARK    5  A    between atoms: C_4  and  N_8
REMARK    6  A    between atoms: C_10  and  C_11
REMARK    7  A    between atoms: C_14  and  C_15
REMARK    8  A    between atoms: C_20  and  C_21
REMARK                            x       y       z     vdW  Elec       q    Type
REMARK                         _______ _______ _______ _____ _____    ______ ____
ROOT
ATOM      1  N   UNL     1       2.957   4.348  19.813  0.00  0.00    +0.000 N 
ATOM      2  C   UNL     1       2.048   5.360  19.957  0.00  0.00    +0.000 A 
ATOM      3  C   UNL     1       2.686   6.456  19.424  0.00  0.00    +0.000 A 
ATOM      4  N   UNL     1       3.957   6.105  19.052  0.00  0.00    +0.000 NA
ATOM      5  N   UNL     1       4.122   4.811  19.312  0.00  0.00    +0.000 NA
ENDROOT
BRANCH   3   6
ATOM      6  C   UNL     1       2.083   7.800  19.242  0.00  0.00    +0.000 A 
ATOM      7  C   UNL     1       1.982   8.490  18.050  0.00  0.00    +0.000 A 
ATOM      8  C   UNL     1       1.320   9.712  18.337  0.00  0.00    +0.000 A 
ATOM      9  C   UNL     1       1.065   9.713  19.695  0.00  0.00    +0.000 A 
ATOM     10  O   UNL     1       1.524   8.548  20.240  0.00  0.00    +0.000 OA
BRANCH   9  11
ATOM     11  C   UNL     1       0.496  10.695  20.623  0.00  0.00    +0.000 A 
ATOM     12  C   UNL     1      -0.398  10.235  21.610  0.00  0.00    +0.000 A 
ATOM     13  C   UNL     1      -1.018  11.116  22.501  0.00  0.00    +0.000 A 
ATOM     14  C   UNL     1      -0.747  12.477  22.436  0.00  0.00    +0.000 A 
ATOM     15  C   UNL     1       0.148  12.955  21.479  0.00  0.00    +0.000 A 
ATOM     16  C   UNL     1       0.769  12.078  20.571  0.00  0.00    +0.000 A 
BRANCH  16  17
ATOM     17  C   UNL     1       1.682  12.652  19.622  0.00  0.00    +0.000 C 
ATOM     18  N   UNL     1       2.388  13.116  18.820  0.00  0.00    +0.000 NA
ENDBRANCH  16  17
ENDBRANCH   9  11
ENDBRANCH   3   6
BRANCH   1  19
ATOM     19  C   UNL     1       2.735   2.923  20.014  0.00  0.00    +0.000 C 
BRANCH  19  20
ATOM     20  C   UNL     1       4.013   2.256  20.521  0.00  0.00    +0.000 C 
ATOM     21  N   UNL     1       5.040   2.076  19.640  0.00  0.00    +0.000 N 
ATOM     22  O   UNL     1       4.119   1.828  21.671  0.00  0.00    +0.000 OA
ATOM     23  H   UNL     1       5.146   2.699  18.845  0.00  0.00    +0.000 HD
ATOM     24  H   UNL     1       5.891   1.684  20.025  0.00  0.00    +0.000 HD
ENDBRANCH  19  20
BRANCH  19  26
ATOM     25  C   UNL     1       0.602   2.212  18.817  0.00  0.00    +0.000 C 
ATOM     26  C   UNL     1       2.138   2.184  18.781  0.00  0.00    +0.000 C 
ATOM     27  C   UNL     1       2.595   2.795  17.450  0.00  0.00    +0.000 C 
ENDBRANCH  19  26
ENDBRANCH   1  19
TORSDOF 6
ENDMDL
MODEL 4
REMARK VINA RESULT:      -7.2      2.812      3.878
REMARK  Name = 
REMARK  8 active torsions:
REMARK  status: ('A' for Active; 'I' for Inactive)
REMARK    1  A    between atoms: C_1  and  C_2
REMARK    2  A    between atoms: C_2  and  C_3
REMARK    3  A    between atoms: C_2  and  C_4
REMARK    4  A    between atoms: C_4  and  C_5
REMARK    5  A    between atoms: C_4  and  N_8
REMARK    6  A    between atoms: C_10  and  C_11
REMARK    7  A    between atoms: C_14  and  C_15
REMARK    8  A    between atoms: C_20  and  C_21
REMARK                            x       y       z     vdW  Elec       q    Type
REMARK                         _______ _______ _______ _____ _____    ______ ____
ROOT
ATOM      1  N   UNL     1       4.559   5.113  17.923  0.00  0.00    +0.000 N 
ATOM      2  C   UNL     1       3.888   6.245  17.550  0.00  0.00    +0.000 A 
ATOM      3  C   UNL     1       3.160   6.581  18.667  0.00  0.00    +0.000 A 
ATOM      4  N   UNL     1       3.344   5.627  19.633  0.00  0.00    +0.000 NA
ATOM      5  N   UNL     1       4.192   4.718  19.160  0.00  0.00    +0.000 NA
ENDROOT
BRANCH   3   6
ATOM      6  C   UNL     1       2.333   7.804  18.822  0.00  0.00    +0.000 A 
ATOM      7  C   UNL     1       2.121   8.768  17.856  0.00  0.00    +0.000 A 
ATOM      8  C   UNL     1       1.255   9.737  18.425  0.00  0.00    +0.000 A 
ATOM      9  C   UNL     1       0.995   9.323  19.718  0.00  0.00    +0.000 A 
ATOM     10  O   UNL     1       1.646   8.146  19.953  0.00  0.00    +0.000 OA
BRANCH   9  11
ATOM     11  C   UNL     1       0.258   9.904  20.844  0.00  0.00    +0.000 A 
ATOM     12  C   UNL     1       0.400   9.304  22.111  0.00  0.00    +0.000 A 
ATOM     13  C   UNL     1      -0.306   9.770  23.223  0.00  0.00    +0.000 A 
ATOM     14  C   UNL     1      -1.160  10.859  23.099  0.00  0.00    +0.000 A 
ATOM     15  C   UNL     1      -1.305  11.481  21.860  0.00  0.00    +0.000 A 
ATOM     16  C   UNL     1      -0.607  11.013  20.731  0.00  0.00    +0.000 A 
BRANCH  16  17
ATOM     17  C   UNL     1      -0.808  11.716  19.495  0.00  0.00    +0.000 C 
ATOM     18  N   UNL     1      -1.018  12.286  18.502  0.00  0.00    +0.000 NA
ENDBRANCH  16  17
ENDBRANCH   9  11
ENDBRANCH   3   6
BRANCH   1  19
ATOM     19  C   UNL     1       5.636   4.444  17.205  0.00  0.00    +0.000 C 
BRANCH  19  20
ATOM     20  C   UNL     1       6.962   4.641  17.939  0.00  0.00    +0.000 C 
ATOM     21  N   UNL     1       6.943   5.290  19.141  0.00  0.00    +0.000 N 
ATOM     22  O   UNL     1       8.038   4.290  17.457  0.00  0.00    +0.000 OA
ATOM     23  H   UNL     1       6.109   5.266  19.720  0.00  0.00    +0.000 HD
ATOM     24  H   UNL     1       7.830   5.351  19.625  0.00  0.00    +0.000 HD
ENDBRANCH  19  20
BRANCH  19  26
ATOM     25  C   UNL     1       6.854   5.852  15.467  0.00  0.00    +0.000 C 
ATOM     26  C   UNL     1       5.737   4.822  15.699  0.00  0.00    +0.000 C 
ATOM     27  C   UNL     1       6.015   3.607  14.804  0.00  0.00    +0.000 C 
ENDBRANCH  19  26
ENDBRANCH   1  19
TORSDOF 6
ENDMDL
MODEL 5
REMARK VINA RESULT:      -7.2      2.262      3.077
REMARK  Name = 
REMARK  8 active torsions:
REMARK  status: ('A' for Active; 'I' for Inactive)
REMARK    1  A    between atoms: C_1  and  C_2
REMARK    2  A    between atoms: C_2  and  C_3
REMARK    3  A    between atoms: C_2  and  C_4
REMARK    4  A    between atoms: C_4  and  C_5
REMARK    5  A    between atoms: C_4  and  N_8
REMARK    6  A    between atoms: C_10  and  C_11
REMARK    7  A    between atoms: C_14  and  C_15
REMARK    8  A    between atoms: C_20  and  C_21
REMARK                            x       y       z     vdW  Elec       q    Type
REMARK                         _______ _______ _______ _____ _____    ______ ____
ROOT
ATOM      1  N   UNL     1       3.189   6.328  19.018  0.00  0.00    +0.000 N 
ATOM      2  C   UNL     1       2.294   7.240  19.506  0.00  0.00    +0.000 A 
ATOM      3  C   UNL     1       2.219   8.191  18.516  0.00  0.00    +0.000 A 
ATOM      4  N   UNL     1       3.103   7.879  17.517  0.00  0.00    +0.000 NA
ATOM      5  N   UNL     1       3.710   6.741  17.843  0.00  0.00    +0.000 NA
ENDROOT
BRANCH   3   6
ATOM      6  C   UNL     1       1.297   9.355  18.508  0.00  0.00    +0.000 A 
ATOM      7  C   UNL     1       1.560  10.603  19.038  0.00  0.00    +0.000 A 
ATOM      8  C   UNL     1       0.417  11.406  18.786  0.00  0.00    +0.000 A 
ATOM      9  C   UNL     1      -0.493  10.601  18.128  0.00  0.00    +0.000 A 
ATOM     10  O   UNL     1       0.046   9.358  17.956  0.00  0.00    +0.000 OA
BRANCH   9  11
ATOM     11  C   UNL     1      -1.873  10.789  17.671  0.00  0.00    +0.000 A 
ATOM     12  C   UNL     1      -2.251  10.207  16.444  0.00  0.00    +0.000 A 
ATOM     13  C   UNL     1      -3.534  10.381  15.918  0.00  0.00    +0.000 A 
ATOM     14  C   UNL     1      -4.477  11.128  16.614  0.00  0.00    +0.000 A 
ATOM     15  C   UNL     1      -4.133  11.699  17.838  0.00  0.00    +0.000 A 
ATOM     16  C   UNL     1      -2.840  11.539  18.372  0.00  0.00    +0.000 A 
BRANCH  16  17
ATOM     17  C   UNL     1      -2.572  12.155  19.641  0.00  0.00    +0.000 C 
ATOM     18  N   UNL     1      -2.312  12.632  20.672  0.00  0.00    +0.000 NA
ENDBRANCH  16  17
ENDBRANCH   9  11
ENDBRANCH   3   6
BRANCH   1  19
ATOM     19  C   UNL     1       3.492   5.008  19.555  0.00  0.00    +0.000 C 
BRANCH  19  20
ATOM     20  C   UNL     1       4.900   4.581  19.144  0.00  0.00    +0.000 C 
ATOM     21  N   UNL     1       5.029   3.677  18.128  0.00  0.00    +0.000 N 
ATOM     22  O   UNL     1       5.905   4.977  19.733  0.00  0.00    +0.000 OA
ATOM     23  H   UNL     1       4.313   3.610  17.410  0.00  0.00    +0.000 HD
ATOM     24  H   UNL     1       5.977   3.461  17.845  0.00  0.00    +0.000 HD
ENDBRANCH  19  20
BRANCH  19  26
ATOM     25  C   UNL     1       1.430   3.761  20.382  0.00  0.00    +0.000 C 
ATOM     26  C   UNL     1       2.429   3.920  19.225  0.00  0.00    +0.000 C 
ATOM     27  C   UNL     1       1.635   4.239  17.951  0.00  0.00    +0.000 C 
ENDBRANCH  19  26
ENDBRANCH   1  19
TORSDOF 6
ENDMDL
MODEL 6
REMARK VINA RESULT:      -7.1      3.166      8.173
REMARK  Name = 
REMARK  8 active torsions:
REMARK  status: ('A' for Active; 'I' for Inactive)
REMARK    1  A    between atoms: C_1  and  C_2
REMARK    2  A    between atoms: C_2  and  C_3
REMARK    3  A    between atoms: C_2  and  C_4
REMARK    4  A    between atoms: C_4  and  C_5
REMARK    5  A    between atoms: C_4  and  N_8
REMARK    6  A    between atoms: C_10  and  C_11
REMARK    7  A    between atoms: C_14  and  C_15
REMARK    8  A    between atoms: C_20  and  C_21
REMARK                            x       y       z     vdW  Elec       q    Type
REMARK                         _______ _______ _______ _____ _____    ______ ____
ROOT
ATOM      1  N   UNL     1       0.844   9.719  19.964  0.00  0.00    +0.000 N 
ATOM      2  C   UNL     1       1.587   8.888  19.171  0.00  0.00    +0.000 A 
ATOM      3  C   UNL     1       1.911   7.841  20.001  0.00  0.00    +0.000 A 
ATOM      4  N   UNL     1       1.434   8.096  21.261  0.00  0.00    +0.000 NA
ATOM      5  N   UNL     1       0.795   9.262  21.233  0.00  0.00    +0.000 NA
ENDROOT
BRANCH   3   6
ATOM      6  C   UNL     1       2.630   6.608  19.593  0.00  0.00    +0.000 A 
ATOM      7  C   UNL     1       2.513   5.366  20.186  0.00  0.00    +0.000 A 
ATOM      8  C   UNL     1       3.356   4.484  19.462  0.00  0.00    +0.000 A 
ATOM      9  C   UNL     1       3.958   5.237  18.473  0.00  0.00    +0.000 A 
ATOM     10  O   UNL     1       3.511   6.525  18.551  0.00  0.00    +0.000 OA
BRANCH   9  11
ATOM     11  C   UNL     1       4.981   4.956  17.460  0.00  0.00    +0.000 A 
ATOM     12  C   UNL     1       4.554   4.659  16.150  0.00  0.00    +0.000 A 
ATOM     13  C   UNL     1       5.464   4.334  15.141  0.00  0.00    +0.000 A 
ATOM     14  C   UNL     1       6.827   4.313  15.414  0.00  0.00    +0.000 A 
ATOM     15  C   UNL     1       7.276   4.621  16.697  0.00  0.00    +0.000 A 
ATOM     16  C   UNL     1       6.366   4.939  17.723  0.00  0.00    +0.000 A 
BRANCH  16  17
ATOM     17  C   UNL     1       6.913   5.250  19.014  0.00  0.00    +0.000 C 
ATOM     18  N   UNL     1       7.400   5.487  20.046  0.00  0.00    +0.000 NA
ENDBRANCH  16  17
ENDBRANCH   9  11
ENDBRANCH   3   6
BRANCH   1  19
ATOM     19  C   UNL     1       0.064  10.877  19.548  0.00  0.00    +0.000 C 
BRANCH  19  20
ATOM     20  C   UNL     1      -1.057  10.447  18.603  0.00  0.00    +0.000 C 
ATOM     21  N   UNL     1      -0.716   9.995  17.361  0.00  0.00    +0.000 N 
ATOM     22  O   UNL     1      -2.246  10.551  18.905  0.00  0.00    +0.000 OA
ATOM     23  H   UNL     1       0.190   9.563  17.206  0.00  0.00    +0.000 HD
ATOM     24  H   UNL     1      -1.480   9.665  16.784  0.00  0.00    +0.000 HD
ENDBRANCH  19  20
BRANCH  19  26
ATOM     25  C   UNL     1       0.007  13.213  18.534  0.00  0.00    +0.000 C 
ATOM     26  C   UNL     1       0.910  12.045  18.961  0.00  0.00    +0.000 C 
ATOM     27  C   UNL     1       1.945  12.582  19.959  0.00  0.00    +0.000 C 
ENDBRANCH  19  26
ENDBRANCH   1  19
TORSDOF 6
ENDMDL
MODEL 7
REMARK VINA RESULT:      -7.1      2.975      4.136
REMARK  Name = 
REMARK  8 active torsions:
REMARK  status: ('A' for Active; 'I' for Inactive)
REMARK    1  A    between atoms: C_1  and  C_2
REMARK    2  A    between atoms: C_2  and  C_3
REMARK    3  A    between atoms: C_2  and  C_4
REMARK    4  A    between atoms: C_4  and  C_5
REMARK    5  A    between atoms: C_4  and  N_8
REMARK    6  A    between atoms: C_10  and  C_11
REMARK    7  A    between atoms: C_14  and  C_15
REMARK    8  A    between atoms: C_20  and  C_21
REMARK                            x       y       z     vdW  Elec       q    Type
REMARK                         _______ _______ _______ _____ _____    ______ ____
ROOT
ATOM      1  N   UNL     1       4.778   5.976  18.009  0.00  0.00    +0.000 N 
ATOM      2  C   UNL     1       4.014   7.045  17.627  0.00  0.00    +0.000 A 
ATOM      3  C   UNL     1       3.082   7.160  18.632  0.00  0.00    +0.000 A 
ATOM      4  N   UNL     1       3.253   6.140  19.530  0.00  0.00    +0.000 NA
ATOM      5  N   UNL     1       4.287   5.406  19.129  0.00  0.00    +0.000 NA
ENDROOT
BRANCH   3   6
ATOM      6  C   UNL     1       2.071   8.242  18.750  0.00  0.00    +0.000 A 
ATOM      7  C   UNL     1       1.558   8.991  17.709  0.00  0.00    +0.000 A 
ATOM      8  C   UNL     1       0.611   9.884  18.274  0.00  0.00    +0.000 A 
ATOM      9  C   UNL     1       0.607   9.646  19.635  0.00  0.00    +0.000 A 
ATOM     10  O   UNL     1       1.490   8.645  19.920  0.00  0.00    +0.000 OA
BRANCH   9  11
ATOM     11  C   UNL     1      -0.068  10.273  20.775  0.00  0.00    +0.000 A 
ATOM     12  C   UNL     1      -0.100   9.570  21.996  0.00  0.00    +0.000 A 
ATOM     13  C   UNL     1      -0.765  10.079  23.115  0.00  0.00    +0.000 A 
ATOM     14  C   UNL     1      -1.401  11.312  23.045  0.00  0.00    +0.000 A 
ATOM     15  C   UNL     1      -1.368  12.036  21.854  0.00  0.00    +0.000 A 
ATOM     16  C   UNL     1      -0.711  11.527  20.718  0.00  0.00    +0.000 A 
BRANCH  16  17
ATOM     17  C   UNL     1      -0.720  12.340  19.534  0.00  0.00    +0.000 C 
ATOM     18  N   UNL     1      -0.771  13.013  18.585  0.00  0.00    +0.000 NA
ENDBRANCH  16  17
ENDBRANCH   9  11
ENDBRANCH   3   6
BRANCH   1  19
ATOM     19  C   UNL     1       6.038   5.536  17.427  0.00  0.00    +0.000 C 
BRANCH  19  20
ATOM     20  C   UNL     1       7.156   6.515  17.784  0.00  0.00    +0.000 C 
ATOM     21  N   UNL     1       7.314   7.624  17.004  0.00  0.00    +0.000 N 
ATOM     22  O   UNL     1       7.944   6.304  18.705  0.00  0.00    +0.000 OA
ATOM     23  H   UNL     1       6.521   8.014  16.503  0.00  0.00    +0.000 HD
ATOM     24  H   UNL     1       8.026   8.279  17.304  0.00  0.00    +0.000 HD
ENDBRANCH  19  20
BRANCH  19  26
ATOM     25  C   UNL     1       7.320   4.707  15.387  0.00  0.00    +0.000 C 
ATOM     26  C   UNL     1       5.976   5.248  15.898  0.00  0.00    +0.000 C 
ATOM     27  C   UNL     1       4.884   4.234  15.534  0.00  0.00    +0.000 C 
ENDBRANCH  19  26
ENDBRANCH   1  19
TORSDOF 6
ENDMDL
MODEL 8
REMARK VINA RESULT:      -7.1      2.227      2.864
REMARK  Name = 
REMARK  8 active torsions:
REMARK  status: ('A' for Active; 'I' for Inactive)
REMARK    1  A    between atoms: C_1  and  C_2
REMARK    2  A    between atoms: C_2  and  C_3
REMARK    3  A    between atoms: C_2  and  C_4
REMARK    4  A    between atoms: C_4  and  C_5
REMARK    5  A    between atoms: C_4  and  N_8
REMARK    6  A    between atoms: C_10  and  C_11
REMARK    7  A    between atoms: C_14  and  C_15
REMARK    8  A    between atoms: C_20  and  C_21
REMARK                            x       y       z     vdW  Elec       q    Type
REMARK                         _______ _______ _______ _____ _____    ______ ____
ROOT
ATOM      1  N   UNL     1       4.473   5.715  18.295  0.00  0.00    +0.000 N 
ATOM      2  C   UNL     1       3.472   6.333  18.994  0.00  0.00    +0.000 A 
ATOM      3  C   UNL     1       3.153   7.423  18.219  0.00  0.00    +0.000 A 
ATOM      4  N   UNL     1       3.997   7.478  17.141  0.00  0.00    +0.000 NA
ATOM      5  N   UNL     1       4.818   6.434  17.206  0.00  0.00    +0.000 NA
ENDROOT
BRANCH   3   6
ATOM      6  C   UNL     1       2.042   8.372  18.483  0.00  0.00    +0.000 A 
ATOM      7  C   UNL     1       1.276   9.011  17.529  0.00  0.00    +0.000 A 
ATOM      8  C   UNL     1       0.324   9.799  18.226  0.00  0.00    +0.000 A 
ATOM      9  C   UNL     1       0.569   9.614  19.573  0.00  0.00    +0.000 A 
ATOM     10  O   UNL     1       1.609   8.743  19.726  0.00  0.00    +0.000 OA
BRANCH   9  11
ATOM     11  C   UNL     1       0.011  10.193  20.799  0.00  0.00    +0.000 A 
ATOM     12  C   UNL     1      -0.182   9.344  21.907  0.00  0.00    +0.000 A 
ATOM     13  C   UNL     1      -0.753   9.811  23.094  0.00  0.00    +0.000 A 
ATOM     14  C   UNL     1      -1.132  11.143  23.207  0.00  0.00    +0.000 A 
ATOM     15  C   UNL     1      -0.936  12.007  22.131  0.00  0.00    +0.000 A 
ATOM     16  C   UNL     1      -0.372  11.545  20.928  0.00  0.00    +0.000 A 
BRANCH  16  17
ATOM     17  C   UNL     1      -0.199  12.503  19.872  0.00  0.00    +0.000 C 
ATOM     18  N   UNL     1      -0.013  13.267  19.013  0.00  0.00    +0.000 NA
ENDBRANCH  16  17
ENDBRANCH   9  11
ENDBRANCH   3   6
BRANCH   1  19
ATOM     19  C   UNL     1       5.044   4.398  18.543  0.00  0.00    +0.000 C 
BRANCH  19  20
ATOM     20  C   UNL     1       6.382   4.258  17.817  0.00  0.00    +0.000 C 
ATOM     21  N   UNL     1       6.367   3.866  16.509  0.00  0.00    +0.000 N 
ATOM     22  O   UNL     1       7.460   4.427  18.386  0.00  0.00    +0.000 OA
ATOM     23  H   UNL     1       5.559   4.065  15.926  0.00  0.00    +0.000 HD
ATOM     24  H   UNL     1       7.266   3.840  16.044  0.00  0.00    +0.000 HD
ENDBRANCH  19  20
BRANCH  19  26
ATOM     25  C   UNL     1       3.486   2.645  19.536  0.00  0.00    +0.000 C 
ATOM     26  C   UNL     1       4.084   3.212  18.239  0.00  0.00    +0.000 C 
ATOM     27  C   UNL     1       2.926   3.614  17.315  0.00  0.00    +0.000 C 
ENDBRANCH  19  26
ENDBRANCH   1  19
TORSDOF 6
ENDMDL
MODEL 9
REMARK VINA RESULT:      -7.1      2.074      2.644
REMARK  Name = 
REMARK  8 active torsions:
REMARK  status: ('A' for Active; 'I' for Inactive)
REMARK    1  A    between atoms: C_1  and  C_2
REMARK    2  A    between atoms: C_2  and  C_3
REMARK    3  A    between atoms: C_2  and  C_4
REMARK    4  A    between atoms: C_4  and  C_5
REMARK    5  A    between atoms: C_4  and  N_8
REMARK    6  A    between atoms: C_10  and  C_11
REMARK    7  A    between atoms: C_14  and  C_15
REMARK    8  A    between atoms: C_20  and  C_21
REMARK                            x       y       z     vdW  Elec       q    Type
REMARK                         _______ _______ _______ _____ _____    ______ ____
ROOT
ATOM      1  N   UNL     1       3.208   5.972  19.155  0.00  0.00    +0.000 N 
ATOM      2  C   UNL     1       2.331   6.844  19.741  0.00  0.00    +0.000 A 
ATOM      3  C   UNL     1       2.259   7.888  18.850  0.00  0.00    +0.000 A 
ATOM      4  N   UNL     1       3.129   7.664  17.815  0.00  0.00    +0.000 NA
ATOM      5  N   UNL     1       3.722   6.491  18.020  0.00  0.00    +0.000 NA
ENDROOT
BRANCH   3   6
ATOM      6  C   UNL     1       1.355   9.060  18.966  0.00  0.00    +0.000 A 
ATOM      7  C   UNL     1       0.655   9.652  17.934  0.00  0.00    +0.000 A 
ATOM      8  C   UNL     1      -0.095  10.714  18.501  0.00  0.00    +0.000 A 
ATOM      9  C   UNL     1       0.199  10.728  19.851  0.00  0.00    +0.000 A 
ATOM     10  O   UNL     1       1.075   9.719  20.131  0.00  0.00    +0.000 OA
BRANCH   9  11
ATOM     11  C   UNL     1      -0.168  11.610  20.963  0.00  0.00    +0.000 A 
ATOM     12  C   UNL     1      -0.999  11.090  21.976  0.00  0.00    +0.000 A 
ATOM     13  C   UNL     1      -1.431  11.881  23.044  0.00  0.00    +0.000 A 
ATOM     14  C   UNL     1      -1.030  13.209  23.134  0.00  0.00    +0.000 A 
ATOM     15  C   UNL     1      -0.193  13.742  22.154  0.00  0.00    +0.000 A 
ATOM     16  C   UNL     1       0.239  12.956  21.068  0.00  0.00    +0.000 A 
BRANCH  16  17
ATOM     17  C   UNL     1       1.104  13.581  20.108  0.00  0.00    +0.000 C 
ATOM     18  N   UNL     1       1.780  14.127  19.332  0.00  0.00    +0.000 NA
ENDBRANCH  16  17
ENDBRANCH   9  11
ENDBRANCH   3   6
BRANCH   1  19
ATOM     19  C   UNL     1       3.496   4.602  19.557  0.00  0.00    +0.000 C 
BRANCH  19  20
ATOM     20  C   UNL     1       4.833   4.150  18.972  0.00  0.00    +0.000 C 
ATOM     21  N   UNL     1       4.817   3.365  17.855  0.00  0.00    +0.000 N 
ATOM     22  O   UNL     1       5.909   4.421  19.506  0.00  0.00    +0.000 OA
ATOM     23  H   UNL     1       4.039   3.422  17.203  0.00  0.00    +0.000 HD
ATOM     24  H   UNL     1       5.721   3.134  17.462  0.00  0.00    +0.000 HD
ENDBRANCH  19  20
BRANCH  19  26
ATOM     25  C   UNL     1       1.410   3.454  20.462  0.00  0.00    +0.000 C 
ATOM     26  C   UNL     1       2.353   3.589  19.257  0.00  0.00    +0.000 C 
ATOM     27  C   UNL     1       1.513   3.993  18.037  0.00  0.00    +0.000 C 
ENDBRANCH  19  26
ENDBRANCH   1  19
TORSDOF 6
ENDMDL
