MODEL 1
REMARK VINA RESULT:      -6.6      0.000      0.000
REMARK  Name = 
REMARK  8 active torsions:
REMARK  status: ('A' for Active; 'I' for Inactive)
REMARK    1  A    between atoms: C_1  and  C_2
REMARK    2  A    between atoms: C_2  and  C_3
REMARK    3  A    between atoms: C_2  and  N_4
REMARK    4  A    between atoms: N_7  and  C_8
REMARK    5  A    between atoms: N_7  and  C_27
REMARK    6  A    between atoms: C_8  and  C_9
REMARK    7  A    between atoms: C_10  and  C_11
REMARK    8  A    between atoms: C_20  and  N_21
REMARK                            x       y       z     vdW  Elec       q    Type
REMARK                         _______ _______ _______ _____ _____    ______ ____
ROOT
ATOM      1  C   UNL     1      -3.442  12.788  21.624  0.00  0.00    +0.000 A 
ATOM      2  C   UNL     1      -2.166  12.160  21.877  0.00  0.00    +0.000 A 
ATOM      3  N   UNL     1      -2.088  11.796  23.164  0.00  0.00    +0.000 NA
ATOM      4  O   UNL     1      -3.245  12.225  23.769  0.00  0.00    +0.000 OA
ATOM      5  C   UNL     1      -4.050  12.864  22.870  0.00  0.00    +0.000 A 
ENDROOT
BRANCH   2   6
ATOM      6  C   UNL     1      -1.025  11.979  20.965  0.00  0.00    +0.000 A 
ATOM      7  C   UNL     1      -0.529  10.704  20.649  0.00  0.00    +0.000 A 
ATOM      8  C   UNL     1       0.391  10.518  19.611  0.00  0.00    +0.000 A 
ATOM      9  C   UNL     1       0.895  11.613  18.919  0.00  0.00    +0.000 A 
ATOM     10  C   UNL     1       0.490  12.895  19.280  0.00  0.00    +0.000 A 
ATOM     11  C   UNL     1      -0.463  13.073  20.287  0.00  0.00    +0.000 A 
ATOM     12  F   UNL     1      -0.868  14.327  20.535  0.00  0.00    +0.000 F 
ENDBRANCH   2   6
BRANCH   5  13
ATOM     13  N   UNL     1      -5.228  13.390  23.326  0.00  0.00    +0.000 N 
ATOM     14  C   UNL     1      -6.120  12.579  24.185  0.00  0.00    +0.000 C 
ATOM     15  C   UNL     1      -7.568  13.094  24.039  0.00  0.00    +0.000 C 
ATOM     16  O   UNL     1      -7.681  14.500  24.324  0.00  0.00    +0.000 OA
ATOM     17  C   UNL     1      -6.805  15.256  23.478  0.00  0.00    +0.000 C 
ATOM     18  C   UNL     1      -5.348  14.819  23.671  0.00  0.00    +0.000 C 
ENDBRANCH   5  13
BRANCH   1  19
ATOM     19  C   UNL     1      -3.991  13.290  20.333  0.00  0.00    +0.000 C 
BRANCH  19  23
ATOM     20  N   UNL     1      -3.115  11.961  18.030  0.00  0.00    +0.000 N 
ATOM     21  C   UNL     1      -4.403  11.689  18.433  0.00  0.00    +0.000 C 
ATOM     22  O   UNL     1      -5.073  10.852  17.830  0.00  0.00    +0.000 OA
ATOM     23  N   UNL     1      -4.840  12.328  19.598  0.00  0.00    +0.000 N 
ATOM     24  H   UNL     1      -2.789  12.906  18.156  0.00  0.00    +0.000 HD
BRANCH  20  26
ATOM     25  C   UNL     1      -2.132   9.756  17.387  0.00  0.00    +0.000 C 
ATOM     26  C   UNL     1      -2.444  11.197  16.972  0.00  0.00    +0.000 C 
ATOM     27  C   UNL     1      -3.190  11.230  15.641  0.00  0.00    +0.000 C 
ENDBRANCH  20  26
BRANCH  23  28
ATOM     28  C   UNL     1      -6.083  11.903  20.240  0.00  0.00    +0.000 C 
ATOM     29  C   UNL     1      -7.273  12.826  20.343  0.00  0.00    +0.000 C 
ATOM     30  C   UNL     1      -7.377  11.565  19.548  0.00  0.00    +0.000 C 
ENDBRANCH  23  28
ENDBRANCH  19  23
ENDBRANCH   1  19
TORSDOF 6
ENDMDL
MODEL 2
REMARK VINA RESULT:      -6.4      1.642      3.361
REMARK  Name = 
REMARK  8 active torsions:
REMARK  status: ('A' for Active; 'I' for Inactive)
REMARK    1  A    between atoms: C_1  and  C_2
REMARK    2  A    between atoms: C_2  and  C_3
REMARK    3  A    between atoms: C_2  and  N_4
REMARK    4  A    between atoms: N_7  and  C_8
REMARK    5  A    between atoms: N_7  and  C_27
REMARK    6  A    between atoms: C_8  and  C_9
REMARK    7  A    between atoms: C_10  and  C_11
REMARK    8  A    between atoms: C_20  and  N_21
REMARK                            x       y       z     vdW  Elec       q    Type
REMARK                         _______ _______ _______ _____ _____    ______ ____
ROOT
ATOM      1  C   UNL     1      -1.569  12.017  20.579  0.00  0.00    +0.000 A 
ATOM      2  C   UNL     1      -0.383  11.248  20.873  0.00  0.00    +0.000 A 
ATOM      3  N   UNL     1      -0.233  11.137  22.200  0.00  0.00    +0.000 NA
ATOM      4  O   UNL     1      -1.247  11.863  22.777  0.00  0.00    +0.000 OA
ATOM      5  C   UNL     1      -2.032  12.437  21.819  0.00  0.00    +0.000 A 
ENDROOT
BRANCH   2   6
ATOM      6  C   UNL     1       0.623  10.703  19.946  0.00  0.00    +0.000 A 
ATOM      7  C   UNL     1       0.860   9.323  19.845  0.00  0.00    +0.000 A 
ATOM      8  C   UNL     1       1.637   8.793  18.808  0.00  0.00    +0.000 A 
ATOM      9  C   UNL     1       2.256   9.640  17.895  0.00  0.00    +0.000 A 
ATOM     10  C   UNL     1       2.113  11.017  18.034  0.00  0.00    +0.000 A 
ATOM     11  C   UNL     1       1.300  11.540  19.044  0.00  0.00    +0.000 A 
ATOM     12  F   UNL     1       1.141  12.871  19.078  0.00  0.00    +0.000 F 
ENDBRANCH   2   6
BRANCH   5  13
ATOM     13  N   UNL     1      -3.068  13.232  22.231  0.00  0.00    +0.000 N 
ATOM     14  C   UNL     1      -3.912  12.816  23.374  0.00  0.00    +0.000 C 
ATOM     15  C   UNL     1      -5.300  13.480  23.243  0.00  0.00    +0.000 C 
ATOM     16  O   UNL     1      -5.214  14.913  23.132  0.00  0.00    +0.000 OA
ATOM     17  C   UNL     1      -4.389  15.282  22.020  0.00  0.00    +0.000 C 
ATOM     18  C   UNL     1      -2.977  14.703  22.173  0.00  0.00    +0.000 C 
ENDBRANCH   5  13
BRANCH   1  19
ATOM     19  C   UNL     1      -2.162  12.340  19.251  0.00  0.00    +0.000 C 
BRANCH  19  23
ATOM     20  N   UNL     1      -4.877  13.020  19.282  0.00  0.00    +0.000 N 
ATOM     21  C   UNL     1      -4.576  11.751  18.840  0.00  0.00    +0.000 C 
ATOM     22  O   UNL     1      -5.470  11.015  18.425  0.00  0.00    +0.000 OA
ATOM     23  N   UNL     1      -3.220  11.412  18.796  0.00  0.00    +0.000 N 
ATOM     24  H   UNL     1      -4.313  13.387  20.033  0.00  0.00    +0.000 HD
BRANCH  20  26
ATOM     25  C   UNL     1      -6.711  13.672  17.716  0.00  0.00    +0.000 C 
ATOM     26  C   UNL     1      -6.222  13.595  19.165  0.00  0.00    +0.000 C 
ATOM     27  C   UNL     1      -7.253  12.898  20.049  0.00  0.00    +0.000 C 
ENDBRANCH  20  26
BRANCH  23  28
ATOM     28  C   UNL     1      -2.794  10.199  18.100  0.00  0.00    +0.000 C 
ATOM     29  C   UNL     1      -2.910  10.068  16.601  0.00  0.00    +0.000 C 
ATOM     30  C   UNL     1      -1.564  10.042  17.246  0.00  0.00    +0.000 C 
ENDBRANCH  23  28
ENDBRANCH  19  23
ENDBRANCH   1  19
TORSDOF 6
ENDMDL
MODEL 3
REMARK VINA RESULT:      -6.4      3.696      6.469
REMARK  Name = 
REMARK  8 active torsions:
REMARK  status: ('A' for Active; 'I' for Inactive)
REMARK    1  A    between atoms: C_1  and  C_2
REMARK    2  A    between atoms: C_2  and  C_3
REMARK    3  A    between atoms: C_2  and  N_4
REMARK    4  A    between atoms: N_7  and  C_8
REMARK    5  A    between atoms: N_7  and  C_27
REMARK    6  A    between atoms: C_8  and  C_9
REMARK    7  A    between atoms: C_10  and  C_11
REMARK    8  A    between atoms: C_20  and  N_21
REMARK                            x       y       z     vdW  Elec       q    Type
REMARK                         _______ _______ _______ _____ _____    ______ ____
ROOT
ATOM      1  C   UNL     1       0.566  13.504  19.701  0.00  0.00    +0.000 A 
ATOM      2  C   UNL     1       0.994  12.634  20.771  0.00  0.00    +0.000 A 
ATOM      3  N   UNL     1       2.036  13.180  21.410  0.00  0.00    +0.000 NA
ATOM      4  O   UNL     1       2.340  14.347  20.749  0.00  0.00    +0.000 OA
ATOM      5  C   UNL     1       1.498  14.535  19.692  0.00  0.00    +0.000 A 
ENDROOT
BRANCH   2   6
ATOM      6  C   UNL     1       0.495  11.297  21.134  0.00  0.00    +0.000 A 
ATOM      7  C   UNL     1       0.911  10.145  20.447  0.00  0.00    +0.000 A 
ATOM      8  C   UNL     1       0.626   8.864  20.936  0.00  0.00    +0.000 A 
ATOM      9  C   UNL     1      -0.149   8.710  22.080  0.00  0.00    +0.000 A 
ATOM     10  C   UNL     1      -0.653   9.837  22.722  0.00  0.00    +0.000 A 
ATOM     11  C   UNL     1      -0.328  11.114  22.256  0.00  0.00    +0.000 A 
ATOM     12  F   UNL     1      -0.781  12.160  22.963  0.00  0.00    +0.000 F 
ENDBRANCH   2   6
BRANCH   5  13
ATOM     13  N   UNL     1       1.695  15.635  18.902  0.00  0.00    +0.000 N 
ATOM     14  C   UNL     1       0.837  16.830  19.068  0.00  0.00    +0.000 C 
ATOM     15  C   UNL     1       0.810  17.620  17.742  0.00  0.00    +0.000 C 
ATOM     16  O   UNL     1       2.129  17.965  17.282  0.00  0.00    +0.000 OA
ATOM     17  C   UNL     1       2.934  16.788  17.134  0.00  0.00    +0.000 C 
ATOM     18  C   UNL     1       3.046  16.033  18.464  0.00  0.00    +0.000 C 
ENDBRANCH   5  13
BRANCH   1  19
ATOM     19  C   UNL     1      -0.587  13.338  18.772  0.00  0.00    +0.000 C 
BRANCH  19  23
ATOM     20  N   UNL     1      -2.237  14.722  20.561  0.00  0.00    +0.000 N 
ATOM     21  C   UNL     1      -2.597  13.421  20.288  0.00  0.00    +0.000 C 
ATOM     22  O   UNL     1      -3.629  12.954  20.766  0.00  0.00    +0.000 OA
ATOM     23  N   UNL     1      -1.793  12.731  19.374  0.00  0.00    +0.000 N 
ATOM     24  H   UNL     1      -1.250  14.919  20.613  0.00  0.00    +0.000 HD
BRANCH  20  26
ATOM     25  C   UNL     1      -2.402  16.270  22.514  0.00  0.00    +0.000 C 
ATOM     26  C   UNL     1      -3.105  15.638  21.309  0.00  0.00    +0.000 C 
ATOM     27  C   UNL     1      -3.748  16.709  20.432  0.00  0.00    +0.000 C 
ENDBRANCH  20  26
BRANCH  23  28
ATOM     28  C   UNL     1      -2.244  11.452  18.829  0.00  0.00    +0.000 C 
ATOM     29  C   UNL     1      -2.699  11.323  17.395  0.00  0.00    +0.000 C 
ATOM     30  C   UNL     1      -1.492  10.577  17.860  0.00  0.00    +0.000 C 
ENDBRANCH  23  28
ENDBRANCH  19  23
ENDBRANCH   1  19
TORSDOF 6
ENDMDL
MODEL 4
REMARK VINA RESULT:      -6.4      2.351      4.691
REMARK  Name = 
REMARK  8 active torsions:
REMARK  status: ('A' for Active; 'I' for Inactive)
REMARK    1  A    between atoms: C_1  and  C_2
REMARK    2  A    between atoms: C_2  and  C_3
REMARK    3  A    between atoms: C_2  and  N_4
REMARK    4  A    between atoms: N_7  and  C_8
REMARK    5  A    between atoms: N_7  and  C_27
REMARK    6  A    between atoms: C_8  and  C_9
REMARK    7  A    between atoms: C_10  and  C_11
REMARK    8  A    between atoms: C_20  and  N_21
REMARK                            x       y       z     vdW  Elec       q    Type
REMARK                         _______ _______ _______ _____ _____    ______ ____
ROOT
ATOM      1  C   UNL     1      -3.434  12.834  20.069  0.00  0.00    +0.000 A 
ATOM      2  C   UNL     1      -4.117  11.993  19.115  0.00  0.00    +0.000 A 
ATOM      3  N   UNL     1      -5.374  11.775  19.523  0.00  0.00    +0.000 NA
ATOM      4  O   UNL     1      -5.509  12.394  20.744  0.00  0.00    +0.000 OA
ATOM      5  C   UNL     1      -4.340  12.996  21.109  0.00  0.00    +0.000 A 
ENDROOT
BRANCH   2   6
ATOM      6  C   UNL     1      -3.589  11.348  17.902  0.00  0.00    +0.000 A 
ATOM      7  C   UNL     1      -2.524  10.435  17.958  0.00  0.00    +0.000 A 
ATOM      8  C   UNL     1      -2.179   9.651  16.851  0.00  0.00    +0.000 A 
ATOM      9  C   UNL     1      -2.843   9.820  15.641  0.00  0.00    +0.000 A 
ATOM     10  C   UNL     1      -3.838  10.788  15.536  0.00  0.00    +0.000 A 
ATOM     11  C   UNL     1      -4.209  11.537  16.657  0.00  0.00    +0.000 A 
ATOM     12  F   UNL     1      -5.226  12.399  16.510  0.00  0.00    +0.000 F 
ENDBRANCH   2   6
BRANCH   5  13
ATOM     13  N   UNL     1      -4.294  13.624  22.324  0.00  0.00    +0.000 N 
ATOM     14  C   UNL     1      -5.104  14.841  22.561  0.00  0.00    +0.000 C 
ATOM     15  C   UNL     1      -4.442  15.679  23.675  0.00  0.00    +0.000 C 
ATOM     16  O   UNL     1      -4.242  14.923  24.884  0.00  0.00    +0.000 OA
ATOM     17  C   UNL     1      -3.459  13.753  24.621  0.00  0.00    +0.000 C 
ATOM     18  C   UNL     1      -4.142  12.861  23.578  0.00  0.00    +0.000 C 
ENDBRANCH   5  13
BRANCH   1  19
ATOM     19  C   UNL     1      -2.051  13.385  20.000  0.00  0.00    +0.000 C 
BRANCH  19  23
ATOM     20  N   UNL     1      -0.610  11.095  20.718  0.00  0.00    +0.000 N 
ATOM     21  C   UNL     1      -0.582  12.135  21.620  0.00  0.00    +0.000 C 
ATOM     22  O   UNL     1       0.105  12.051  22.637  0.00  0.00    +0.000 OA
ATOM     23  N   UNL     1      -1.277  13.293  21.257  0.00  0.00    +0.000 N 
ATOM     24  H   UNL     1      -1.474  10.946  20.222  0.00  0.00    +0.000 HD
BRANCH  20  26
ATOM     25  C   UNL     1      -0.445   8.743  21.544  0.00  0.00    +0.000 C 
ATOM     26  C   UNL     1       0.254   9.916  20.850  0.00  0.00    +0.000 C 
ATOM     27  C   UNL     1       0.873   9.473  19.527  0.00  0.00    +0.000 C 
ENDBRANCH  20  26
BRANCH  23  28
ATOM     28  C   UNL     1      -1.087  14.526  22.019  0.00  0.00    +0.000 C 
ATOM     29  C   UNL     1       0.028  15.491  21.693  0.00  0.00    +0.000 C 
ATOM     30  C   UNL     1      -1.394  15.924  21.551  0.00  0.00    +0.000 C 
ENDBRANCH  23  28
ENDBRANCH  19  23
ENDBRANCH   1  19
TORSDOF 6
ENDMDL
MODEL 5
REMARK VINA RESULT:      -6.3      3.568      7.320
REMARK  Name = 
REMARK  8 active torsions:
REMARK  status: ('A' for Active; 'I' for Inactive)
REMARK    1  A    between atoms: C_1  and  C_2
REMARK    2  A    between atoms: C_2  and  C_3
REMARK    3  A    between atoms: C_2  and  N_4
REMARK    4  A    between atoms: N_7  and  C_8
REMARK    5  A    between atoms: N_7  and  C_27
REMARK    6  A    between atoms: C_8  and  C_9
REMARK    7  A    between atoms: C_10  and  C_11
REMARK    8  A    between atoms: C_20  and  N_21
REMARK                            x       y       z     vdW  Elec       q    Type
REMARK                         _______ _______ _______ _____ _____    ______ ____
ROOT
ATOM      1  C   UNL     1       0.454   9.545  20.832  0.00  0.00    +0.000 A 
ATOM      2  C   UNL     1       0.272  10.252  22.078  0.00  0.00    +0.000 A 
ATOM      3  N   UNL     1       1.089   9.745  23.010  0.00  0.00    +0.000 NA
ATOM      4  O   UNL     1       1.750   8.689  22.427  0.00  0.00    +0.000 OA
ATOM      5  C   UNL     1       1.347   8.524  21.134  0.00  0.00    +0.000 A 
ENDROOT
BRANCH   2   6
ATOM      6  C   UNL     1      -0.692  11.314  22.408  0.00  0.00    +0.000 A 
ATOM      7  C   UNL     1      -1.909  11.031  23.050  0.00  0.00    +0.000 A 
ATOM      8  C   UNL     1      -2.711  12.052  23.571  0.00  0.00    +0.000 A 
ATOM      9  C   UNL     1      -2.351  13.383  23.394  0.00  0.00    +0.000 A 
ATOM     10  C   UNL     1      -1.197  13.690  22.677  0.00  0.00    +0.000 A 
ATOM     11  C   UNL     1      -0.376  12.665  22.197  0.00  0.00    +0.000 A 
ATOM     12  F   UNL     1       0.759  13.026  21.581  0.00  0.00    +0.000 F 
ENDBRANCH   2   6
BRANCH   5  13
ATOM     13  N   UNL     1       1.882   7.484  20.423  0.00  0.00    +0.000 N 
ATOM     14  C   UNL     1       1.451   6.095  20.703  0.00  0.00    +0.000 C 
ATOM     15  C   UNL     1       2.575   5.124  20.282  0.00  0.00    +0.000 C 
ATOM     16  O   UNL     1       2.963   5.298  18.906  0.00  0.00    +0.000 OA
ATOM     17  C   UNL     1       3.371   6.652  18.667  0.00  0.00    +0.000 C 
ATOM     18  C   UNL     1       2.237   7.630  18.999  0.00  0.00    +0.000 C 
ENDBRANCH   5  13
BRANCH   1  19
ATOM     19  C   UNL     1      -0.191   9.802  19.514  0.00  0.00    +0.000 C 
BRANCH  19  23
ATOM     20  N   UNL     1      -2.338  11.476  18.862  0.00  0.00    +0.000 N 
ATOM     21  C   UNL     1      -1.080  11.989  18.633  0.00  0.00    +0.000 C 
ATOM     22  O   UNL     1      -0.949  13.144  18.232  0.00  0.00    +0.000 OA
ATOM     23  N   UNL     1      -0.001  11.169  18.981  0.00  0.00    +0.000 N 
ATOM     24  H   UNL     1      -2.466  10.491  18.690  0.00  0.00    +0.000 HD
BRANCH  20  26
ATOM     25  C   UNL     1      -4.627  11.666  17.879  0.00  0.00    +0.000 C 
ATOM     26  C   UNL     1      -3.551  12.297  18.767  0.00  0.00    +0.000 C 
ATOM     27  C   UNL     1      -4.126  12.679  20.129  0.00  0.00    +0.000 C 
ENDBRANCH  20  26
BRANCH  23  28
ATOM     28  C   UNL     1       1.351  11.724  19.022  0.00  0.00    +0.000 C 
ATOM     29  C   UNL     1       2.340  11.470  17.910  0.00  0.00    +0.000 C 
ATOM     30  C   UNL     1       1.876  12.862  18.187  0.00  0.00    +0.000 C 
ENDBRANCH  23  28
ENDBRANCH  19  23
ENDBRANCH   1  19
TORSDOF 6
ENDMDL
MODEL 6
REMARK VINA RESULT:      -6.3      3.514      5.947
REMARK  Name = 
REMARK  8 active torsions:
REMARK  status: ('A' for Active; 'I' for Inactive)
REMARK    1  A    between atoms: C_1  and  C_2
REMARK    2  A    between atoms: C_2  and  C_3
REMARK    3  A    between atoms: C_2  and  N_4
REMARK    4  A    between atoms: N_7  and  C_8
REMARK    5  A    between atoms: N_7  and  C_27
REMARK    6  A    between atoms: C_8  and  C_9
REMARK    7  A    between atoms: C_10  and  C_11
REMARK    8  A    between atoms: C_20  and  N_21
REMARK                            x       y       z     vdW  Elec       q    Type
REMARK                         _______ _______ _______ _____ _____    ______ ____
ROOT
ATOM      1  C   UNL     1       0.440   9.403  20.308  0.00  0.00    +0.000 A 
ATOM      2  C   UNL     1       1.404   8.355  20.548  0.00  0.00    +0.000 A 
ATOM      3  N   UNL     1       1.665   8.271  21.859  0.00  0.00    +0.000 NA
ATOM      4  O   UNL     1       0.950   9.273  22.471  0.00  0.00    +0.000 OA
ATOM      5  C   UNL     1       0.245   9.992  21.550  0.00  0.00    +0.000 A 
ENDROOT
BRANCH   2   6
ATOM      6  C   UNL     1       2.120   7.514  19.574  0.00  0.00    +0.000 A 
ATOM      7  C   UNL     1       2.671   8.052  18.400  0.00  0.00    +0.000 A 
ATOM      8  C   UNL     1       3.545   7.308  17.599  0.00  0.00    +0.000 A 
ATOM      9  C   UNL     1       3.826   5.983  17.915  0.00  0.00    +0.000 A 
ATOM     10  C   UNL     1       3.215   5.400  19.022  0.00  0.00    +0.000 A 
ATOM     11  C   UNL     1       2.378   6.160  19.843  0.00  0.00    +0.000 A 
ATOM     12  F   UNL     1       1.881   5.562  20.936  0.00  0.00    +0.000 F 
ENDBRANCH   2   6
BRANCH   5  13
ATOM     13  N   UNL     1      -0.491  11.057  21.995  0.00  0.00    +0.000 N 
ATOM     14  C   UNL     1      -1.356  10.915  23.189  0.00  0.00    +0.000 C 
ATOM     15  C   UNL     1      -2.495  11.954  23.113  0.00  0.00    +0.000 C 
ATOM     16  O   UNL     1      -2.002  13.298  22.965  0.00  0.00    +0.000 OA
ATOM     17  C   UNL     1      -1.168  13.402  21.804  0.00  0.00    +0.000 C 
ATOM     18  C   UNL     1       0.021  12.437  21.899  0.00  0.00    +0.000 C 
ENDBRANCH   5  13
BRANCH   1  19
ATOM     19  C   UNL     1      -0.189   9.811  19.020  0.00  0.00    +0.000 C 
BRANCH  19  23
ATOM     20  N   UNL     1      -2.417  11.419  18.485  0.00  0.00    +0.000 N 
ATOM     21  C   UNL     1      -1.190  12.039  18.403  0.00  0.00    +0.000 C 
ATOM     22  O   UNL     1      -1.123  13.245  18.175  0.00  0.00    +0.000 OA
ATOM     23  N   UNL     1      -0.073  11.249  18.695  0.00  0.00    +0.000 N 
ATOM     24  H   UNL     1      -2.466  10.462  18.171  0.00  0.00    +0.000 HD
BRANCH  20  26
ATOM     25  C   UNL     1      -4.743  11.476  17.577  0.00  0.00    +0.000 C 
ATOM     26  C   UNL     1      -3.680  12.166  18.436  0.00  0.00    +0.000 C 
ATOM     27  C   UNL     1      -4.232  12.503  19.818  0.00  0.00    +0.000 C 
ENDBRANCH  20  26
BRANCH  23  28
ATOM     28  C   UNL     1       1.233  11.878  18.890  0.00  0.00    +0.000 C 
ATOM     29  C   UNL     1       2.372  11.643  17.928  0.00  0.00    +0.000 C 
ATOM     30  C   UNL     1       1.806  13.016  18.088  0.00  0.00    +0.000 C 
ENDBRANCH  23  28
ENDBRANCH  19  23
ENDBRANCH   1  19
TORSDOF 6
ENDMDL
MODEL 7
REMARK VINA RESULT:      -6.2      2.170      2.761
REMARK  Name = 
REMARK  8 active torsions:
REMARK  status: ('A' for Active; 'I' for Inactive)
REMARK    1  A    between atoms: C_1  and  C_2
REMARK    2  A    between atoms: C_2  and  C_3
REMARK    3  A    between atoms: C_2  and  N_4
REMARK    4  A    between atoms: N_7  and  C_8
REMARK    5  A    between atoms: N_7  and  C_27
REMARK    6  A    between atoms: C_8  and  C_9
REMARK    7  A    between atoms: C_10  and  C_11
REMARK    8  A    between atoms: C_20  and  N_21
REMARK                            x       y       z     vdW  Elec       q    Type
REMARK                         _______ _______ _______ _____ _____    ______ ____
ROOT
ATOM      1  C   UNL     1      -2.419  13.242  22.746  0.00  0.00    +0.000 A 
ATOM      2  C   UNL     1      -1.032  12.845  22.696  0.00  0.00    +0.000 A 
ATOM      3  N   UNL     1      -0.252  13.884  23.022  0.00  0.00    +0.000 NA
ATOM      4  O   UNL     1      -1.085  14.959  23.219  0.00  0.00    +0.000 OA
ATOM      5  C   UNL     1      -2.386  14.604  23.013  0.00  0.00    +0.000 A 
ENDROOT
BRANCH   2   6
ATOM      6  C   UNL     1      -0.450  11.558  22.278  0.00  0.00    +0.000 A 
ATOM      7  C   UNL     1      -0.718  10.369  22.974  0.00  0.00    +0.000 A 
ATOM      8  C   UNL     1      -0.361   9.122  22.447  0.00  0.00    +0.000 A 
ATOM      9  C   UNL     1       0.339   9.044  21.249  0.00  0.00    +0.000 A 
ATOM     10  C   UNL     1       0.700  10.217  20.590  0.00  0.00    +0.000 A 
ATOM     11  C   UNL     1       0.302  11.457  21.098  0.00  0.00    +0.000 A 
ATOM     12  F   UNL     1       0.614  12.544  20.376  0.00  0.00    +0.000 F 
ENDBRANCH   2   6
BRANCH   5  13
ATOM     13  N   UNL     1      -3.343  15.577  23.129  0.00  0.00    +0.000 N 
ATOM     14  C   UNL     1      -4.032  15.787  24.422  0.00  0.00    +0.000 C 
ATOM     15  C   UNL     1      -5.413  16.426  24.160  0.00  0.00    +0.000 C 
ATOM     16  O   UNL     1      -5.318  17.643  23.398  0.00  0.00    +0.000 OA
ATOM     17  C   UNL     1      -4.644  17.407  22.155  0.00  0.00    +0.000 C 
ATOM     18  C   UNL     1      -3.235  16.852  22.396  0.00  0.00    +0.000 C 
ENDBRANCH   5  13
BRANCH   1  19
ATOM     19  C   UNL     1      -3.634  12.407  22.524  0.00  0.00    +0.000 C 
BRANCH  19  23
ATOM     20  N   UNL     1      -3.029  12.069  19.812  0.00  0.00    +0.000 N 
ATOM     21  C   UNL     1      -4.205  12.729  20.092  0.00  0.00    +0.000 C 
ATOM     22  O   UNL     1      -4.952  13.072  19.177  0.00  0.00    +0.000 OA
ATOM     23  N   UNL     1      -4.528  12.879  21.445  0.00  0.00    +0.000 N 
ATOM     24  H   UNL     1      -2.251  12.244  20.428  0.00  0.00    +0.000 HD
BRANCH  20  26
ATOM     25  C   UNL     1      -1.400  12.302  17.933  0.00  0.00    +0.000 C 
ATOM     26  C   UNL     1      -2.675  11.635  18.455  0.00  0.00    +0.000 C 
ATOM     27  C   UNL     1      -2.592  10.117  18.313  0.00  0.00    +0.000 C 
ENDBRANCH  20  26
BRANCH  23  28
ATOM     28  C   UNL     1      -5.866  13.325  21.829  0.00  0.00    +0.000 C 
ATOM     29  C   UNL     1      -7.029  12.365  21.892  0.00  0.00    +0.000 C 
ATOM     30  C   UNL     1      -6.561  13.047  23.136  0.00  0.00    +0.000 C 
ENDBRANCH  23  28
ENDBRANCH  19  23
ENDBRANCH   1  19
TORSDOF 6
ENDMDL
MODEL 8
REMARK VINA RESULT:      -6.2      9.849     13.005
REMARK  Name = 
REMARK  8 active torsions:
REMARK  status: ('A' for Active; 'I' for Inactive)
REMARK    1  A    between atoms: C_1  and  C_2
REMARK    2  A    between atoms: C_2  and  C_3
REMARK    3  A    between atoms: C_2  and  N_4
REMARK    4  A    between atoms: N_7  and  C_8
REMARK    5  A    between atoms: N_7  and  C_27
REMARK    6  A    between atoms: C_8  and  C_9
REMARK    7  A    between atoms: C_10  and  C_11
REMARK    8  A    between atoms: C_20  and  N_21
REMARK                            x       y       z     vdW  Elec       q    Type
REMARK                         _______ _______ _______ _____ _____    ______ ____
ROOT
ATOM      1  C   UNL     1       7.947  15.097  19.690  0.00  0.00    +0.000 A 
ATOM      2  C   UNL     1       9.113  14.987  18.847  0.00  0.00    +0.000 A 
ATOM      3  N   UNL     1       9.164  16.028  18.006  0.00  0.00    +0.000 NA
ATOM      4  O   UNL     1       8.033  16.777  18.233  0.00  0.00    +0.000 OA
ATOM      5  C   UNL     1       7.267  16.208  19.208  0.00  0.00    +0.000 A 
ENDROOT
BRANCH   2   6
ATOM      6  C   UNL     1      10.106  13.902  18.774  0.00  0.00    +0.000 A 
ATOM      7  C   UNL     1      11.288  13.933  19.530  0.00  0.00    +0.000 A 
ATOM      8  C   UNL     1      12.111  12.806  19.641  0.00  0.00    +0.000 A 
ATOM      9  C   UNL     1      11.808  11.648  18.935  0.00  0.00    +0.000 A 
ATOM     10  C   UNL     1      10.692  11.626  18.102  0.00  0.00    +0.000 A 
ATOM     11  C   UNL     1       9.849  12.739  18.030  0.00  0.00    +0.000 A 
ATOM     12  F   UNL     1       8.749  12.628  17.271  0.00  0.00    +0.000 F 
ENDBRANCH   2   6
BRANCH   5  13
ATOM     13  N   UNL     1       6.080  16.811  19.525  0.00  0.00    +0.000 N 
ATOM     14  C   UNL     1       6.075  18.116  20.223  0.00  0.00    +0.000 C 
ATOM     15  C   UNL     1       4.749  18.268  21.000  0.00  0.00    +0.000 C 
ATOM     16  O   UNL     1       3.596  18.107  20.153  0.00  0.00    +0.000 OA
ATOM     17  C   UNL     1       3.633  16.837  19.490  0.00  0.00    +0.000 C 
ATOM     18  C   UNL     1       4.903  16.700  18.643  0.00  0.00    +0.000 C 
ENDBRANCH   5  13
BRANCH   1  19
ATOM     19  C   UNL     1       7.519  14.207  20.807  0.00  0.00    +0.000 C 
BRANCH  19  23
ATOM     20  N   UNL     1       7.670  16.210  22.757  0.00  0.00    +0.000 N 
ATOM     21  C   UNL     1       8.546  15.157  22.902  0.00  0.00    +0.000 C 
ATOM     22  O   UNL     1       9.286  15.102  23.883  0.00  0.00    +0.000 OA
ATOM     23  N   UNL     1       8.459  14.139  21.947  0.00  0.00    +0.000 N 
ATOM     24  H   UNL     1       7.472  16.512  21.816  0.00  0.00    +0.000 HD
BRANCH  20  26
ATOM     25  C   UNL     1       7.962  18.615  23.366  0.00  0.00    +0.000 C 
ATOM     26  C   UNL     1       7.483  17.227  23.799  0.00  0.00    +0.000 C 
ATOM     27  C   UNL     1       6.053  17.287  24.330  0.00  0.00    +0.000 C 
ENDBRANCH  20  26
BRANCH  23  28
ATOM     28  C   UNL     1       9.157  12.873  22.167  0.00  0.00    +0.000 C 
ATOM     29  C   UNL     1       8.483  11.711  22.854  0.00  0.00    +0.000 C 
ATOM     30  C   UNL     1       8.918  11.581  21.431  0.00  0.00    +0.000 C 
ENDBRANCH  23  28
ENDBRANCH  19  23
ENDBRANCH   1  19
TORSDOF 6
ENDMDL
MODEL 9
REMARK VINA RESULT:      -6.2      2.884      4.622
REMARK  Name = 
REMARK  8 active torsions:
REMARK  status: ('A' for Active; 'I' for Inactive)
REMARK    1  A    between atoms: C_1  and  C_2
REMARK    2  A    between atoms: C_2  and  C_3
REMARK    3  A    between atoms: C_2  and  N_4
REMARK    4  A    between atoms: N_7  and  C_8
REMARK    5  A    between atoms: N_7  and  C_27
REMARK    6  A    between atoms: C_8  and  C_9
REMARK    7  A    between atoms: C_10  and  C_11
REMARK    8  A    between atoms: C_20  and  N_21
REMARK                            x       y       z     vdW  Elec       q    Type
REMARK                         _______ _______ _______ _____ _____    ______ ____
ROOT
ATOM      1  C   UNL     1      -0.384  14.364  19.576  0.00  0.00    +0.000 A 
ATOM      2  C   UNL     1       0.786  15.109  19.977  0.00  0.00    +0.000 A 
ATOM      3  N   UNL     1       0.559  15.710  21.153  0.00  0.00    +0.000 NA
ATOM      4  O   UNL     1      -0.742  15.431  21.497  0.00  0.00    +0.000 OA
ATOM      5  C   UNL     1      -1.339  14.663  20.539  0.00  0.00    +0.000 A 
ENDROOT
BRANCH   2   6
ATOM      6  C   UNL     1       2.047  15.320  19.246  0.00  0.00    +0.000 A 
ATOM      7  C   UNL     1       3.099  14.392  19.311  0.00  0.00    +0.000 A 
ATOM      8  C   UNL     1       4.193  14.472  18.442  0.00  0.00    +0.000 A 
ATOM      9  C   UNL     1       4.294  15.525  17.540  0.00  0.00    +0.000 A 
ATOM     10  C   UNL     1       3.310  16.509  17.525  0.00  0.00    +0.000 A 
ATOM     11  C   UNL     1       2.197  16.402  18.365  0.00  0.00    +0.000 A 
ATOM     12  F   UNL     1       1.247  17.340  18.248  0.00  0.00    +0.000 F 
ENDBRANCH   2   6
BRANCH   5  13
ATOM     13  N   UNL     1      -2.655  14.331  20.712  0.00  0.00    +0.000 N 
ATOM     14  C   UNL     1      -3.021  12.988  21.217  0.00  0.00    +0.000 C 
ATOM     15  C   UNL     1      -4.448  12.641  20.739  0.00  0.00    +0.000 C 
ATOM     16  O   UNL     1      -5.412  13.640  21.121  0.00  0.00    +0.000 OA
ATOM     17  C   UNL     1      -5.028  14.926  20.620  0.00  0.00    +0.000 C 
ATOM     18  C   UNL     1      -3.647  15.329  21.153  0.00  0.00    +0.000 C 
ENDBRANCH   5  13
BRANCH   1  19
ATOM     19  C   UNL     1      -0.568  13.495  18.380  0.00  0.00    +0.000 C 
BRANCH  19  23
ATOM     20  N   UNL     1      -2.705  11.891  17.547  0.00  0.00    +0.000 N 
ATOM     21  C   UNL     1      -1.718  11.257  18.266  0.00  0.00    +0.000 C 
ATOM     22  O   UNL     1      -1.773  10.042  18.450  0.00  0.00    +0.000 OA
ATOM     23  N   UNL     1      -0.633  12.045  18.663  0.00  0.00    +0.000 N 
ATOM     24  H   UNL     1      -2.930  12.836  17.816  0.00  0.00    +0.000 HD
BRANCH  20  26
ATOM     25  C   UNL     1      -5.141  11.844  16.995  0.00  0.00    +0.000 C 
ATOM     26  C   UNL     1      -3.779  11.156  16.868  0.00  0.00    +0.000 C 
ATOM     27  C   UNL     1      -3.464  10.844  15.408  0.00  0.00    +0.000 C 
ENDBRANCH  20  26
BRANCH  23  28
ATOM     28  C   UNL     1       0.573  11.411  19.195  0.00  0.00    +0.000 C 
ATOM     29  C   UNL     1       0.895  11.441  20.669  0.00  0.00    +0.000 C 
ATOM     30  C   UNL     1       0.635  10.135  19.993  0.00  0.00    +0.000 C 
ENDBRANCH  23  28
ENDBRANCH  19  23
ENDBRANCH   1  19
TORSDOF 6
ENDMDL
