MODEL 1
REMARK VINA RESULT:      -6.2      0.000      0.000
REMARK  Name = 
REMARK  13 active torsions:
REMARK  status: ('A' for Active; 'I' for Inactive)
REMARK    1  A    between atoms: C_1  and  C_2
REMARK    2  A    between atoms: C_2  and  C_3
REMARK    3  A    between atoms: C_3  and  C_4
REMARK    4  A    between atoms: C_4  and  C_5
REMARK    5  A    between atoms: C_5  and  C_6
REMARK    6  A    between atoms: C_6  and  C_7
REMARK    7  A    between atoms: C_7  and  C_8
REMARK    8  A    between atoms: C_8  and  C_9
REMARK    9  A    between atoms: C_9  and  C_10
REMARK   10  A    between atoms: C_10  and  C_11
REMARK   11  A    between atoms: C_11  and  C_12
REMARK   12  A    between atoms: C_17  and  C_18
REMARK   13  A    between atoms: C_18  and  C_19
REMARK                            x       y       z     vdW  Elec       q    Type
REMARK                         _______ _______ _______ _____ _____    ______ ____
ROOT
ATOM      1  C   UNL     1       4.702   7.120  16.888  0.00  0.00    +0.000 C 
ENDROOT
BRANCH   1   2
ATOM      2  C   UNL     1       6.214   7.006  16.639  0.00  0.00    +0.000 C 
ATOM      3  C   UNL     1       6.988   6.758  17.943  0.00  0.00    +0.000 C 
ATOM      4  C   UNL     1       7.523   5.375  18.080  0.00  0.00    +0.000 C 
ATOM      5  C   UNL     1       7.450   4.491  17.086  0.00  0.00    +0.000 C 
ATOM      6  C   UNL     1       6.870   4.806  15.796  0.00  0.00    +0.000 C 
ATOM      7  C   UNL     1       6.757   3.856  14.854  0.00  0.00    +0.000 C 
ATOM      8  O   UNL     1       6.485   6.101  15.562  0.00  0.00    +0.000 OA
BRANCH   7   9
ATOM      9  C   UNL     1       6.192   3.970  13.480  0.00  0.00    +0.000 C 
ATOM     10  C   UNL     1       7.054   4.012  12.247  0.00  0.00    +0.000 C 
ATOM     11  O   UNL     1       4.961   4.019  13.377  0.00  0.00    +0.000 OA
ENDBRANCH   7   9
ENDBRANCH   1   2
BRANCH   1  12
ATOM     12  C   UNL     1       4.235   6.281  18.077  0.00  0.00    +0.000 C 
BRANCH  12  13
ATOM     13  C   UNL     1       3.116   5.328  17.667  0.00  0.00    +0.000 C 
BRANCH  13  14
ATOM     14  C   UNL     1       3.696   3.996  17.202  0.00  0.00    +0.000 C 
BRANCH  14  15
ATOM     15  C   UNL     1       2.646   2.894  17.272  0.00  0.00    +0.000 C 
BRANCH  15  16
ATOM     16  C   UNL     1       3.092   1.789  18.218  0.00  0.00    +0.000 C 
BRANCH  16  17
ATOM     17  C   UNL     1       2.231   1.792  19.472  0.00  0.00    +0.000 C 
BRANCH  17  18
ATOM     18  C   UNL     1       2.864   2.655  20.555  0.00  0.00    +0.000 C 
BRANCH  18  19
ATOM     19  C   UNL     1       1.787   3.338  21.395  0.00  0.00    +0.000 C 
BRANCH  19  21
ATOM     20  C   UNL     1       1.643   5.758  20.765  0.00  0.00    +0.000 C 
ATOM     21  C   UNL     1       1.030   4.379  20.580  0.00  0.00    +0.000 C 
ENDBRANCH  19  21
ENDBRANCH  18  19
ENDBRANCH  17  18
ENDBRANCH  16  17
ENDBRANCH  15  16
ENDBRANCH  14  15
ENDBRANCH  13  14
ENDBRANCH  12  13
ENDBRANCH   1  12
TORSDOF 11
ENDMDL
MODEL 2
REMARK VINA RESULT:      -6.1      2.473      7.093
REMARK  Name = 
REMARK  13 active torsions:
REMARK  status: ('A' for Active; 'I' for Inactive)
REMARK    1  A    between atoms: C_1  and  C_2
REMARK    2  A    between atoms: C_2  and  C_3
REMARK    3  A    between atoms: C_3  and  C_4
REMARK    4  A    between atoms: C_4  and  C_5
REMARK    5  A    between atoms: C_5  and  C_6
REMARK    6  A    between atoms: C_6  and  C_7
REMARK    7  A    between atoms: C_7  and  C_8
REMARK    8  A    between atoms: C_8  and  C_9
REMARK    9  A    between atoms: C_9  and  C_10
REMARK   10  A    between atoms: C_10  and  C_11
REMARK   11  A    between atoms: C_11  and  C_12
REMARK   12  A    between atoms: C_17  and  C_18
REMARK   13  A    between atoms: C_18  and  C_19
REMARK                            x       y       z     vdW  Elec       q    Type
REMARK                         _______ _______ _______ _____ _____    ______ ____
ROOT
ATOM      1  C   UNL     1       3.583   2.710  18.259  0.00  0.00    +0.000 C 
ENDROOT
BRANCH   1   2
ATOM      2  C   UNL     1       2.152   3.174  18.574  0.00  0.00    +0.000 C 
ATOM      3  C   UNL     1       1.608   2.512  19.850  0.00  0.00    +0.000 C 
ATOM      4  C   UNL     1       1.512   3.429  21.018  0.00  0.00    +0.000 C 
ATOM      5  C   UNL     1       1.744   4.736  20.907  0.00  0.00    +0.000 C 
ATOM      6  C   UNL     1       2.085   5.369  19.648  0.00  0.00    +0.000 C 
ATOM      7  C   UNL     1       2.379   6.678  19.607  0.00  0.00    +0.000 C 
ATOM      8  O   UNL     1       2.055   4.602  18.514  0.00  0.00    +0.000 OA
BRANCH   7   9
ATOM      9  C   UNL     1       2.757   7.510  18.430  0.00  0.00    +0.000 C 
ATOM     10  C   UNL     1       1.855   8.575  17.864  0.00  0.00    +0.000 C 
ATOM     11  O   UNL     1       3.866   7.306  17.924  0.00  0.00    +0.000 OA
ENDBRANCH   7   9
ENDBRANCH   1   2
BRANCH   1  12
ATOM     12  C   UNL     1       4.514   3.868  17.902  0.00  0.00    +0.000 C 
BRANCH  12  13
ATOM     13  C   UNL     1       5.057   3.718  16.485  0.00  0.00    +0.000 C 
BRANCH  13  14
ATOM     14  C   UNL     1       5.235   5.088  15.837  0.00  0.00    +0.000 C 
BRANCH  14  15
ATOM     15  C   UNL     1       6.122   4.991  14.602  0.00  0.00    +0.000 C 
BRANCH  15  16
ATOM     16  C   UNL     1       5.965   3.632  13.935  0.00  0.00    +0.000 C 
BRANCH  16  17
ATOM     17  C   UNL     1       6.491   3.683  12.509  0.00  0.00    +0.000 C 
BRANCH  17  18
ATOM     18  C   UNL     1       5.708   2.733  11.613  0.00  0.00    +0.000 C 
BRANCH  18  19
ATOM     19  C   UNL     1       4.228   3.112  11.593  0.00  0.00    +0.000 C 
BRANCH  19  21
ATOM     20  C   UNL     1       2.722   3.602   9.653  0.00  0.00    +0.000 C 
ATOM     21  C   UNL     1       3.922   4.078  10.455  0.00  0.00    +0.000 C 
ENDBRANCH  19  21
ENDBRANCH  18  19
ENDBRANCH  17  18
ENDBRANCH  16  17
ENDBRANCH  15  16
ENDBRANCH  14  15
ENDBRANCH  13  14
ENDBRANCH  12  13
ENDBRANCH   1  12
TORSDOF 11
ENDMDL
MODEL 3
REMARK VINA RESULT:      -6.0      0.726      2.071
REMARK  Name = 
REMARK  13 active torsions:
REMARK  status: ('A' for Active; 'I' for Inactive)
REMARK    1  A    between atoms: C_1  and  C_2
REMARK    2  A    between atoms: C_2  and  C_3
REMARK    3  A    between atoms: C_3  and  C_4
REMARK    4  A    between atoms: C_4  and  C_5
REMARK    5  A    between atoms: C_5  and  C_6
REMARK    6  A    between atoms: C_6  and  C_7
REMARK    7  A    between atoms: C_7  and  C_8
REMARK    8  A    between atoms: C_8  and  C_9
REMARK    9  A    between atoms: C_9  and  C_10
REMARK   10  A    between atoms: C_10  and  C_11
REMARK   11  A    between atoms: C_11  and  C_12
REMARK   12  A    between atoms: C_17  and  C_18
REMARK   13  A    between atoms: C_18  and  C_19
REMARK                            x       y       z     vdW  Elec       q    Type
REMARK                         _______ _______ _______ _____ _____    ______ ____
ROOT
ATOM      1  C   UNL     1       4.789   7.177  16.966  0.00  0.00    +0.000 C 
ENDROOT
BRANCH   1   2
ATOM      2  C   UNL     1       6.292   7.017  16.684  0.00  0.00    +0.000 C 
ATOM      3  C   UNL     1       7.090   6.778  17.975  0.00  0.00    +0.000 C 
ATOM      4  C   UNL     1       7.593   5.386  18.131  0.00  0.00    +0.000 C 
ATOM      5  C   UNL     1       7.474   4.482  17.160  0.00  0.00    +0.000 C 
ATOM      6  C   UNL     1       6.871   4.783  15.876  0.00  0.00    +0.000 C 
ATOM      7  C   UNL     1       6.712   3.816  14.959  0.00  0.00    +0.000 C 
ATOM      8  O   UNL     1       6.514   6.082  15.622  0.00  0.00    +0.000 OA
BRANCH   7   9
ATOM      9  C   UNL     1       6.117   3.914  13.597  0.00  0.00    +0.000 C 
ATOM     10  C   UNL     1       6.939   3.805  12.341  0.00  0.00    +0.000 C 
ATOM     11  O   UNL     1       4.895   4.080  13.524  0.00  0.00    +0.000 OA
ENDBRANCH   7   9
ENDBRANCH   1   2
BRANCH   1  12
ATOM     12  C   UNL     1       4.309   6.296  18.118  0.00  0.00    +0.000 C 
BRANCH  12  13
ATOM     13  C   UNL     1       3.487   5.119  17.602  0.00  0.00    +0.000 C 
BRANCH  13  14
ATOM     14  C   UNL     1       2.036   5.245  18.054  0.00  0.00    +0.000 C 
BRANCH  14  15
ATOM     15  C   UNL     1       1.943   6.004  19.372  0.00  0.00    +0.000 C 
BRANCH  15  16
ATOM     16  C   UNL     1       2.054   5.048  20.550  0.00  0.00    +0.000 C 
BRANCH  16  17
ATOM     17  C   UNL     1       1.022   3.938  20.426  0.00  0.00    +0.000 C 
BRANCH  17  18
ATOM     18  C   UNL     1       1.701   2.600  20.164  0.00  0.00    +0.000 C 
BRANCH  18  19
ATOM     19  C   UNL     1       3.104   2.584  20.768  0.00  0.00    +0.000 C 
BRANCH  19  21
ATOM     20  C   UNL     1       3.540   1.479  18.562  0.00  0.00    +0.000 C 
ATOM     21  C   UNL     1       4.155   2.259  19.713  0.00  0.00    +0.000 C 
ENDBRANCH  19  21
ENDBRANCH  18  19
ENDBRANCH  17  18
ENDBRANCH  16  17
ENDBRANCH  15  16
ENDBRANCH  14  15
ENDBRANCH  13  14
ENDBRANCH  12  13
ENDBRANCH   1  12
TORSDOF 11
ENDMDL
MODEL 4
REMARK VINA RESULT:      -6.0      2.371      6.625
REMARK  Name = 
REMARK  13 active torsions:
REMARK  status: ('A' for Active; 'I' for Inactive)
REMARK    1  A    between atoms: C_1  and  C_2
REMARK    2  A    between atoms: C_2  and  C_3
REMARK    3  A    between atoms: C_3  and  C_4
REMARK    4  A    between atoms: C_4  and  C_5
REMARK    5  A    between atoms: C_5  and  C_6
REMARK    6  A    between atoms: C_6  and  C_7
REMARK    7  A    between atoms: C_7  and  C_8
REMARK    8  A    between atoms: C_8  and  C_9
REMARK    9  A    between atoms: C_9  and  C_10
REMARK   10  A    between atoms: C_10  and  C_11
REMARK   11  A    between atoms: C_11  and  C_12
REMARK   12  A    between atoms: C_17  and  C_18
REMARK   13  A    between atoms: C_18  and  C_19
REMARK                            x       y       z     vdW  Elec       q    Type
REMARK                         _______ _______ _______ _____ _____    ______ ____
ROOT
ATOM      1  C   UNL     1       2.193   2.836  17.918  0.00  0.00    +0.000 C 
ENDROOT
BRANCH   1   2
ATOM      2  C   UNL     1       1.140   3.377  18.898  0.00  0.00    +0.000 C 
ATOM      3  C   UNL     1       1.088   2.549  20.192  0.00  0.00    +0.000 C 
ATOM      4  C   UNL     1       1.662   3.240  21.379  0.00  0.00    +0.000 C 
ATOM      5  C   UNL     1       2.047   4.514  21.334  0.00  0.00    +0.000 C 
ATOM      6  C   UNL     1       1.920   5.331  20.143  0.00  0.00    +0.000 C 
ATOM      7  C   UNL     1       2.390   6.589  20.131  0.00  0.00    +0.000 C 
ATOM      8  O   UNL     1       1.275   4.794  19.060  0.00  0.00    +0.000 OA
BRANCH   7   9
ATOM      9  C   UNL     1       2.365   7.581  19.020  0.00  0.00    +0.000 C 
ATOM     10  C   UNL     1       3.168   7.408  17.758  0.00  0.00    +0.000 C 
ATOM     11  O   UNL     1       1.640   8.571  19.162  0.00  0.00    +0.000 OA
ENDBRANCH   7   9
ENDBRANCH   1   2
BRANCH   1  12
ATOM     12  C   UNL     1       3.128   1.813  18.562  0.00  0.00    +0.000 C 
BRANCH  12  13
ATOM     13  C   UNL     1       4.417   2.473  19.040  0.00  0.00    +0.000 C 
BRANCH  13  14
ATOM     14  C   UNL     1       4.633   3.800  18.318  0.00  0.00    +0.000 C 
BRANCH  14  15
ATOM     15  C   UNL     1       5.365   4.791  19.215  0.00  0.00    +0.000 C 
BRANCH  15  16
ATOM     16  C   UNL     1       6.311   5.657  18.396  0.00  0.00    +0.000 C 
BRANCH  16  17
ATOM     17  C   UNL     1       6.858   4.867  17.217  0.00  0.00    +0.000 C 
BRANCH  17  18
ATOM     18  C   UNL     1       6.676   5.644  15.920  0.00  0.00    +0.000 C 
BRANCH  18  19
ATOM     19  C   UNL     1       7.081   4.790  14.721  0.00  0.00    +0.000 C 
BRANCH  19  21
ATOM     20  C   UNL     1       5.790   3.623  12.919  0.00  0.00    +0.000 C 
ATOM     21  C   UNL     1       6.027   3.732  14.416  0.00  0.00    +0.000 C 
ENDBRANCH  19  21
ENDBRANCH  18  19
ENDBRANCH  17  18
ENDBRANCH  16  17
ENDBRANCH  15  16
ENDBRANCH  14  15
ENDBRANCH  13  14
ENDBRANCH  12  13
ENDBRANCH   1  12
TORSDOF 11
ENDMDL
MODEL 5
REMARK VINA RESULT:      -6.0      0.853      1.088
REMARK  Name = 
REMARK  13 active torsions:
REMARK  status: ('A' for Active; 'I' for Inactive)
REMARK    1  A    between atoms: C_1  and  C_2
REMARK    2  A    between atoms: C_2  and  C_3
REMARK    3  A    between atoms: C_3  and  C_4
REMARK    4  A    between atoms: C_4  and  C_5
REMARK    5  A    between atoms: C_5  and  C_6
REMARK    6  A    between atoms: C_6  and  C_7
REMARK    7  A    between atoms: C_7  and  C_8
REMARK    8  A    between atoms: C_8  and  C_9
REMARK    9  A    between atoms: C_9  and  C_10
REMARK   10  A    between atoms: C_10  and  C_11
REMARK   11  A    between atoms: C_11  and  C_12
REMARK   12  A    between atoms: C_17  and  C_18
REMARK   13  A    between atoms: C_18  and  C_19
REMARK                            x       y       z     vdW  Elec       q    Type
REMARK                         _______ _______ _______ _____ _____    ______ ____
ROOT
ATOM      1  C   UNL     1       4.191   6.536  16.965  0.00  0.00    +0.000 C 
ENDROOT
BRANCH   1   2
ATOM      2  C   UNL     1       5.634   6.848  16.539  0.00  0.00    +0.000 C 
ATOM      3  C   UNL     1       6.593   6.854  17.739  0.00  0.00    +0.000 C 
ATOM      4  C   UNL     1       7.509   5.682  17.792  0.00  0.00    +0.000 C 
ATOM      5  C   UNL     1       7.574   4.795  16.801  0.00  0.00    +0.000 C 
ATOM      6  C   UNL     1       6.782   4.908  15.592  0.00  0.00    +0.000 C 
ATOM      7  C   UNL     1       6.834   3.947  14.656  0.00  0.00    +0.000 C 
ATOM      8  O   UNL     1       6.023   6.036  15.424  0.00  0.00    +0.000 OA
BRANCH   7   9
ATOM      9  C   UNL     1       6.103   3.870  13.360  0.00  0.00    +0.000 C 
ATOM     10  C   UNL     1       6.782   3.513  12.065  0.00  0.00    +0.000 C 
ATOM     11  O   UNL     1       4.890   4.102  13.380  0.00  0.00    +0.000 OA
ENDBRANCH   7   9
ENDBRANCH   1   2
BRANCH   1  12
ATOM     12  C   UNL     1       4.121   5.561  18.140  0.00  0.00    +0.000 C 
BRANCH  12  13
ATOM     13  C   UNL     1       4.109   4.116  17.653  0.00  0.00    +0.000 C 
BRANCH  13  14
ATOM     14  C   UNL     1       4.546   3.174  18.770  0.00  0.00    +0.000 C 
BRANCH  14  15
ATOM     15  C   UNL     1       3.487   2.111  19.028  0.00  0.00    +0.000 C 
BRANCH  15  16
ATOM     16  C   UNL     1       2.422   2.141  17.942  0.00  0.00    +0.000 C 
BRANCH  16  17
ATOM     17  C   UNL     1       1.095   2.612  18.519  0.00  0.00    +0.000 C 
BRANCH  17  18
ATOM     18  C   UNL     1       1.203   2.801  20.026  0.00  0.00    +0.000 C 
BRANCH  18  19
ATOM     19  C   UNL     1       0.793   4.218  20.420  0.00  0.00    +0.000 C 
BRANCH  19  21
ATOM     20  C   UNL     1       1.763   6.504  20.748  0.00  0.00    +0.000 C 
ATOM     21  C   UNL     1       1.984   5.013  20.941  0.00  0.00    +0.000 C 
ENDBRANCH  19  21
ENDBRANCH  18  19
ENDBRANCH  17  18
ENDBRANCH  16  17
ENDBRANCH  15  16
ENDBRANCH  14  15
ENDBRANCH  13  14
ENDBRANCH  12  13
ENDBRANCH   1  12
TORSDOF 11
ENDMDL
MODEL 6
REMARK VINA RESULT:      -5.9      2.281      6.857
REMARK  Name = 
REMARK  13 active torsions:
REMARK  status: ('A' for Active; 'I' for Inactive)
REMARK    1  A    between atoms: C_1  and  C_2
REMARK    2  A    between atoms: C_2  and  C_3
REMARK    3  A    between atoms: C_3  and  C_4
REMARK    4  A    between atoms: C_4  and  C_5
REMARK    5  A    between atoms: C_5  and  C_6
REMARK    6  A    between atoms: C_6  and  C_7
REMARK    7  A    between atoms: C_7  and  C_8
REMARK    8  A    between atoms: C_8  and  C_9
REMARK    9  A    between atoms: C_9  and  C_10
REMARK   10  A    between atoms: C_10  and  C_11
REMARK   11  A    between atoms: C_11  and  C_12
REMARK   12  A    between atoms: C_17  and  C_18
REMARK   13  A    between atoms: C_18  and  C_19
REMARK                            x       y       z     vdW  Elec       q    Type
REMARK                         _______ _______ _______ _____ _____    ______ ____
ROOT
ATOM      1  C   UNL     1       2.297   3.363  17.396  0.00  0.00    +0.000 C 
ENDROOT
BRANCH   1   2
ATOM      2  C   UNL     1       1.194   3.398  18.465  0.00  0.00    +0.000 C 
ATOM      3  C   UNL     1       1.250   2.165  19.381  0.00  0.00    +0.000 C 
ATOM      4  C   UNL     1       1.746   2.450  20.755  0.00  0.00    +0.000 C 
ATOM      5  C   UNL     1       1.977   3.692  21.176  0.00  0.00    +0.000 C 
ATOM      6  C   UNL     1       1.747   4.859  20.347  0.00  0.00    +0.000 C 
ATOM      7  C   UNL     1       2.065   6.083  20.796  0.00  0.00    +0.000 C 
ATOM      8  O   UNL     1       1.162   4.671  19.122  0.00  0.00    +0.000 OA
BRANCH   7   9
ATOM      9  C   UNL     1       1.916   7.395  20.107  0.00  0.00    +0.000 C 
ATOM     10  C   UNL     1       1.214   8.569  20.737  0.00  0.00    +0.000 C 
ATOM     11  O   UNL     1       2.408   7.501  18.979  0.00  0.00    +0.000 OA
ENDBRANCH   7   9
ENDBRANCH   1   2
BRANCH   1  12
ATOM     12  C   UNL     1       3.444   4.327  17.699  0.00  0.00    +0.000 C 
BRANCH  12  13
ATOM     13  C   UNL     1       4.676   3.574  18.190  0.00  0.00    +0.000 C 
BRANCH  13  14
ATOM     14  C   UNL     1       5.232   4.230  19.450  0.00  0.00    +0.000 C 
BRANCH  14  15
ATOM     15  C   UNL     1       5.892   5.563  19.121  0.00  0.00    +0.000 C 
BRANCH  15  16
ATOM     16  C   UNL     1       7.199   5.343  18.373  0.00  0.00    +0.000 C 
BRANCH  16  17
ATOM     17  C   UNL     1       7.322   6.334  17.226  0.00  0.00    +0.000 C 
BRANCH  17  18
ATOM     18  C   UNL     1       6.314   6.014  16.130  0.00  0.00    +0.000 C 
BRANCH  18  19
ATOM     19  C   UNL     1       6.955   5.144  15.050  0.00  0.00    +0.000 C 
BRANCH  19  21
ATOM     20  C   UNL     1       5.846   3.693  13.336  0.00  0.00    +0.000 C 
ATOM     21  C   UNL     1       6.149   3.873  14.815  0.00  0.00    +0.000 C 
ENDBRANCH  19  21
ENDBRANCH  18  19
ENDBRANCH  17  18
ENDBRANCH  16  17
ENDBRANCH  15  16
ENDBRANCH  14  15
ENDBRANCH  13  14
ENDBRANCH  12  13
ENDBRANCH   1  12
TORSDOF 11
ENDMDL
MODEL 7
REMARK VINA RESULT:      -5.8      2.236      7.106
REMARK  Name = 
REMARK  13 active torsions:
REMARK  status: ('A' for Active; 'I' for Inactive)
REMARK    1  A    between atoms: C_1  and  C_2
REMARK    2  A    between atoms: C_2  and  C_3
REMARK    3  A    between atoms: C_3  and  C_4
REMARK    4  A    between atoms: C_4  and  C_5
REMARK    5  A    between atoms: C_5  and  C_6
REMARK    6  A    between atoms: C_6  and  C_7
REMARK    7  A    between atoms: C_7  and  C_8
REMARK    8  A    between atoms: C_8  and  C_9
REMARK    9  A    between atoms: C_9  and  C_10
REMARK   10  A    between atoms: C_10  and  C_11
REMARK   11  A    between atoms: C_11  and  C_12
REMARK   12  A    between atoms: C_17  and  C_18
REMARK   13  A    between atoms: C_18  and  C_19
REMARK                            x       y       z     vdW  Elec       q    Type
REMARK                         _______ _______ _______ _____ _____    ______ ____
ROOT
ATOM      1  C   UNL     1       3.376   3.840  17.346  0.00  0.00    +0.000 C 
ENDROOT
BRANCH   1   2
ATOM      2  C   UNL     1       1.936   3.719  17.870  0.00  0.00    +0.000 C 
ATOM      3  C   UNL     1       1.673   2.340  18.496  0.00  0.00    +0.000 C 
ATOM      4  C   UNL     1       1.563   2.356  19.980  0.00  0.00    +0.000 C 
ATOM      5  C   UNL     1       1.553   3.494  20.672  0.00  0.00    +0.000 C 
ATOM      6  C   UNL     1       1.625   4.798  20.042  0.00  0.00    +0.000 C 
ATOM      7  C   UNL     1       1.684   5.910  20.791  0.00  0.00    +0.000 C 
ATOM      8  O   UNL     1       1.589   4.853  18.673  0.00  0.00    +0.000 OA
BRANCH   7   9
ATOM      9  C   UNL     1       1.767   7.329  20.345  0.00  0.00    +0.000 C 
ATOM     10  C   UNL     1       1.085   8.453  21.078  0.00  0.00    +0.000 C 
ATOM     11  O   UNL     1       2.441   7.567  19.337  0.00  0.00    +0.000 OA
ENDBRANCH   7   9
ENDBRANCH   1   2
BRANCH   1  12
ATOM     12  C   UNL     1       4.421   3.659  18.446  0.00  0.00    +0.000 C 
BRANCH  12  13
ATOM     13  C   UNL     1       5.313   4.891  18.562  0.00  0.00    +0.000 C 
BRANCH  13  14
ATOM     14  C   UNL     1       5.107   5.811  17.362  0.00  0.00    +0.000 C 
BRANCH  14  15
ATOM     15  C   UNL     1       6.417   6.030  16.617  0.00  0.00    +0.000 C 
BRANCH  15  16
ATOM     16  C   UNL     1       7.161   4.714  16.443  0.00  0.00    +0.000 C 
BRANCH  16  17
ATOM     17  C   UNL     1       6.527   3.895  15.329  0.00  0.00    +0.000 C 
BRANCH  17  18
ATOM     18  C   UNL     1       6.530   4.675  14.021  0.00  0.00    +0.000 C 
BRANCH  18  19
ATOM     19  C   UNL     1       6.416   3.726  12.830  0.00  0.00    +0.000 C 
BRANCH  19  21
ATOM     20  C   UNL     1       4.859   2.570  11.245  0.00  0.00    +0.000 C 
ATOM     21  C   UNL     1       4.964   3.550  12.401  0.00  0.00    +0.000 C 
ENDBRANCH  19  21
ENDBRANCH  18  19
ENDBRANCH  17  18
ENDBRANCH  16  17
ENDBRANCH  15  16
ENDBRANCH  14  15
ENDBRANCH  13  14
ENDBRANCH  12  13
ENDBRANCH   1  12
TORSDOF 11
ENDMDL
MODEL 8
REMARK VINA RESULT:      -5.8      0.826      2.155
REMARK  Name = 
REMARK  13 active torsions:
REMARK  status: ('A' for Active; 'I' for Inactive)
REMARK    1  A    between atoms: C_1  and  C_2
REMARK    2  A    between atoms: C_2  and  C_3
REMARK    3  A    between atoms: C_3  and  C_4
REMARK    4  A    between atoms: C_4  and  C_5
REMARK    5  A    between atoms: C_5  and  C_6
REMARK    6  A    between atoms: C_6  and  C_7
REMARK    7  A    between atoms: C_7  and  C_8
REMARK    8  A    between atoms: C_8  and  C_9
REMARK    9  A    between atoms: C_9  and  C_10
REMARK   10  A    between atoms: C_10  and  C_11
REMARK   11  A    between atoms: C_11  and  C_12
REMARK   12  A    between atoms: C_17  and  C_18
REMARK   13  A    between atoms: C_18  and  C_19
REMARK                            x       y       z     vdW  Elec       q    Type
REMARK                         _______ _______ _______ _____ _____    ______ ____
ROOT
ATOM      1  C   UNL     1       5.386   7.350  17.563  0.00  0.00    +0.000 C 
ENDROOT
BRANCH   1   2
ATOM      2  C   UNL     1       6.851   7.014  17.241  0.00  0.00    +0.000 C 
ATOM      3  C   UNL     1       7.628   6.598  18.500  0.00  0.00    +0.000 C 
ATOM      4  C   UNL     1       7.946   5.145  18.566  0.00  0.00    +0.000 C 
ATOM      5  C   UNL     1       7.698   4.324  17.547  0.00  0.00    +0.000 C 
ATOM      6  C   UNL     1       7.123   4.776  16.296  0.00  0.00    +0.000 C 
ATOM      7  C   UNL     1       6.827   3.894  15.328  0.00  0.00    +0.000 C 
ATOM      8  O   UNL     1       6.936   6.122  16.124  0.00  0.00    +0.000 OA
BRANCH   7   9
ATOM      9  C   UNL     1       6.232   4.148  13.986  0.00  0.00    +0.000 C 
ATOM     10  C   UNL     1       7.070   4.413  12.763  0.00  0.00    +0.000 C 
ATOM     11  O   UNL     1       5.000   4.124  13.899  0.00  0.00    +0.000 OA
ENDBRANCH   7   9
ENDBRANCH   1   2
BRANCH   1  12
ATOM     12  C   UNL     1       4.398   6.559  16.706  0.00  0.00    +0.000 C 
BRANCH  12  13
ATOM     13  C   UNL     1       3.535   5.645  17.570  0.00  0.00    +0.000 C 
BRANCH  13  14
ATOM     14  C   UNL     1       3.861   5.845  19.046  0.00  0.00    +0.000 C 
BRANCH  14  15
ATOM     15  C   UNL     1       2.640   6.348  19.807  0.00  0.00    +0.000 C 
BRANCH  15  16
ATOM     16  C   UNL     1       1.704   5.195  20.138  0.00  0.00    +0.000 C 
BRANCH  16  17
ATOM     17  C   UNL     1       2.216   4.434  21.352  0.00  0.00    +0.000 C 
BRANCH  17  18
ATOM     18  C   UNL     1       1.994   2.937  21.181  0.00  0.00    +0.000 C 
BRANCH  18  19
ATOM     19  C   UNL     1       1.294   2.647  19.855  0.00  0.00    +0.000 C 
BRANCH  19  21
ATOM     20  C   UNL     1       2.397   2.373  17.622  0.00  0.00    +0.000 C 
ATOM     21  C   UNL     1       2.135   1.731  18.975  0.00  0.00    +0.000 C 
ENDBRANCH  19  21
ENDBRANCH  18  19
ENDBRANCH  17  18
ENDBRANCH  16  17
ENDBRANCH  15  16
ENDBRANCH  14  15
ENDBRANCH  13  14
ENDBRANCH  12  13
ENDBRANCH   1  12
TORSDOF 11
ENDMDL
MODEL 9
REMARK VINA RESULT:      -5.7      1.077      1.490
REMARK  Name = 
REMARK  13 active torsions:
REMARK  status: ('A' for Active; 'I' for Inactive)
REMARK    1  A    between atoms: C_1  and  C_2
REMARK    2  A    between atoms: C_2  and  C_3
REMARK    3  A    between atoms: C_3  and  C_4
REMARK    4  A    between atoms: C_4  and  C_5
REMARK    5  A    between atoms: C_5  and  C_6
REMARK    6  A    between atoms: C_6  and  C_7
REMARK    7  A    between atoms: C_7  and  C_8
REMARK    8  A    between atoms: C_8  and  C_9
REMARK    9  A    between atoms: C_9  and  C_10
REMARK   10  A    between atoms: C_10  and  C_11
REMARK   11  A    between atoms: C_11  and  C_12
REMARK   12  A    between atoms: C_17  and  C_18
REMARK   13  A    between atoms: C_18  and  C_19
REMARK                            x       y       z     vdW  Elec       q    Type
REMARK                         _______ _______ _______ _____ _____    ______ ____
ROOT
ATOM      1  C   UNL     1       4.546   7.142  16.927  0.00  0.00    +0.000 C 
ENDROOT
BRANCH   1   2
ATOM      2  C   UNL     1       6.065   6.961  17.080  0.00  0.00    +0.000 C 
ATOM      3  C   UNL     1       6.441   6.488  18.492  0.00  0.00    +0.000 C 
ATOM      4  C   UNL     1       6.878   5.066  18.562  0.00  0.00    +0.000 C 
ATOM      5  C   UNL     1       7.059   4.332  17.466  0.00  0.00    +0.000 C 
ATOM      6  C   UNL     1       6.867   4.857  16.128  0.00  0.00    +0.000 C 
ATOM      7  C   UNL     1       6.993   4.053  15.060  0.00  0.00    +0.000 C 
ATOM      8  O   UNL     1       6.598   6.194  15.994  0.00  0.00    +0.000 OA
BRANCH   7   9
ATOM      9  C   UNL     1       6.832   4.389  13.618  0.00  0.00    +0.000 C 
ATOM     10  C   UNL     1       5.874   3.658  12.715  0.00  0.00    +0.000 C 
ATOM     11  O   UNL     1       7.517   5.316  13.173  0.00  0.00    +0.000 OA
ENDBRANCH   7   9
ENDBRANCH   1   2
BRANCH   1  12
ATOM     12  C   UNL     1       3.755   6.460  18.042  0.00  0.00    +0.000 C 
BRANCH  12  13
ATOM     13  C   UNL     1       3.245   5.093  17.594  0.00  0.00    +0.000 C 
BRANCH  13  14
ATOM     14  C   UNL     1       1.777   4.924  17.972  0.00  0.00    +0.000 C 
BRANCH  14  15
ATOM     15  C   UNL     1       1.381   3.453  17.956  0.00  0.00    +0.000 C 
BRANCH  15  16
ATOM     16  C   UNL     1       2.546   2.589  17.495  0.00  0.00    +0.000 C 
BRANCH  16  17
ATOM     17  C   UNL     1       2.901   1.570  18.567  0.00  0.00    +0.000 C 
BRANCH  17  18
ATOM     18  C   UNL     1       4.259   1.886  19.179  0.00  0.00    +0.000 C 
BRANCH  18  19
ATOM     19  C   UNL     1       4.109   2.859  20.347  0.00  0.00    +0.000 C 
BRANCH  19  21
ATOM     20  C   UNL     1       2.100   3.793  21.516  0.00  0.00    +0.000 C 
ATOM     21  C   UNL     1       2.878   2.531  21.183  0.00  0.00    +0.000 C 
ENDBRANCH  19  21
ENDBRANCH  18  19
ENDBRANCH  17  18
ENDBRANCH  16  17
ENDBRANCH  15  16
ENDBRANCH  14  15
ENDBRANCH  13  14
ENDBRANCH  12  13
ENDBRANCH   1  12
TORSDOF 11
ENDMDL
