MODEL 1
REMARK VINA RESULT:      -6.6      0.000      0.000
REMARK  Name = 
REMARK  3 active torsions:
REMARK  status: ('A' for Active; 'I' for Inactive)
REMARK    1  A    between atoms: C_1  and  N_2
REMARK    2  A    between atoms: C_7  and  C_8
REMARK    3  A    between atoms: C_14  and  C_16
REMARK                            x       y       z     vdW  Elec       q    Type
REMARK                         _______ _______ _______ _____ _____    ______ ____
ROOT
ATOM      1  C   UNL     1       3.967   6.360  17.663  0.00  0.00    +0.000 C 
ATOM      2  O   UNL     1       4.486   6.608  16.575  0.00  0.00    +0.000 OA
ATOM      3  N   UNL     1       3.157   7.318  18.273  0.00  0.00    +0.000 N 
ATOM      4  C   UNL     1       2.835   8.544  17.528  0.00  0.00    +0.000 C 
ATOM      5  C   UNL     1       1.396   9.004  17.810  0.00  0.00    +0.000 C 
ATOM      6  N   UNL     1       1.097   9.059  19.247  0.00  0.00    +0.000 N 
ATOM      7  C   UNL     1       0.027   9.870  19.657  0.00  0.00    +0.000 C 
ATOM      8  O   UNL     1      -0.661  10.469  18.830  0.00  0.00    +0.000 OA
ATOM      9  C   UNL     1       1.487   7.847  19.992  0.00  0.00    +0.000 C 
ATOM     10  C   UNL     1       2.944   7.453  19.714  0.00  0.00    +0.000 C 
ENDROOT
BRANCH   1  17
ATOM     11  C   UNL     1       6.475   5.278  19.321  0.00  0.00    +0.000 C 
ATOM     12  N   UNL     1       5.237   4.604  19.006  0.00  0.00    +0.000 N 
ATOM     13  N   UNL     1       5.074   3.363  19.515  0.00  0.00    +0.000 NA
ATOM     14  C   UNL     1       3.811   3.063  19.220  0.00  0.00    +0.000 A 
ATOM     15  C   UNL     1       3.206   4.072  18.465  0.00  0.00    +0.000 A 
ATOM     16 BR   UNL     1       1.435   3.987  17.865  0.00  0.00    +0.000 Br
ATOM     17  C   UNL     1       4.152   5.067  18.291  0.00  0.00    +0.000 A 
ENDBRANCH   1  17
BRANCH   7  18
ATOM     18  C   UNL     1      -0.246   9.963  21.082  0.00  0.00    +0.000 A 
ATOM     19  C   UNL     1      -0.143   9.019  22.085  0.00  0.00    +0.000 A 
ATOM     20  C   UNL     1      -0.532   9.650  23.291  0.00  0.00    +0.000 A 
ATOM     21  C   UNL     1      -0.892  10.931  22.951  0.00  0.00    +0.000 A 
ATOM     22  O   UNL     1      -0.747  11.125  21.617  0.00  0.00    +0.000 OA
ENDBRANCH   7  18
TORSDOF 2
ENDMDL
MODEL 2
REMARK VINA RESULT:      -6.4      1.457      1.831
REMARK  Name = 
REMARK  3 active torsions:
REMARK  status: ('A' for Active; 'I' for Inactive)
REMARK    1  A    between atoms: C_1  and  N_2
REMARK    2  A    between atoms: C_7  and  C_8
REMARK    3  A    between atoms: C_14  and  C_16
REMARK                            x       y       z     vdW  Elec       q    Type
REMARK                         _______ _______ _______ _____ _____    ______ ____
ROOT
ATOM      1  C   UNL     1       3.683   6.372  17.787  0.00  0.00    +0.000 C 
ATOM      2  O   UNL     1       4.252   6.598  16.720  0.00  0.00    +0.000 OA
ATOM      3  N   UNL     1       2.915   7.372  18.383  0.00  0.00    +0.000 N 
ATOM      4  C   UNL     1       2.696   8.624  17.644  0.00  0.00    +0.000 C 
ATOM      5  C   UNL     1       1.279   9.171  17.886  0.00  0.00    +0.000 C 
ATOM      6  N   UNL     1       0.938   9.228  19.312  0.00  0.00    +0.000 N 
ATOM      7  C   UNL     1      -0.093  10.101  19.699  0.00  0.00    +0.000 C 
ATOM      8  O   UNL     1      -0.714  10.752  18.858  0.00  0.00    +0.000 OA
ATOM      9  C   UNL     1       1.226   7.987  20.054  0.00  0.00    +0.000 C 
ATOM     10  C   UNL     1       2.664   7.505  19.818  0.00  0.00    +0.000 C 
ENDROOT
BRANCH   1  17
ATOM     11  C   UNL     1       1.502   4.035  17.833  0.00  0.00    +0.000 C 
ATOM     12  N   UNL     1       2.821   4.057  18.421  0.00  0.00    +0.000 N 
ATOM     13  N   UNL     1       3.230   2.926  19.037  0.00  0.00    +0.000 NA
ATOM     14  C   UNL     1       4.508   3.165  19.323  0.00  0.00    +0.000 A 
ATOM     15  C   UNL     1       4.881   4.463  18.961  0.00  0.00    +0.000 A 
ATOM     16 BR   UNL     1       6.603   5.149  19.221  0.00  0.00    +0.000 Br
ATOM     17  C   UNL     1       3.766   5.062  18.404  0.00  0.00    +0.000 A 
ENDBRANCH   1  17
BRANCH   7  18
ATOM     18  C   UNL     1      -0.406  10.196  21.115  0.00  0.00    +0.000 A 
ATOM     19  C   UNL     1      -0.264   9.275  22.135  0.00  0.00    +0.000 A 
ATOM     20  C   UNL     1      -0.724   9.895  23.321  0.00  0.00    +0.000 A 
ATOM     21  C   UNL     1      -1.161  11.144  22.953  0.00  0.00    +0.000 A 
ATOM     22  O   UNL     1      -0.997  11.328  21.620  0.00  0.00    +0.000 OA
ENDBRANCH   7  18
TORSDOF 2
ENDMDL
MODEL 3
REMARK VINA RESULT:      -6.2      2.953      7.607
REMARK  Name = 
REMARK  3 active torsions:
REMARK  status: ('A' for Active; 'I' for Inactive)
REMARK    1  A    between atoms: C_1  and  N_2
REMARK    2  A    between atoms: C_7  and  C_8
REMARK    3  A    between atoms: C_14  and  C_16
REMARK                            x       y       z     vdW  Elec       q    Type
REMARK                         _______ _______ _______ _____ _____    ______ ____
ROOT
ATOM      1  C   UNL     1       0.102  10.170  20.343  0.00  0.00    +0.000 C 
ATOM      2  O   UNL     1      -0.350  10.232  21.486  0.00  0.00    +0.000 OA
ATOM      3  N   UNL     1       1.033   9.183  20.025  0.00  0.00    +0.000 N 
ATOM      4  C   UNL     1       1.341   8.155  21.031  0.00  0.00    +0.000 C 
ATOM      5  C   UNL     1       1.571   6.785  20.374  0.00  0.00    +0.000 C 
ATOM      6  N   UNL     1       2.518   6.854  19.253  0.00  0.00    +0.000 N 
ATOM      7  C   UNL     1       3.159   5.664  18.870  0.00  0.00    +0.000 C 
ATOM      8  O   UNL     1       2.892   4.599  19.428  0.00  0.00    +0.000 OA
ATOM      9  C   UNL     1       2.235   7.932  18.288  0.00  0.00    +0.000 C 
ATOM     10  C   UNL     1       2.057   9.288  18.985  0.00  0.00    +0.000 C 
ENDROOT
BRANCH   1  17
ATOM     11  C   UNL     1      -2.263   9.781  18.228  0.00  0.00    +0.000 C 
ATOM     12  N   UNL     1      -1.381  10.911  18.405  0.00  0.00    +0.000 N 
ATOM     13  N   UNL     1      -1.601  11.983  17.612  0.00  0.00    +0.000 NA
ATOM     14  C   UNL     1      -0.780  12.911  18.099  0.00  0.00    +0.000 A 
ATOM     15  C   UNL     1       0.007  12.406  19.139  0.00  0.00    +0.000 A 
ATOM     16 BR   UNL     1       1.279  13.428  20.056  0.00  0.00    +0.000 Br
ATOM     17  C   UNL     1      -0.360  11.084  19.316  0.00  0.00    +0.000 A 
ENDBRANCH   1  17
BRANCH   7  18
ATOM     18  C   UNL     1       4.130   5.734  17.791  0.00  0.00    +0.000 A 
ATOM     19  C   UNL     1       4.323   4.913  16.697  0.00  0.00    +0.000 A 
ATOM     20  C   UNL     1       5.410   5.447  15.964  0.00  0.00    +0.000 A 
ATOM     21  C   UNL     1       5.847   6.539  16.674  0.00  0.00    +0.000 A 
ATOM     22  O   UNL     1       5.097   6.707  17.791  0.00  0.00    +0.000 OA
ENDBRANCH   7  18
TORSDOF 2
ENDMDL
MODEL 4
REMARK VINA RESULT:      -6.1      2.735      3.781
REMARK  Name = 
REMARK  3 active torsions:
REMARK  status: ('A' for Active; 'I' for Inactive)
REMARK    1  A    between atoms: C_1  and  N_2
REMARK    2  A    between atoms: C_7  and  C_8
REMARK    3  A    between atoms: C_14  and  C_16
REMARK                            x       y       z     vdW  Elec       q    Type
REMARK                         _______ _______ _______ _____ _____    ______ ____
ROOT
ATOM      1  C   UNL     1       4.504   4.163  17.488  0.00  0.00    +0.000 C 
ATOM      2  O   UNL     1       4.272   2.963  17.631  0.00  0.00    +0.000 OA
ATOM      3  N   UNL     1       3.613   5.101  18.007  0.00  0.00    +0.000 N 
ATOM      4  C   UNL     1       2.493   4.627  18.833  0.00  0.00    +0.000 C 
ATOM      5  C   UNL     1       2.196   5.604  19.982  0.00  0.00    +0.000 C 
ATOM      6  N   UNL     1       2.075   6.992  19.519  0.00  0.00    +0.000 N 
ATOM      7  C   UNL     1       1.376   7.892  20.339  0.00  0.00    +0.000 C 
ATOM      8  O   UNL     1       0.927   7.532  21.428  0.00  0.00    +0.000 OA
ATOM      9  C   UNL     1       3.172   7.433  18.636  0.00  0.00    +0.000 C 
ATOM     10  C   UNL     1       3.401   6.450  17.480  0.00  0.00    +0.000 C 
ENDROOT
BRANCH   1  17
ATOM     11  C   UNL     1       5.144   4.309  14.360  0.00  0.00    +0.000 C 
ATOM     12  N   UNL     1       5.987   4.668  15.477  0.00  0.00    +0.000 N 
ATOM     13  N   UNL     1       7.199   5.187  15.180  0.00  0.00    +0.000 NA
ATOM     14  C   UNL     1       7.674   5.578  16.361  0.00  0.00    +0.000 A 
ATOM     15  C   UNL     1       6.805   5.238  17.402  0.00  0.00    +0.000 A 
ATOM     16 BR   UNL     1       7.152   5.626  19.200  0.00  0.00    +0.000 Br
ATOM     17  C   UNL     1       5.715   4.607  16.828  0.00  0.00    +0.000 A 
ENDBRANCH   1  17
BRANCH   7  18
ATOM     18  C   UNL     1       1.214   9.257  19.866  0.00  0.00    +0.000 A 
ATOM     19  C   UNL     1       1.195   9.771  18.584  0.00  0.00    +0.000 A 
ATOM     20  C   UNL     1       1.004  11.169  18.700  0.00  0.00    +0.000 A 
ATOM     21  C   UNL     1       0.959  11.436  20.046  0.00  0.00    +0.000 A 
ATOM     22  O   UNL     1       1.109  10.293  20.760  0.00  0.00    +0.000 OA
ENDBRANCH   7  18
TORSDOF 2
ENDMDL
MODEL 5
REMARK VINA RESULT:      -6.0      5.152      6.910
REMARK  Name = 
REMARK  3 active torsions:
REMARK  status: ('A' for Active; 'I' for Inactive)
REMARK    1  A    between atoms: C_1  and  N_2
REMARK    2  A    between atoms: C_7  and  C_8
REMARK    3  A    between atoms: C_14  and  C_16
REMARK                            x       y       z     vdW  Elec       q    Type
REMARK                         _______ _______ _______ _____ _____    ______ ____
ROOT
ATOM      1  C   UNL     1      -0.292  10.844  19.028  0.00  0.00    +0.000 C 
ATOM      2  O   UNL     1      -1.403  10.632  18.543  0.00  0.00    +0.000 OA
ATOM      3  N   UNL     1       0.295  12.100  18.880  0.00  0.00    +0.000 N 
ATOM      4  C   UNL     1      -0.496  13.178  18.268  0.00  0.00    +0.000 C 
ATOM      5  C   UNL     1      -0.197  14.532  18.931  0.00  0.00    +0.000 C 
ATOM      6  N   UNL     1       1.243  14.802  19.029  0.00  0.00    +0.000 N 
ATOM      7  C   UNL     1       1.644  16.140  19.178  0.00  0.00    +0.000 C 
ATOM      8  O   UNL     1       0.808  17.040  19.273  0.00  0.00    +0.000 OA
ATOM      9  C   UNL     1       2.031  13.686  19.582  0.00  0.00    +0.000 C 
ATOM     10  C   UNL     1       1.733  12.366  18.859  0.00  0.00    +0.000 C 
ENDROOT
BRANCH   1  17
ATOM     11  C   UNL     1       1.877   8.718  18.032  0.00  0.00    +0.000 C 
ATOM     12  N   UNL     1       1.324   8.899  19.354  0.00  0.00    +0.000 N 
ATOM     13  N   UNL     1       1.815   8.105  20.332  0.00  0.00    +0.000 NA
ATOM     14  C   UNL     1       1.270   8.597  21.443  0.00  0.00    +0.000 A 
ATOM     15  C   UNL     1       0.383   9.640  21.162  0.00  0.00    +0.000 A 
ATOM     16 BR   UNL     1      -0.571  10.564  22.481  0.00  0.00    +0.000 Br
ATOM     17  C   UNL     1       0.389   9.815  19.789  0.00  0.00    +0.000 A 
ENDBRANCH   1  17
BRANCH   7  18
ATOM     18  C   UNL     1       3.070  16.419  19.230  0.00  0.00    +0.000 A 
ATOM     19  C   UNL     1       4.022  16.442  18.229  0.00  0.00    +0.000 A 
ATOM     20  C   UNL     1       5.255  16.776  18.838  0.00  0.00    +0.000 A 
ATOM     21  C   UNL     1       4.997  16.896  20.181  0.00  0.00    +0.000 A 
ATOM     22  O   UNL     1       3.685  16.659  20.433  0.00  0.00    +0.000 OA
ENDBRANCH   7  18
TORSDOF 2
ENDMDL
MODEL 6
REMARK VINA RESULT:      -6.0      4.376      7.949
REMARK  Name = 
REMARK  3 active torsions:
REMARK  status: ('A' for Active; 'I' for Inactive)
REMARK    1  A    between atoms: C_1  and  N_2
REMARK    2  A    between atoms: C_7  and  C_8
REMARK    3  A    between atoms: C_14  and  C_16
REMARK                            x       y       z     vdW  Elec       q    Type
REMARK                         _______ _______ _______ _____ _____    ______ ____
ROOT
ATOM      1  C   UNL     1       3.963   5.324  19.161  0.00  0.00    +0.000 C 
ATOM      2  O   UNL     1       4.248   6.291  19.866  0.00  0.00    +0.000 OA
ATOM      3  N   UNL     1       4.471   5.244  17.865  0.00  0.00    +0.000 N 
ATOM      4  C   UNL     1       5.449   6.253  17.430  0.00  0.00    +0.000 C 
ATOM      5  C   UNL     1       6.518   5.632  16.515  0.00  0.00    +0.000 C 
ATOM      6  N   UNL     1       5.931   4.833  15.431  0.00  0.00    +0.000 N 
ATOM      7  C   UNL     1       6.723   4.600  14.295  0.00  0.00    +0.000 C 
ATOM      8  O   UNL     1       7.883   5.013  14.241  0.00  0.00    +0.000 OA
ATOM      9  C   UNL     1       4.904   3.873  15.876  0.00  0.00    +0.000 C 
ATOM     10  C   UNL     1       3.835   4.546  16.747  0.00  0.00    +0.000 C 
ENDROOT
BRANCH   1  17
ATOM     11  C   UNL     1       4.702   2.234  19.517  0.00  0.00    +0.000 C 
ATOM     12  N   UNL     1       3.467   2.914  19.832  0.00  0.00    +0.000 N 
ATOM     13  N   UNL     1       2.494   2.172  20.406  0.00  0.00    +0.000 NA
ATOM     14  C   UNL     1       1.566   3.067  20.737  0.00  0.00    +0.000 A 
ATOM     15  C   UNL     1       1.915   4.351  20.308  0.00  0.00    +0.000 A 
ATOM     16 BR   UNL     1       0.843   5.859  20.595  0.00  0.00    +0.000 Br
ATOM     17  C   UNL     1       3.144   4.247  19.681  0.00  0.00    +0.000 A 
ENDBRANCH   1  17
BRANCH   7  18
ATOM     18  C   UNL     1       6.133   3.848  13.200  0.00  0.00    +0.000 A 
ATOM     19  C   UNL     1       6.695   2.939  12.324  0.00  0.00    +0.000 A 
ATOM     20  C   UNL     1       5.663   2.507  11.456  0.00  0.00    +0.000 A 
ATOM     21  C   UNL     1       4.540   3.207  11.823  0.00  0.00    +0.000 A 
ATOM     22  O   UNL     1       4.817   4.037  12.858  0.00  0.00    +0.000 OA
ENDBRANCH   7  18
TORSDOF 2
ENDMDL
MODEL 7
REMARK VINA RESULT:      -6.0      2.374      3.311
REMARK  Name = 
REMARK  3 active torsions:
REMARK  status: ('A' for Active; 'I' for Inactive)
REMARK    1  A    between atoms: C_1  and  N_2
REMARK    2  A    between atoms: C_7  and  C_8
REMARK    3  A    between atoms: C_14  and  C_16
REMARK                            x       y       z     vdW  Elec       q    Type
REMARK                         _______ _______ _______ _____ _____    ______ ____
ROOT
ATOM      1  C   UNL     1       4.438   4.364  17.897  0.00  0.00    +0.000 C 
ATOM      2  O   UNL     1       4.228   3.162  18.061  0.00  0.00    +0.000 OA
ATOM      3  N   UNL     1       3.505   5.294  18.352  0.00  0.00    +0.000 N 
ATOM      4  C   UNL     1       2.361   4.814  19.142  0.00  0.00    +0.000 C 
ATOM      5  C   UNL     1       1.993   5.813  20.251  0.00  0.00    +0.000 C 
ATOM      6  N   UNL     1       1.862   7.186  19.746  0.00  0.00    +0.000 N 
ATOM      7  C   UNL     1       1.107   8.090  20.512  0.00  0.00    +0.000 C 
ATOM      8  O   UNL     1       0.620   7.747  21.591  0.00  0.00    +0.000 OA
ATOM      9  C   UNL     1       2.985   7.629  18.900  0.00  0.00    +0.000 C 
ATOM     10  C   UNL     1       3.286   6.623  17.781  0.00  0.00    +0.000 C 
ENDROOT
BRANCH   1  17
ATOM     11  C   UNL     1       7.042   5.599  19.279  0.00  0.00    +0.000 C 
ATOM     12  N   UNL     1       6.788   5.353  17.879  0.00  0.00    +0.000 N 
ATOM     13  N   UNL     1       7.797   5.627  17.022  0.00  0.00    +0.000 NA
ATOM     14  C   UNL     1       7.360   5.154  15.856  0.00  0.00    +0.000 A 
ATOM     15  C   UNL     1       6.058   4.656  15.960  0.00  0.00    +0.000 A 
ATOM     16 BR   UNL     1       5.120   3.917  14.518  0.00  0.00    +0.000 Br
ATOM     17  C   UNL     1       5.667   4.819  17.277  0.00  0.00    +0.000 A 
ENDBRANCH   1  17
BRANCH   7  18
ATOM     18  C   UNL     1       0.936   9.438  19.996  0.00  0.00    +0.000 A 
ATOM     19  C   UNL     1       0.577   9.884  18.740  0.00  0.00    +0.000 A 
ATOM     20  C   UNL     1       0.558  11.299  18.791  0.00  0.00    +0.000 A 
ATOM     21  C   UNL     1       0.948  11.638  20.064  0.00  0.00    +0.000 A 
ATOM     22  O   UNL     1       1.202  10.523  20.793  0.00  0.00    +0.000 OA
ENDBRANCH   7  18
TORSDOF 2
ENDMDL
MODEL 8
REMARK VINA RESULT:      -6.0      3.302      7.599
REMARK  Name = 
REMARK  3 active torsions:
REMARK  status: ('A' for Active; 'I' for Inactive)
REMARK    1  A    between atoms: C_1  and  N_2
REMARK    2  A    between atoms: C_7  and  C_8
REMARK    3  A    between atoms: C_14  and  C_16
REMARK                            x       y       z     vdW  Elec       q    Type
REMARK                         _______ _______ _______ _____ _____    ______ ____
ROOT
ATOM      1  C   UNL     1       0.349  11.022  20.911  0.00  0.00    +0.000 C 
ATOM      2  O   UNL     1       0.030  11.360  22.051  0.00  0.00    +0.000 OA
ATOM      3  N   UNL     1       1.016   9.813  20.715  0.00  0.00    +0.000 N 
ATOM      4  C   UNL     1       1.193   8.912  21.863  0.00  0.00    +0.000 C 
ATOM      5  C   UNL     1       1.066   7.440  21.439  0.00  0.00    +0.000 C 
ATOM      6  N   UNL     1       1.895   7.120  20.270  0.00  0.00    +0.000 N 
ATOM      7  C   UNL     1       2.231   5.773  20.061  0.00  0.00    +0.000 C 
ATOM      8  O   UNL     1       1.798   4.894  20.808  0.00  0.00    +0.000 OA
ATOM      9  C   UNL     1       1.757   8.072  19.152  0.00  0.00    +0.000 C 
ATOM     10  C   UNL     1       1.937   9.524  19.615  0.00  0.00    +0.000 C 
ENDROOT
BRANCH   1  17
ATOM     11  C   UNL     1      -1.721  10.405  18.556  0.00  0.00    +0.000 C 
ATOM     12  N   UNL     1      -0.897  11.574  18.757  0.00  0.00    +0.000 N 
ATOM     13  N   UNL     1      -1.043  12.580  17.866  0.00  0.00    +0.000 NA
ATOM     14  C   UNL     1      -0.313  13.568  18.381  0.00  0.00    +0.000 A 
ATOM     15  C   UNL     1       0.349  13.164  19.544  0.00  0.00    +0.000 A 
ATOM     16 BR   UNL     1       1.471  14.290  20.533  0.00  0.00    +0.000 Br
ATOM     17  C   UNL     1      -0.003  11.845  19.771  0.00  0.00    +0.000 A 
ENDBRANCH   1  17
BRANCH   7  18
ATOM     18  C   UNL     1       3.089   5.454  18.932  0.00  0.00    +0.000 A 
ATOM     19  C   UNL     1       2.822   4.777  17.758  0.00  0.00    +0.000 A 
ATOM     20  C   UNL     1       4.022   4.757  17.008  0.00  0.00    +0.000 A 
ATOM     21  C   UNL     1       4.965   5.386  17.782  0.00  0.00    +0.000 A 
ATOM     22  O   UNL     1       4.420   5.790  18.957  0.00  0.00    +0.000 OA
ENDBRANCH   7  18
TORSDOF 2
ENDMDL
MODEL 9
REMARK VINA RESULT:      -6.0      5.461      7.877
REMARK  Name = 
REMARK  3 active torsions:
REMARK  status: ('A' for Active; 'I' for Inactive)
REMARK    1  A    between atoms: C_1  and  N_2
REMARK    2  A    between atoms: C_7  and  C_8
REMARK    3  A    between atoms: C_14  and  C_16
REMARK                            x       y       z     vdW  Elec       q    Type
REMARK                         _______ _______ _______ _____ _____    ______ ____
ROOT
ATOM      1  C   UNL     1      -0.698  11.773  20.171  0.00  0.00    +0.000 C 
ATOM      2  O   UNL     1      -1.832  11.681  19.702  0.00  0.00    +0.000 OA
ATOM      3  N   UNL     1       0.211  12.665  19.603  0.00  0.00    +0.000 N 
ATOM      4  C   UNL     1      -0.261  13.573  18.546  0.00  0.00    +0.000 C 
ATOM      5  C   UNL     1       0.412  14.951  18.656  0.00  0.00    +0.000 C 
ATOM      6  N   UNL     1       1.872  14.853  18.779  0.00  0.00    +0.000 N 
ATOM      7  C   UNL     1       2.630  15.983  18.433  0.00  0.00    +0.000 C 
ATOM      8  O   UNL     1       2.078  17.030  18.089  0.00  0.00    +0.000 OA
ATOM      9  C   UNL     1       2.330  13.889  19.796  0.00  0.00    +0.000 C 
ATOM     10  C   UNL     1       1.666  12.516  19.619  0.00  0.00    +0.000 C 
ENDROOT
BRANCH   1  17
ATOM     11  C   UNL     1      -1.588  12.157  23.217  0.00  0.00    +0.000 C 
ATOM     12  N   UNL     1      -0.702  11.168  22.648  0.00  0.00    +0.000 N 
ATOM     13  N   UNL     1      -0.211  10.235  23.493  0.00  0.00    +0.000 NA
ATOM     14  C   UNL     1       0.413   9.376  22.689  0.00  0.00    +0.000 A 
ATOM     15  C   UNL     1       0.383   9.804  21.359  0.00  0.00    +0.000 A 
ATOM     16 BR   UNL     1       1.167   8.848  19.953  0.00  0.00    +0.000 Br
ATOM     17  C   UNL     1      -0.316  10.998  21.334  0.00  0.00    +0.000 A 
ENDBRANCH   1  17
BRANCH   7  18
ATOM     18  C   UNL     1       4.078  15.879  18.510  0.00  0.00    +0.000 A 
ATOM     19  C   UNL     1       4.997  16.600  19.246  0.00  0.00    +0.000 A 
ATOM     20  C   UNL     1       6.276  16.077  18.942  0.00  0.00    +0.000 A 
ATOM     21  C   UNL     1       6.071  15.094  18.004  0.00  0.00    +0.000 A 
ATOM     22  O   UNL     1       4.750  14.982  17.718  0.00  0.00    +0.000 OA
ENDBRANCH   7  18
TORSDOF 2
ENDMDL
