MODEL 1
REMARK VINA RESULT:      -6.9      0.000      0.000
REMARK  Name = 
REMARK  6 active torsions:
REMARK  status: ('A' for Active; 'I' for Inactive)
REMARK    1  A    between atoms: C_1  and  C_2
REMARK    2  A    between atoms: C_2  and  C_3
REMARK    3  A    between atoms: C_2  and  C_4
REMARK    4  A    between atoms: C_8  and  O_9
REMARK    5  A    between atoms: O_9  and  C_10
REMARK    6  A    between atoms: C_17  and  C_18
REMARK                            x       y       z     vdW  Elec       q    Type
REMARK                         _______ _______ _______ _____ _____    ______ ____
ROOT
ATOM      1  C   UNL     1       6.449   5.180  18.650  0.00  0.00    +0.000 C 
ATOM      2  O   UNL     1       5.792   4.919  19.657  0.00  0.00    +0.000 OA
ATOM      3  N   UNL     1       6.013   4.821  17.383  0.00  0.00    +0.000 N 
ATOM      4  C   UNL     1       6.835   4.972  16.205  0.00  0.00    +0.000 C 
ATOM      5  C   UNL     1       5.945   4.534  15.069  0.00  0.00    +0.000 C 
ATOM      6  C   UNL     1       5.273   3.314  15.690  0.00  0.00    +0.000 C 
ATOM      7  C   UNL     1       5.062   3.707  17.178  0.00  0.00    +0.000 C 
ENDROOT
BRANCH   7   8
ATOM      8  C   UNL     1       3.527   3.856  17.430  0.00  0.00    +0.000 C 
ATOM      9  O   UNL     1       2.843   4.663  16.802  0.00  0.00    +0.000 OA
ATOM     10  N   UNL     1       2.969   2.945  18.340  0.00  0.00    +0.000 N 
ATOM     11  C   UNL     1       1.527   2.938  18.600  0.00  0.00    +0.000 C 
ATOM     12  C   UNL     1       1.262   3.288  20.071  0.00  0.00    +0.000 C 
ATOM     13  O   UNL     1       1.959   2.382  20.947  0.00  0.00    +0.000 OA
ATOM     14  C   UNL     1       3.375   2.431  20.715  0.00  0.00    +0.000 C 
ATOM     15  C   UNL     1       3.707   2.066  19.264  0.00  0.00    +0.000 C 
ENDBRANCH   7   8
BRANCH   1  17
ATOM     16  C   UNL     1       7.876   7.310  18.309  0.00  0.00    +0.000 C 
ATOM     17  C   UNL     1       7.846   5.841  18.730  0.00  0.00    +0.000 C 
ATOM     18  C   UNL     1       8.464   5.662  20.112  0.00  0.00    +0.000 C 
ENDBRANCH   1  17
BRANCH   5  19
ATOM     19  O   UNL     1       6.710   4.195  13.915  0.00  0.00    +0.000 OA
BRANCH  19  20
ATOM     20  C   UNL     1       5.984   3.615  12.904  0.00  0.00    +0.000 A 
ATOM     21  C   UNL     1       6.528   2.468  12.318  0.00  0.00    +0.000 A 
ATOM     22  C   UNL     1       5.834   1.793  11.311  0.00  0.00    +0.000 A 
ATOM     23  C   UNL     1       4.588   2.262  10.880  0.00  0.00    +0.000 A 
ATOM     24  C   UNL     1       4.044   3.401  11.453  0.00  0.00    +0.000 A 
ATOM     25  C   UNL     1       4.738   4.074  12.469  0.00  0.00    +0.000 A 
ENDBRANCH  19  20
ENDBRANCH   5  19
TORSDOF 4
ENDMDL
MODEL 2
REMARK VINA RESULT:      -6.8      3.459      6.388
REMARK  Name = 
REMARK  6 active torsions:
REMARK  status: ('A' for Active; 'I' for Inactive)
REMARK    1  A    between atoms: C_1  and  C_2
REMARK    2  A    between atoms: C_2  and  C_3
REMARK    3  A    between atoms: C_2  and  C_4
REMARK    4  A    between atoms: C_8  and  O_9
REMARK    5  A    between atoms: O_9  and  C_10
REMARK    6  A    between atoms: C_17  and  C_18
REMARK                            x       y       z     vdW  Elec       q    Type
REMARK                         _______ _______ _______ _____ _____    ______ ____
ROOT
ATOM      1  C   UNL     1       5.088   4.355  17.060  0.00  0.00    +0.000 C 
ATOM      2  O   UNL     1       4.948   3.181  16.721  0.00  0.00    +0.000 OA
ATOM      3  N   UNL     1       4.049   5.078  17.628  0.00  0.00    +0.000 N 
ATOM      4  C   UNL     1       4.137   6.496  17.888  0.00  0.00    +0.000 C 
ATOM      5  C   UNL     1       2.833   6.835  18.565  0.00  0.00    +0.000 C 
ATOM      6  C   UNL     1       1.858   6.014  17.728  0.00  0.00    +0.000 C 
ATOM      7  C   UNL     1       2.635   4.708  17.403  0.00  0.00    +0.000 C 
ENDROOT
BRANCH   7   8
ATOM      8  C   UNL     1       1.944   3.530  18.163  0.00  0.00    +0.000 C 
ATOM      9  O   UNL     1       1.068   2.845  17.637  0.00  0.00    +0.000 OA
ATOM     10  N   UNL     1       2.456   3.245  19.437  0.00  0.00    +0.000 N 
ATOM     11  C   UNL     1       1.941   2.114  20.214  0.00  0.00    +0.000 C 
ATOM     12  C   UNL     1       1.289   2.625  21.507  0.00  0.00    +0.000 C 
ATOM     13  O   UNL     1       2.221   3.410  22.275  0.00  0.00    +0.000 OA
ATOM     14  C   UNL     1       2.685   4.540  21.520  0.00  0.00    +0.000 C 
ATOM     15  C   UNL     1       3.369   4.092  20.225  0.00  0.00    +0.000 C 
ENDBRANCH   7   8
BRANCH   1  17
ATOM     16  C   UNL     1       7.503   4.885  17.820  0.00  0.00    +0.000 C 
ATOM     17  C   UNL     1       6.397   5.136  16.796  0.00  0.00    +0.000 C 
ATOM     18  C   UNL     1       6.908   4.893  15.380  0.00  0.00    +0.000 C 
ENDBRANCH   1  17
BRANCH   5  19
ATOM     19  O   UNL     1       2.560   8.233  18.488  0.00  0.00    +0.000 OA
BRANCH  19  20
ATOM     20  C   UNL     1       1.624   8.677  19.389  0.00  0.00    +0.000 A 
ATOM     21  C   UNL     1       1.637   8.082  20.654  0.00  0.00    +0.000 A 
ATOM     22  C   UNL     1       0.745   8.505  21.643  0.00  0.00    +0.000 A 
ATOM     23  C   UNL     1      -0.169   9.528  21.373  0.00  0.00    +0.000 A 
ATOM     24  C   UNL     1      -0.192  10.122  20.121  0.00  0.00    +0.000 A 
ATOM     25  C   UNL     1       0.709   9.701  19.130  0.00  0.00    +0.000 A 
ENDBRANCH  19  20
ENDBRANCH   5  19
TORSDOF 4
ENDMDL
MODEL 3
REMARK VINA RESULT:      -6.8      4.547      6.892
REMARK  Name = 
REMARK  6 active torsions:
REMARK  status: ('A' for Active; 'I' for Inactive)
REMARK    1  A    between atoms: C_1  and  C_2
REMARK    2  A    between atoms: C_2  and  C_3
REMARK    3  A    between atoms: C_2  and  C_4
REMARK    4  A    between atoms: C_8  and  O_9
REMARK    5  A    between atoms: O_9  and  C_10
REMARK    6  A    between atoms: C_17  and  C_18
REMARK                            x       y       z     vdW  Elec       q    Type
REMARK                         _______ _______ _______ _____ _____    ______ ____
ROOT
ATOM      1  C   UNL     1       4.849   5.797  17.529  0.00  0.00    +0.000 C 
ATOM      2  O   UNL     1       4.806   4.607  17.838  0.00  0.00    +0.000 OA
ATOM      3  N   UNL     1       3.833   6.676  17.874  0.00  0.00    +0.000 N 
ATOM      4  C   UNL     1       3.781   8.036  17.389  0.00  0.00    +0.000 C 
ATOM      5  C   UNL     1       2.571   8.630  18.067  0.00  0.00    +0.000 C 
ATOM      6  C   UNL     1       1.586   7.471  17.953  0.00  0.00    +0.000 C 
ATOM      7  C   UNL     1       2.460   6.202  18.152  0.00  0.00    +0.000 C 
ENDROOT
BRANCH   7   8
ATOM      8  C   UNL     1       2.058   5.542  19.510  0.00  0.00    +0.000 C 
ATOM      9  O   UNL     1       2.131   6.154  20.574  0.00  0.00    +0.000 OA
ATOM     10  N   UNL     1       1.518   4.250  19.421  0.00  0.00    +0.000 N 
ATOM     11  C   UNL     1       1.034   3.559  20.620  0.00  0.00    +0.000 C 
ATOM     12  C   UNL     1       1.866   2.291  20.861  0.00  0.00    +0.000 C 
ATOM     13  O   UNL     1       1.833   1.429  19.706  0.00  0.00    +0.000 OA
ATOM     14  C   UNL     1       2.350   2.101  18.549  0.00  0.00    +0.000 C 
ATOM     15  C   UNL     1       1.544   3.368  18.242  0.00  0.00    +0.000 C 
ENDBRANCH   7   8
BRANCH   1  17
ATOM     16  C   UNL     1       7.262   6.724  17.426  0.00  0.00    +0.000 C 
ATOM     17  C   UNL     1       5.988   6.379  16.657  0.00  0.00    +0.000 C 
ATOM     18  C   UNL     1       6.300   5.466  15.476  0.00  0.00    +0.000 C 
ENDBRANCH   1  17
BRANCH   5  19
ATOM     19  O   UNL     1       2.113   9.792  17.380  0.00  0.00    +0.000 OA
BRANCH  19  20
ATOM     20  C   UNL     1       1.904  10.882  18.188  0.00  0.00    +0.000 A 
ATOM     21  C   UNL     1       1.014  10.713  19.253  0.00  0.00    +0.000 A 
ATOM     22  C   UNL     1       0.776  11.760  20.147  0.00  0.00    +0.000 A 
ATOM     23  C   UNL     1       1.429  12.986  19.982  0.00  0.00    +0.000 A 
ATOM     24  C   UNL     1       2.310  13.164  18.928  0.00  0.00    +0.000 A 
ATOM     25  C   UNL     1       2.554  12.109  18.034  0.00  0.00    +0.000 A 
ENDBRANCH  19  20
ENDBRANCH   5  19
TORSDOF 4
ENDMDL
MODEL 4
REMARK VINA RESULT:      -6.7      4.594      6.841
REMARK  Name = 
REMARK  6 active torsions:
REMARK  status: ('A' for Active; 'I' for Inactive)
REMARK    1  A    between atoms: C_1  and  C_2
REMARK    2  A    between atoms: C_2  and  C_3
REMARK    3  A    between atoms: C_2  and  C_4
REMARK    4  A    between atoms: C_8  and  O_9
REMARK    5  A    between atoms: O_9  and  C_10
REMARK    6  A    between atoms: C_17  and  C_18
REMARK                            x       y       z     vdW  Elec       q    Type
REMARK                         _______ _______ _______ _____ _____    ______ ____
ROOT
ATOM      1  C   UNL     1       4.732   5.764  17.440  0.00  0.00    +0.000 C 
ATOM      2  O   UNL     1       4.717   4.569  17.735  0.00  0.00    +0.000 OA
ATOM      3  N   UNL     1       3.737   6.631  17.865  0.00  0.00    +0.000 N 
ATOM      4  C   UNL     1       3.646   7.997  17.404  0.00  0.00    +0.000 C 
ATOM      5  C   UNL     1       2.481   8.574  18.171  0.00  0.00    +0.000 C 
ATOM      6  C   UNL     1       1.497   7.411  18.106  0.00  0.00    +0.000 C 
ATOM      7  C   UNL     1       2.389   6.144  18.228  0.00  0.00    +0.000 C 
ENDROOT
BRANCH   7   8
ATOM      8  C   UNL     1       2.082   5.463  19.600  0.00  0.00    +0.000 C 
ATOM      9  O   UNL     1       2.235   6.057  20.667  0.00  0.00    +0.000 OA
ATOM     10  N   UNL     1       1.532   4.175  19.530  0.00  0.00    +0.000 N 
ATOM     11  C   UNL     1       1.132   3.465  20.749  0.00  0.00    +0.000 C 
ATOM     12  C   UNL     1       1.973   2.191  20.908  0.00  0.00    +0.000 C 
ATOM     13  O   UNL     1       1.852   1.348  19.745  0.00  0.00    +0.000 OA
ATOM     14  C   UNL     1       2.289   2.038  18.564  0.00  0.00    +0.000 C 
ATOM     15  C   UNL     1       1.468   3.312  18.337  0.00  0.00    +0.000 C 
ENDBRANCH   7   8
BRANCH   1  17
ATOM     16  C   UNL     1       7.145   6.660  17.179  0.00  0.00    +0.000 C 
ATOM     17  C   UNL     1       5.807   6.364  16.502  0.00  0.00    +0.000 C 
ATOM     18  C   UNL     1       6.008   5.496  15.265  0.00  0.00    +0.000 C 
ENDBRANCH   1  17
BRANCH   5  19
ATOM     19  O   UNL     1       1.972   9.742  17.532  0.00  0.00    +0.000 OA
BRANCH  19  20
ATOM     20  C   UNL     1       0.899  10.314  18.171  0.00  0.00    +0.000 A 
ATOM     21  C   UNL     1       1.188  11.209  19.205  0.00  0.00    +0.000 A 
ATOM     22  C   UNL     1       0.155  11.866  19.880  0.00  0.00    +0.000 A 
ATOM     23  C   UNL     1      -1.177  11.631  19.523  0.00  0.00    +0.000 A 
ATOM     24  C   UNL     1      -1.473  10.743  18.501  0.00  0.00    +0.000 A 
ATOM     25  C   UNL     1      -0.435  10.089  17.819  0.00  0.00    +0.000 A 
ENDBRANCH  19  20
ENDBRANCH   5  19
TORSDOF 4
ENDMDL
MODEL 5
REMARK VINA RESULT:      -6.7      8.178     10.156
REMARK  Name = 
REMARK  6 active torsions:
REMARK  status: ('A' for Active; 'I' for Inactive)
REMARK    1  A    between atoms: C_1  and  C_2
REMARK    2  A    between atoms: C_2  and  C_3
REMARK    3  A    between atoms: C_2  and  C_4
REMARK    4  A    between atoms: C_8  and  O_9
REMARK    5  A    between atoms: O_9  and  C_10
REMARK    6  A    between atoms: C_17  and  C_18
REMARK                            x       y       z     vdW  Elec       q    Type
REMARK                         _______ _______ _______ _____ _____    ______ ____
ROOT
ATOM      1  C   UNL     1      -1.704  11.190  18.286  0.00  0.00    +0.000 C 
ATOM      2  O   UNL     1      -2.134  12.229  18.785  0.00  0.00    +0.000 OA
ATOM      3  N   UNL     1      -0.393  10.779  18.475  0.00  0.00    +0.000 N 
ATOM      4  C   UNL     1       0.180   9.653  17.775  0.00  0.00    +0.000 C 
ATOM      5  C   UNL     1       1.573   9.530  18.339  0.00  0.00    +0.000 C 
ATOM      6  C   UNL     1       1.981  10.998  18.409  0.00  0.00    +0.000 C 
ATOM      7  C   UNL     1       0.678  11.740  18.818  0.00  0.00    +0.000 C 
ENDROOT
BRANCH   7   8
ATOM      8  C   UNL     1       0.872  12.302  20.263  0.00  0.00    +0.000 C 
ATOM      9  O   UNL     1       1.119  11.567  21.217  0.00  0.00    +0.000 OA
ATOM     10  N   UNL     1       0.844  13.700  20.379  0.00  0.00    +0.000 N 
ATOM     11  C   UNL     1       1.090  14.347  21.672  0.00  0.00    +0.000 C 
ATOM     12  C   UNL     1      -0.161  15.121  22.112  0.00  0.00    +0.000 C 
ATOM     13  O   UNL     1      -0.550  16.079  21.109  0.00  0.00    +0.000 OA
ATOM     14  C   UNL     1      -0.832  15.430  19.860  0.00  0.00    +0.000 C 
ATOM     15  C   UNL     1       0.391  14.657  19.354  0.00  0.00    +0.000 C 
ENDBRANCH   7   8
BRANCH   1  17
ATOM     16  C   UNL     1      -3.951   9.977  17.876  0.00  0.00    +0.000 C 
ATOM     17  C   UNL     1      -2.562  10.318  17.338  0.00  0.00    +0.000 C 
ATOM     18  C   UNL     1      -2.658  10.941  15.950  0.00  0.00    +0.000 C 
ENDBRANCH   1  17
BRANCH   5  19
ATOM     19  O   UNL     1       2.418   8.781  17.469  0.00  0.00    +0.000 OA
BRANCH  19  20
ATOM     20  C   UNL     1       2.923   7.630  18.022  0.00  0.00    +0.000 A 
ATOM     21  C   UNL     1       4.019   7.051  17.375  0.00  0.00    +0.000 A 
ATOM     22  C   UNL     1       4.619   5.901  17.895  0.00  0.00    +0.000 A 
ATOM     23  C   UNL     1       4.126   5.321  19.069  0.00  0.00    +0.000 A 
ATOM     24  C   UNL     1       3.038   5.886  19.714  0.00  0.00    +0.000 A 
ATOM     25  C   UNL     1       2.440   7.045  19.195  0.00  0.00    +0.000 A 
ENDBRANCH  19  20
ENDBRANCH   5  19
TORSDOF 4
ENDMDL
MODEL 6
REMARK VINA RESULT:      -6.6      3.624      6.586
REMARK  Name = 
REMARK  6 active torsions:
REMARK  status: ('A' for Active; 'I' for Inactive)
REMARK    1  A    between atoms: C_1  and  C_2
REMARK    2  A    between atoms: C_2  and  C_3
REMARK    3  A    between atoms: C_2  and  C_4
REMARK    4  A    between atoms: C_8  and  O_9
REMARK    5  A    between atoms: O_9  and  C_10
REMARK    6  A    between atoms: C_17  and  C_18
REMARK                            x       y       z     vdW  Elec       q    Type
REMARK                         _______ _______ _______ _____ _____    ______ ____
ROOT
ATOM      1  C   UNL     1       5.628   5.273  17.963  0.00  0.00    +0.000 C 
ATOM      2  O   UNL     1       5.843   4.128  17.567  0.00  0.00    +0.000 OA
ATOM      3  N   UNL     1       4.340   5.739  18.181  0.00  0.00    +0.000 N 
ATOM      4  C   UNL     1       4.053   7.119  18.491  0.00  0.00    +0.000 C 
ATOM      5  C   UNL     1       2.561   7.151  18.716  0.00  0.00    +0.000 C 
ATOM      6  C   UNL     1       2.086   6.242  17.587  0.00  0.00    +0.000 C 
ATOM      7  C   UNL     1       3.173   5.136  17.500  0.00  0.00    +0.000 C 
ENDROOT
BRANCH   7   8
ATOM      8  C   UNL     1       2.534   3.788  17.964  0.00  0.00    +0.000 C 
ATOM      9  O   UNL     1       1.935   3.051  17.182  0.00  0.00    +0.000 OA
ATOM     10  N   UNL     1       2.775   3.429  19.299  0.00  0.00    +0.000 N 
ATOM     11  C   UNL     1       2.292   2.150  19.827  0.00  0.00    +0.000 C 
ATOM     12  C   UNL     1       1.278   2.402  20.953  0.00  0.00    +0.000 C 
ATOM     13  O   UNL     1       1.858   3.216  21.991  0.00  0.00    +0.000 OA
ATOM     14  C   UNL     1       2.287   4.483  21.471  0.00  0.00    +0.000 C 
ATOM     15  C   UNL     1       3.321   4.298  20.356  0.00  0.00    +0.000 C 
ENDBRANCH   7   8
BRANCH   1  17
ATOM     16  C   UNL     1       7.877   5.848  19.105  0.00  0.00    +0.000 C 
ATOM     17  C   UNL     1       6.768   6.302  18.157  0.00  0.00    +0.000 C 
ATOM     18  C   UNL     1       7.348   6.743  16.818  0.00  0.00    +0.000 C 
ENDBRANCH   1  17
BRANCH   5  19
ATOM     19  O   UNL     1       2.048   8.475  18.590  0.00  0.00    +0.000 OA
BRANCH  19  20
ATOM     20  C   UNL     1       1.349   8.918  19.685  0.00  0.00    +0.000 A 
ATOM     21  C   UNL     1       0.611  10.095  19.525  0.00  0.00    +0.000 A 
ATOM     22  C   UNL     1      -0.161  10.593  20.578  0.00  0.00    +0.000 A 
ATOM     23  C   UNL     1      -0.202   9.915  21.801  0.00  0.00    +0.000 A 
ATOM     24  C   UNL     1       0.529   8.750  21.970  0.00  0.00    +0.000 A 
ATOM     25  C   UNL     1       1.299   8.247  20.909  0.00  0.00    +0.000 A 
ENDBRANCH  19  20
ENDBRANCH   5  19
TORSDOF 4
ENDMDL
MODEL 7
REMARK VINA RESULT:      -6.5      7.955     10.270
REMARK  Name = 
REMARK  6 active torsions:
REMARK  status: ('A' for Active; 'I' for Inactive)
REMARK    1  A    between atoms: C_1  and  C_2
REMARK    2  A    between atoms: C_2  and  C_3
REMARK    3  A    between atoms: C_2  and  C_4
REMARK    4  A    between atoms: C_8  and  O_9
REMARK    5  A    between atoms: O_9  and  C_10
REMARK    6  A    between atoms: C_17  and  C_18
REMARK                            x       y       z     vdW  Elec       q    Type
REMARK                         _______ _______ _______ _____ _____    ______ ____
ROOT
ATOM      1  C   UNL     1      -1.570  11.143  18.097  0.00  0.00    +0.000 C 
ATOM      2  O   UNL     1      -1.946  12.276  18.395  0.00  0.00    +0.000 OA
ATOM      3  N   UNL     1      -0.326  10.663  18.480  0.00  0.00    +0.000 N 
ATOM      4  C   UNL     1       0.201   9.404  18.011  0.00  0.00    +0.000 C 
ATOM      5  C   UNL     1       1.519   9.258  18.730  0.00  0.00    +0.000 C 
ATOM      6  C   UNL     1       2.053  10.683  18.633  0.00  0.00    +0.000 C 
ATOM      7  C   UNL     1       0.793  11.578  18.793  0.00  0.00    +0.000 C 
ENDROOT
BRANCH   7   8
ATOM      8  C   UNL     1       0.904  12.335  20.155  0.00  0.00    +0.000 C 
ATOM      9  O   UNL     1       0.776  11.754  21.232  0.00  0.00    +0.000 OA
ATOM     10  N   UNL     1       1.255  13.691  20.070  0.00  0.00    +0.000 N 
ATOM     11  C   UNL     1       1.463  14.486  21.284  0.00  0.00    +0.000 C 
ATOM     12  C   UNL     1       0.429  15.619  21.347  0.00  0.00    +0.000 C 
ATOM     13  O   UNL     1       0.493  16.438  20.163  0.00  0.00    +0.000 OA
ATOM     14  C   UNL     1       0.244  15.658  18.985  0.00  0.00    +0.000 C 
ATOM     15  C   UNL     1       1.262  14.520  18.853  0.00  0.00    +0.000 C 
ENDBRANCH   7   8
BRANCH   1  17
ATOM     16  C   UNL     1      -3.746   9.774  17.809  0.00  0.00    +0.000 C 
ATOM     17  C   UNL     1      -2.415  10.208  17.198  0.00  0.00    +0.000 C 
ATOM     18  C   UNL     1      -2.627  10.815  15.815  0.00  0.00    +0.000 C 
ENDBRANCH   1  17
BRANCH   5  19
ATOM     19  O   UNL     1       2.368   8.322  18.069  0.00  0.00    +0.000 OA
BRANCH  19  20
ATOM     20  C   UNL     1       2.320   7.051  18.586  0.00  0.00    +0.000 A 
ATOM     21  C   UNL     1       2.051   6.939  19.953  0.00  0.00    +0.000 A 
ATOM     22  C   UNL     1       1.945   5.681  20.551  0.00  0.00    +0.000 A 
ATOM     23  C   UNL     1       2.108   4.522  19.783  0.00  0.00    +0.000 A 
ATOM     24  C   UNL     1       2.378   4.624  18.428  0.00  0.00    +0.000 A 
ATOM     25  C   UNL     1       2.478   5.889  17.827  0.00  0.00    +0.000 A 
ENDBRANCH  19  20
ENDBRANCH   5  19
TORSDOF 4
ENDMDL
MODEL 8
REMARK VINA RESULT:      -6.5      4.446      6.400
REMARK  Name = 
REMARK  6 active torsions:
REMARK  status: ('A' for Active; 'I' for Inactive)
REMARK    1  A    between atoms: C_1  and  C_2
REMARK    2  A    between atoms: C_2  and  C_3
REMARK    3  A    between atoms: C_2  and  C_4
REMARK    4  A    between atoms: C_8  and  O_9
REMARK    5  A    between atoms: O_9  and  C_10
REMARK    6  A    between atoms: C_17  and  C_18
REMARK                            x       y       z     vdW  Elec       q    Type
REMARK                         _______ _______ _______ _____ _____    ______ ____
ROOT
ATOM      1  C   UNL     1       1.715   4.950  19.879  0.00  0.00    +0.000 C 
ATOM      2  O   UNL     1       0.773   5.128  20.651  0.00  0.00    +0.000 OA
ATOM      3  N   UNL     1       2.355   6.011  19.254  0.00  0.00    +0.000 N 
ATOM      4  C   UNL     1       3.353   5.822  18.228  0.00  0.00    +0.000 C 
ATOM      5  C   UNL     1       3.819   7.219  17.898  0.00  0.00    +0.000 C 
ATOM      6  C   UNL     1       2.491   7.967  17.899  0.00  0.00    +0.000 C 
ATOM      7  C   UNL     1       1.679   7.310  19.049  0.00  0.00    +0.000 C 
ENDROOT
BRANCH   7   8
ATOM      8  C   UNL     1       1.516   8.362  20.193  0.00  0.00    +0.000 C 
ATOM      9  O   UNL     1       1.921   8.147  21.334  0.00  0.00    +0.000 OA
ATOM     10  N   UNL     1       0.971   9.597  19.810  0.00  0.00    +0.000 N 
ATOM     11  C   UNL     1       0.841  10.689  20.779  0.00  0.00    +0.000 C 
ATOM     12  C   UNL     1      -0.642  11.040  20.969  0.00  0.00    +0.000 C 
ATOM     13  O   UNL     1      -1.254  11.378  19.709  0.00  0.00    +0.000 OA
ATOM     14  C   UNL     1      -1.160  10.285  18.783  0.00  0.00    +0.000 C 
ATOM     15  C   UNL     1       0.302   9.902  18.533  0.00  0.00    +0.000 C 
ENDBRANCH   7   8
BRANCH   1  17
ATOM     16  C   UNL     1       2.928   2.777  20.585  0.00  0.00    +0.000 C 
ATOM     17  C   UNL     1       2.193   3.533  19.479  0.00  0.00    +0.000 C 
ATOM     18  C   UNL     1       1.043   2.699  18.926  0.00  0.00    +0.000 C 
ENDBRANCH   1  17
BRANCH   5  19
ATOM     19  O   UNL     1       4.457   7.262  16.624  0.00  0.00    +0.000 OA
BRANCH  19  20
ATOM     20  C   UNL     1       5.418   6.298  16.439  0.00  0.00    +0.000 A 
ATOM     21  C   UNL     1       6.412   6.206  17.418  0.00  0.00    +0.000 A 
ATOM     22  C   UNL     1       7.404   5.226  17.328  0.00  0.00    +0.000 A 
ATOM     23  C   UNL     1       7.409   4.329  16.254  0.00  0.00    +0.000 A 
ATOM     24  C   UNL     1       6.430   4.416  15.277  0.00  0.00    +0.000 A 
ATOM     25  C   UNL     1       5.430   5.396  15.373  0.00  0.00    +0.000 A 
ENDBRANCH  19  20
ENDBRANCH   5  19
TORSDOF 4
ENDMDL
MODEL 9
REMARK VINA RESULT:      -6.3      3.760      6.451
REMARK  Name = 
REMARK  6 active torsions:
REMARK  status: ('A' for Active; 'I' for Inactive)
REMARK    1  A    between atoms: C_1  and  C_2
REMARK    2  A    between atoms: C_2  and  C_3
REMARK    3  A    between atoms: C_2  and  C_4
REMARK    4  A    between atoms: C_8  and  O_9
REMARK    5  A    between atoms: O_9  and  C_10
REMARK    6  A    between atoms: C_17  and  C_18
REMARK                            x       y       z     vdW  Elec       q    Type
REMARK                         _______ _______ _______ _____ _____    ______ ____
ROOT
ATOM      1  C   UNL     1       5.242   6.468  17.327  0.00  0.00    +0.000 C 
ATOM      2  O   UNL     1       5.637   7.605  17.580  0.00  0.00    +0.000 OA
ATOM      3  N   UNL     1       3.921   6.094  17.532  0.00  0.00    +0.000 N 
ATOM      4  C   UNL     1       3.468   4.730  17.395  0.00  0.00    +0.000 C 
ATOM      5  C   UNL     1       1.980   4.804  17.630  0.00  0.00    +0.000 C 
ATOM      6  C   UNL     1       1.927   5.780  18.800  0.00  0.00    +0.000 C 
ATOM      7  C   UNL     1       3.057   6.804  18.499  0.00  0.00    +0.000 C 
ENDROOT
BRANCH   7   8
ATOM      8  C   UNL     1       2.392   8.181  18.178  0.00  0.00    +0.000 C 
ATOM      9  O   UNL     1       2.595   8.767  17.116  0.00  0.00    +0.000 OA
ATOM     10  N   UNL     1       1.478   8.652  19.133  0.00  0.00    +0.000 N 
ATOM     11  C   UNL     1       0.735   9.895  18.907  0.00  0.00    +0.000 C 
ATOM     12  C   UNL     1       1.110  10.927  19.980  0.00  0.00    +0.000 C 
ATOM     13  O   UNL     1       0.871  10.404  21.301  0.00  0.00    +0.000 OA
ATOM     14  C   UNL     1       1.638   9.211  21.527  0.00  0.00    +0.000 C 
ATOM     15  C   UNL     1       1.290   8.130  20.498  0.00  0.00    +0.000 C 
ENDBRANCH   7   8
BRANCH   1  17
ATOM     16  C   UNL     1       6.552   5.404  15.367  0.00  0.00    +0.000 C 
ATOM     17  C   UNL     1       6.202   5.350  16.854  0.00  0.00    +0.000 C 
ATOM     18  C   UNL     1       7.466   5.311  17.706  0.00  0.00    +0.000 C 
ENDBRANCH   1  17
BRANCH   5  19
ATOM     19  O   UNL     1       1.448   3.526  17.974  0.00  0.00    +0.000 OA
BRANCH  19  20
ATOM     20  C   UNL     1       1.750   3.112  19.248  0.00  0.00    +0.000 A 
ATOM     21  C   UNL     1       3.041   2.617  19.457  0.00  0.00    +0.000 A 
ATOM     22  C   UNL     1       3.443   2.212  20.733  0.00  0.00    +0.000 A 
ATOM     23  C   UNL     1       2.555   2.299  21.810  0.00  0.00    +0.000 A 
ATOM     24  C   UNL     1       1.272   2.784  21.611  0.00  0.00    +0.000 A 
ATOM     25  C   UNL     1       0.871   3.197  20.330  0.00  0.00    +0.000 A 
ENDBRANCH  19  20
ENDBRANCH   5  19
TORSDOF 4
ENDMDL
