MODEL 1
REMARK VINA RESULT:      -7.7      0.000      0.000
REMARK  Name = 
REMARK  14 active torsions:
REMARK  status: ('A' for Active; 'I' for Inactive)
REMARK    1  A    between atoms: C_1  and  C_2
REMARK    2  A    between atoms: C_4  and  N_5
REMARK    3  A    between atoms: C_7  and  C_8
REMARK    4  A    between atoms: C_8  and  O_9
REMARK    5  A    between atoms: O_9  and  C_10
REMARK    6  A    between atoms: C_10  and  C_11
REMARK    7  A    between atoms: C_11  and  O_12
REMARK    8  A    between atoms: O_12  and  C_13
REMARK    9  A    between atoms: C_13  and  C_14
REMARK   10  A    between atoms: C_16  and  O_17
REMARK   11  A    between atoms: O_17  and  C_18
REMARK   12  A    between atoms: C_18  and  C_19
REMARK   13  A    between atoms: C_21  and  C_22
REMARK   14  A    between atoms: C_24  and  N_25
REMARK                            x       y       z     vdW  Elec       q    Type
REMARK                         _______ _______ _______ _____ _____    ______ ____
ROOT
ATOM      1  C   UNL     1       3.223   6.485  18.789  0.00  0.00    +0.000 C 
ATOM      2  C   UNL     1       2.591   5.432  17.883  0.00  0.00    +0.000 C 
ATOM      3  C   UNL     1       3.765   4.489  17.660  0.00  0.00    +0.000 C 
ATOM      4  C   UNL     1       4.531   4.573  18.998  0.00  0.00    +0.000 C 
ATOM      5  N   UNL     1       3.889   5.639  19.793  0.00  0.00    +0.000 NA
ATOM      6  H   UNL     1       4.603   6.177  20.284  0.00  0.00    +0.000 HD
ENDROOT
BRANCH   1   7
ATOM      7  C   UNL     1       2.210   7.498  19.319  0.00  0.00    +0.000 C 
BRANCH   7   8
ATOM      8  O   UNL     1       1.715   6.963  20.546  0.00  0.00    +0.000 OA
BRANCH   8   9
ATOM      9  C   UNL     1       0.939   7.887  21.304  0.00  0.00    +0.000 C 
BRANCH   9  10
ATOM     10  C   UNL     1       1.102   9.270  20.672  0.00  0.00    +0.000 C 
BRANCH  10  11
ATOM     11  O   UNL     1      -0.184   9.721  20.235  0.00  0.00    +0.000 OA
BRANCH  11  12
ATOM     12  C   UNL     1      -0.103  10.796  19.300  0.00  0.00    +0.000 C 
BRANCH  12  18
ATOM     13  C   UNL     1      -3.018   9.670  15.358  0.00  0.00    +0.000 C 
ATOM     14  C   UNL     1      -2.800  10.390  16.653  0.00  0.00    +0.000 A 
ATOM     15  C   UNL     1      -3.820  11.130  17.260  0.00  0.00    +0.000 A 
ATOM     16  C   UNL     1      -3.566  11.760  18.466  0.00  0.00    +0.000 A 
ATOM     17  N   UNL     1      -2.391  11.669  19.113  0.00  0.00    +0.000 NA
ATOM     18  C   UNL     1      -1.410  10.920  18.543  0.00  0.00    +0.000 A 
ATOM     19  C   UNL     1      -1.577  10.292  17.308  0.00  0.00    +0.000 A 
BRANCH  16  20
ATOM     20  N   UNL     1      -4.576  12.475  19.107  0.00  0.00    +0.000 N 
ATOM     21  H   UNL     1      -4.901  13.252  18.548  0.00  0.00    +0.000 HD
ATOM     22  H   UNL     1      -4.197  12.777  20.005  0.00  0.00    +0.000 HD
ENDBRANCH  16  20
ENDBRANCH  12  18
ENDBRANCH  11  12
ENDBRANCH  10  11
ENDBRANCH   9  10
ENDBRANCH   8   9
ENDBRANCH   7   8
ENDBRANCH   1   7
BRANCH   3  23
ATOM     23  O   UNL     1       4.522   5.026  16.569  0.00  0.00    +0.000 OA
BRANCH  23  24
ATOM     24  C   UNL     1       5.844   4.493  16.465  0.00  0.00    +0.000 C 
BRANCH  24  25
ATOM     25  C   UNL     1       6.284   4.451  15.020  0.00  0.00    +0.000 A 
ATOM     26  C   UNL     1       5.623   3.646  14.096  0.00  0.00    +0.000 A 
ATOM     27  C   UNL     1       6.068   3.622  12.775  0.00  0.00    +0.000 A 
ATOM     28  C   UNL     1       5.385   2.778  11.745  0.00  0.00    +0.000 C 
ATOM     29  C   UNL     1       7.167   4.413  12.434  0.00  0.00    +0.000 A 
ATOM     30  C   UNL     1       7.780   5.181  13.414  0.00  0.00    +0.000 A 
ATOM     31  N   UNL     1       7.366   5.207  14.689  0.00  0.00    +0.000 NA
BRANCH  30  32
ATOM     32  N   UNL     1       8.845   6.018  13.090  0.00  0.00    +0.000 N 
ATOM     33  H   UNL     1       9.655   5.842  13.674  0.00  0.00    +0.000 HD
ATOM     34  H   UNL     1       8.508   6.973  13.176  0.00  0.00    +0.000 HD
ENDBRANCH  30  32
ENDBRANCH  24  25
ENDBRANCH  23  24
ENDBRANCH   3  23
TORSDOF 12
ENDMDL
MODEL 2
REMARK VINA RESULT:      -7.5      7.072     10.062
REMARK  Name = 
REMARK  14 active torsions:
REMARK  status: ('A' for Active; 'I' for Inactive)
REMARK    1  A    between atoms: C_1  and  C_2
REMARK    2  A    between atoms: C_4  and  N_5
REMARK    3  A    between atoms: C_7  and  C_8
REMARK    4  A    between atoms: C_8  and  O_9
REMARK    5  A    between atoms: O_9  and  C_10
REMARK    6  A    between atoms: C_10  and  C_11
REMARK    7  A    between atoms: C_11  and  O_12
REMARK    8  A    between atoms: O_12  and  C_13
REMARK    9  A    between atoms: C_13  and  C_14
REMARK   10  A    between atoms: C_16  and  O_17
REMARK   11  A    between atoms: O_17  and  C_18
REMARK   12  A    between atoms: C_18  and  C_19
REMARK   13  A    between atoms: C_21  and  C_22
REMARK   14  A    between atoms: C_24  and  N_25
REMARK                            x       y       z     vdW  Elec       q    Type
REMARK                         _______ _______ _______ _____ _____    ______ ____
ROOT
ATOM      1  C   UNL     1       7.198   7.135  17.696  0.00  0.00    +0.000 C 
ATOM      2  C   UNL     1       8.063   6.236  18.576  0.00  0.00    +0.000 C 
ATOM      3  C   UNL     1       7.491   4.864  18.251  0.00  0.00    +0.000 C 
ATOM      4  C   UNL     1       7.081   5.005  16.768  0.00  0.00    +0.000 C 
ATOM      5  N   UNL     1       7.262   6.425  16.408  0.00  0.00    +0.000 NA
ATOM      6  H   UNL     1       6.495   6.726  15.806  0.00  0.00    +0.000 HD
ENDROOT
BRANCH   1   7
ATOM      7  C   UNL     1       7.663   8.590  17.694  0.00  0.00    +0.000 C 
BRANCH   7   8
ATOM      8  O   UNL     1       8.800   8.647  18.555  0.00  0.00    +0.000 OA
BRANCH   8   9
ATOM      9  C   UNL     1       8.983   9.915  19.181  0.00  0.00    +0.000 C 
BRANCH   9  10
ATOM     10  C   UNL     1       9.067  10.975  18.082  0.00  0.00    +0.000 C 
BRANCH  10  11
ATOM     11  O   UNL     1      10.448  11.221  17.796  0.00  0.00    +0.000 OA
BRANCH  11  12
ATOM     12  C   UNL     1      11.214  11.489  18.970  0.00  0.00    +0.000 C 
BRANCH  12  18
ATOM     13  C   UNL     1      12.333  16.125  17.369  0.00  0.00    +0.000 C 
ATOM     14  C   UNL     1      11.840  15.201  18.439  0.00  0.00    +0.000 A 
ATOM     15  C   UNL     1      11.351  15.684  19.657  0.00  0.00    +0.000 A 
ATOM     16  C   UNL     1      10.893  14.783  20.602  0.00  0.00    +0.000 A 
ATOM     17  N   UNL     1      10.855  13.455  20.398  0.00  0.00    +0.000 NA
ATOM     18  C   UNL     1      11.295  12.985  19.201  0.00  0.00    +0.000 A 
ATOM     19  C   UNL     1      11.813  13.828  18.217  0.00  0.00    +0.000 A 
BRANCH  16  20
ATOM     20  N   UNL     1      10.369  15.243  21.810  0.00  0.00    +0.000 N 
ATOM     21  H   UNL     1      10.465  16.245  21.905  0.00  0.00    +0.000 HD
ATOM     22  H   UNL     1      10.852  14.736  22.551  0.00  0.00    +0.000 HD
ENDBRANCH  16  20
ENDBRANCH  12  18
ENDBRANCH  11  12
ENDBRANCH  10  11
ENDBRANCH   9  10
ENDBRANCH   8   9
ENDBRANCH   7   8
ENDBRANCH   1   7
BRANCH   3  23
ATOM     23  O   UNL     1       6.360   4.676  19.110  0.00  0.00    +0.000 OA
BRANCH  23  24
ATOM     24  C   UNL     1       5.172   4.279  18.423  0.00  0.00    +0.000 C 
BRANCH  24  25
ATOM     25  C   UNL     1       3.954   4.553  19.274  0.00  0.00    +0.000 A 
ATOM     26  C   UNL     1       3.288   3.516  19.922  0.00  0.00    +0.000 A 
ATOM     27  C   UNL     1       2.159   3.806  20.686  0.00  0.00    +0.000 A 
ATOM     28  C   UNL     1       1.414   2.726  21.406  0.00  0.00    +0.000 C 
ATOM     29  C   UNL     1       1.741   5.136  20.770  0.00  0.00    +0.000 A 
ATOM     30  C   UNL     1       2.451   6.113  20.086  0.00  0.00    +0.000 A 
ATOM     31  N   UNL     1       3.534   5.846  19.342  0.00  0.00    +0.000 NA
BRANCH  30  32
ATOM     32  N   UNL     1       2.088   7.454  20.193  0.00  0.00    +0.000 N 
ATOM     33  H   UNL     1       1.417   7.722  19.482  0.00  0.00    +0.000 HD
ATOM     34  H   UNL     1       2.945   7.998  20.140  0.00  0.00    +0.000 HD
ENDBRANCH  30  32
ENDBRANCH  24  25
ENDBRANCH  23  24
ENDBRANCH   3  23
TORSDOF 12
ENDMDL
MODEL 3
REMARK VINA RESULT:      -7.4      2.884      3.977
REMARK  Name = 
REMARK  14 active torsions:
REMARK  status: ('A' for Active; 'I' for Inactive)
REMARK    1  A    between atoms: C_1  and  C_2
REMARK    2  A    between atoms: C_4  and  N_5
REMARK    3  A    between atoms: C_7  and  C_8
REMARK    4  A    between atoms: C_8  and  O_9
REMARK    5  A    between atoms: O_9  and  C_10
REMARK    6  A    between atoms: C_10  and  C_11
REMARK    7  A    between atoms: C_11  and  O_12
REMARK    8  A    between atoms: O_12  and  C_13
REMARK    9  A    between atoms: C_13  and  C_14
REMARK   10  A    between atoms: C_16  and  O_17
REMARK   11  A    between atoms: O_17  and  C_18
REMARK   12  A    between atoms: C_18  and  C_19
REMARK   13  A    between atoms: C_21  and  C_22
REMARK   14  A    between atoms: C_24  and  N_25
REMARK                            x       y       z     vdW  Elec       q    Type
REMARK                         _______ _______ _______ _____ _____    ______ ____
ROOT
ATOM      1  C   UNL     1       2.564   5.747  19.914  0.00  0.00    +0.000 C 
ATOM      2  C   UNL     1       1.859   4.782  18.964  0.00  0.00    +0.000 C 
ATOM      3  C   UNL     1       2.203   3.440  19.596  0.00  0.00    +0.000 C 
ATOM      4  C   UNL     1       2.249   3.773  21.104  0.00  0.00    +0.000 C 
ATOM      5  N   UNL     1       2.121   5.239  21.223  0.00  0.00    +0.000 NA
ATOM      6  H   UNL     1       2.742   5.579  21.957  0.00  0.00    +0.000 HD
ENDROOT
BRANCH   1   7
ATOM      7  C   UNL     1       2.251   7.211  19.612  0.00  0.00    +0.000 C 
BRANCH   7   8
ATOM      8  O   UNL     1       2.628   7.429  18.253  0.00  0.00    +0.000 OA
BRANCH   8   9
ATOM      9  C   UNL     1       2.456   8.775  17.817  0.00  0.00    +0.000 C 
BRANCH   9  10
ATOM     10  C   UNL     1       1.011   9.183  18.108  0.00  0.00    +0.000 C 
BRANCH  10  11
ATOM     11  O   UNL     1       1.029  10.326  18.969  0.00  0.00    +0.000 OA
BRANCH  11  12
ATOM     12  C   UNL     1      -0.225  11.003  19.012  0.00  0.00    +0.000 C 
BRANCH  12  18
ATOM     13  C   UNL     1      -2.887  13.420  22.531  0.00  0.00    +0.000 C 
ATOM     14  C   UNL     1      -1.938  12.331  22.135  0.00  0.00    +0.000 A 
ATOM     15  C   UNL     1      -1.500  11.372  23.052  0.00  0.00    +0.000 A 
ATOM     16  C   UNL     1      -0.636  10.378  22.625  0.00  0.00    +0.000 A 
ATOM     17  N   UNL     1      -0.219  10.259  21.353  0.00  0.00    +0.000 NA
ATOM     18  C   UNL     1      -0.673  11.169  20.450  0.00  0.00    +0.000 A 
ATOM     19  C   UNL     1      -1.510  12.224  20.816  0.00  0.00    +0.000 A 
BRANCH  16  20
ATOM     20  N   UNL     1      -0.212   9.390  23.513  0.00  0.00    +0.000 N 
ATOM     21  H   UNL     1       0.736   9.094  23.322  0.00  0.00    +0.000 HD
ATOM     22  H   UNL     1      -0.880   8.623  23.439  0.00  0.00    +0.000 HD
ENDBRANCH  16  20
ENDBRANCH  12  18
ENDBRANCH  11  12
ENDBRANCH  10  11
ENDBRANCH   9  10
ENDBRANCH   8   9
ENDBRANCH   7   8
ENDBRANCH   1   7
BRANCH   3  23
ATOM     23  O   UNL     1       3.486   3.062  19.086  0.00  0.00    +0.000 OA
BRANCH  23  24
ATOM     24  C   UNL     1       3.613   3.214  17.671  0.00  0.00    +0.000 C 
BRANCH  24  25
ATOM     25  C   UNL     1       4.936   3.859  17.327  0.00  0.00    +0.000 A 
ATOM     26  C   UNL     1       5.315   4.045  16.000  0.00  0.00    +0.000 A 
ATOM     27  C   UNL     1       6.550   4.630  15.723  0.00  0.00    +0.000 A 
ATOM     28  C   UNL     1       6.998   4.856  14.313  0.00  0.00    +0.000 C 
ATOM     29  C   UNL     1       7.359   5.008  16.796  0.00  0.00    +0.000 A 
ATOM     30  C   UNL     1       6.916   4.779  18.092  0.00  0.00    +0.000 A 
ATOM     31  N   UNL     1       5.734   4.211  18.371  0.00  0.00    +0.000 NA
BRANCH  30  32
ATOM     32  N   UNL     1       7.679   5.193  19.181  0.00  0.00    +0.000 N 
ATOM     33  H   UNL     1       8.600   5.509  18.899  0.00  0.00    +0.000 HD
ATOM     34  H   UNL     1       7.721   4.410  19.828  0.00  0.00    +0.000 HD
ENDBRANCH  30  32
ENDBRANCH  24  25
ENDBRANCH  23  24
ENDBRANCH   3  23
TORSDOF 12
ENDMDL
MODEL 4
REMARK VINA RESULT:      -7.3      2.165      3.039
REMARK  Name = 
REMARK  14 active torsions:
REMARK  status: ('A' for Active; 'I' for Inactive)
REMARK    1  A    between atoms: C_1  and  C_2
REMARK    2  A    between atoms: C_4  and  N_5
REMARK    3  A    between atoms: C_7  and  C_8
REMARK    4  A    between atoms: C_8  and  O_9
REMARK    5  A    between atoms: O_9  and  C_10
REMARK    6  A    between atoms: C_10  and  C_11
REMARK    7  A    between atoms: C_11  and  O_12
REMARK    8  A    between atoms: O_12  and  C_13
REMARK    9  A    between atoms: C_13  and  C_14
REMARK   10  A    between atoms: C_16  and  O_17
REMARK   11  A    between atoms: O_17  and  C_18
REMARK   12  A    between atoms: C_18  and  C_19
REMARK   13  A    between atoms: C_21  and  C_22
REMARK   14  A    between atoms: C_24  and  N_25
REMARK                            x       y       z     vdW  Elec       q    Type
REMARK                         _______ _______ _______ _____ _____    ______ ____
ROOT
ATOM      1  C   UNL     1       2.568   6.035  18.502  0.00  0.00    +0.000 C 
ATOM      2  C   UNL     1       1.783   4.748  18.262  0.00  0.00    +0.000 C 
ATOM      3  C   UNL     1       2.440   3.809  19.264  0.00  0.00    +0.000 C 
ATOM      4  C   UNL     1       2.810   4.753  20.429  0.00  0.00    +0.000 C 
ATOM      5  N   UNL     1       2.526   6.128  19.972  0.00  0.00    +0.000 NA
ATOM      6  H   UNL     1       3.259   6.757  20.301  0.00  0.00    +0.000 HD
ENDROOT
BRANCH   1   7
ATOM      7  C   UNL     1       2.005   7.227  17.730  0.00  0.00    +0.000 C 
BRANCH   7   8
ATOM      8  O   UNL     1       2.634   8.387  18.274  0.00  0.00    +0.000 OA
BRANCH   8   9
ATOM      9  C   UNL     1       1.995   9.609  17.913  0.00  0.00    +0.000 C 
BRANCH   9  10
ATOM     10  C   UNL     1       1.239  10.126  19.138  0.00  0.00    +0.000 C 
BRANCH  10  11
ATOM     11  O   UNL     1       0.109  10.879  18.687  0.00  0.00    +0.000 OA
BRANCH  11  12
ATOM     12  C   UNL     1      -1.133  10.292  19.071  0.00  0.00    +0.000 C 
BRANCH  12  18
ATOM     13  C   UNL     1      -3.072   9.971  14.440  0.00  0.00    +0.000 C 
ATOM     14  C   UNL     1      -3.126  10.498  15.841  0.00  0.00    +0.000 A 
ATOM     15  C   UNL     1      -4.208  11.258  16.296  0.00  0.00    +0.000 A 
ATOM     16  C   UNL     1      -4.212  11.705  17.607  0.00  0.00    +0.000 A 
ATOM     17  N   UNL     1      -3.239  11.413  18.488  0.00  0.00    +0.000 NA
ATOM     18  C   UNL     1      -2.204  10.644  18.058  0.00  0.00    +0.000 A 
ATOM     19  C   UNL     1      -2.110  10.195  16.741  0.00  0.00    +0.000 A 
BRANCH  16  20
ATOM     20  N   UNL     1      -5.295  12.434  18.094  0.00  0.00    +0.000 N 
ATOM     21  H   UNL     1      -5.017  13.084  18.817  0.00  0.00    +0.000 HD
ATOM     22  H   UNL     1      -5.980  11.756  18.426  0.00  0.00    +0.000 HD
ENDBRANCH  16  20
ENDBRANCH  12  18
ENDBRANCH  11  12
ENDBRANCH  10  11
ENDBRANCH   9  10
ENDBRANCH   8   9
ENDBRANCH   7   8
ENDBRANCH   1   7
BRANCH   3  23
ATOM     23  O   UNL     1       3.597   3.265  18.620  0.00  0.00    +0.000 OA
BRANCH  23  24
ATOM     24  C   UNL     1       4.828   3.602  19.262  0.00  0.00    +0.000 C 
BRANCH  24  25
ATOM     25  C   UNL     1       5.710   4.399  18.327  0.00  0.00    +0.000 A 
ATOM     26  C   UNL     1       6.460   5.474  18.796  0.00  0.00    +0.000 A 
ATOM     27  C   UNL     1       7.249   6.194  17.900  0.00  0.00    +0.000 A 
ATOM     28  C   UNL     1       8.077   7.353  18.359  0.00  0.00    +0.000 C 
ATOM     29  C   UNL     1       7.253   5.801  16.560  0.00  0.00    +0.000 A 
ATOM     30  C   UNL     1       6.470   4.725  16.167  0.00  0.00    +0.000 A 
ATOM     31  N   UNL     1       5.701   4.030  17.017  0.00  0.00    +0.000 NA
BRANCH  30  32
ATOM     32  N   UNL     1       6.495   4.280  14.847  0.00  0.00    +0.000 N 
ATOM     33  H   UNL     1       6.578   3.271  14.790  0.00  0.00    +0.000 HD
ATOM     34  H   UNL     1       7.266   4.757  14.388  0.00  0.00    +0.000 HD
ENDBRANCH  30  32
ENDBRANCH  24  25
ENDBRANCH  23  24
ENDBRANCH   3  23
TORSDOF 12
ENDMDL
MODEL 5
REMARK VINA RESULT:      -7.2      2.564      3.696
REMARK  Name = 
REMARK  14 active torsions:
REMARK  status: ('A' for Active; 'I' for Inactive)
REMARK    1  A    between atoms: C_1  and  C_2
REMARK    2  A    between atoms: C_4  and  N_5
REMARK    3  A    between atoms: C_7  and  C_8
REMARK    4  A    between atoms: C_8  and  O_9
REMARK    5  A    between atoms: O_9  and  C_10
REMARK    6  A    between atoms: C_10  and  C_11
REMARK    7  A    between atoms: C_11  and  O_12
REMARK    8  A    between atoms: O_12  and  C_13
REMARK    9  A    between atoms: C_13  and  C_14
REMARK   10  A    between atoms: C_16  and  O_17
REMARK   11  A    between atoms: O_17  and  C_18
REMARK   12  A    between atoms: C_18  and  C_19
REMARK   13  A    between atoms: C_21  and  C_22
REMARK   14  A    between atoms: C_24  and  N_25
REMARK                            x       y       z     vdW  Elec       q    Type
REMARK                         _______ _______ _______ _____ _____    ______ ____
ROOT
ATOM      1  C   UNL     1       3.450   4.137  19.203  0.00  0.00    +0.000 C 
ATOM      2  C   UNL     1       2.656   4.331  17.914  0.00  0.00    +0.000 C 
ATOM      3  C   UNL     1       3.628   3.781  16.880  0.00  0.00    +0.000 C 
ATOM      4  C   UNL     1       4.347   2.653  17.652  0.00  0.00    +0.000 C 
ATOM      5  N   UNL     1       3.900   2.742  19.056  0.00  0.00    +0.000 NA
ATOM      6  H   UNL     1       4.688   2.564  19.679  0.00  0.00    +0.000 HD
ENDROOT
BRANCH   1   7
ATOM      7  C   UNL     1       2.638   4.460  20.455  0.00  0.00    +0.000 C 
BRANCH   7   8
ATOM      8  O   UNL     1       1.636   5.393  20.052  0.00  0.00    +0.000 OA
BRANCH   8   9
ATOM      9  C   UNL     1       1.770   6.677  20.655  0.00  0.00    +0.000 C 
BRANCH   9  10
ATOM     10  C   UNL     1       2.172   7.670  19.563  0.00  0.00    +0.000 C 
BRANCH  10  11
ATOM     11  O   UNL     1       1.382   8.853  19.716  0.00  0.00    +0.000 OA
BRANCH  11  12
ATOM     12  C   UNL     1       1.525   9.757  18.621  0.00  0.00    +0.000 C 
BRANCH  12  18
ATOM     13  C   UNL     1      -3.289   9.833  17.163  0.00  0.00    +0.000 C 
ATOM     14  C   UNL     1      -2.076  10.538  17.685  0.00  0.00    +0.000 A 
ATOM     15  C   UNL     1      -2.117  11.882  18.067  0.00  0.00    +0.000 A 
ATOM     16  C   UNL     1      -0.968  12.477  18.559  0.00  0.00    +0.000 A 
ATOM     17  N   UNL     1       0.190  11.816  18.728  0.00  0.00    +0.000 NA
ATOM     18  C   UNL     1       0.223  10.500  18.392  0.00  0.00    +0.000 A 
ATOM     19  C   UNL     1      -0.882   9.844  17.848  0.00  0.00    +0.000 A 
BRANCH  16  20
ATOM     20  N   UNL     1      -0.994  13.806  18.979  0.00  0.00    +0.000 N 
ATOM     21  H   UNL     1      -0.463  14.406  18.361  0.00  0.00    +0.000 HD
ATOM     22  H   UNL     1      -0.635  13.819  19.933  0.00  0.00    +0.000 HD
ENDBRANCH  16  20
ENDBRANCH  12  18
ENDBRANCH  11  12
ENDBRANCH  10  11
ENDBRANCH   9  10
ENDBRANCH   8   9
ENDBRANCH   7   8
ENDBRANCH   1   7
BRANCH   3  23
ATOM     23  O   UNL     1       4.514   4.852  16.538  0.00  0.00    +0.000 OA
BRANCH  23  24
ATOM     24  C   UNL     1       5.892   4.475  16.505  0.00  0.00    +0.000 C 
BRANCH  24  25
ATOM     25  C   UNL     1       6.713   5.400  17.375  0.00  0.00    +0.000 A 
ATOM     26  C   UNL     1       6.919   6.727  17.009  0.00  0.00    +0.000 A 
ATOM     27  C   UNL     1       7.695   7.545  17.829  0.00  0.00    +0.000 A 
ATOM     28  C   UNL     1       7.938   8.980  17.482  0.00  0.00    +0.000 C 
ATOM     29  C   UNL     1       8.236   6.992  18.992  0.00  0.00    +0.000 A 
ATOM     30  C   UNL     1       7.996   5.656  19.282  0.00  0.00    +0.000 A 
ATOM     31  N   UNL     1       7.257   4.858  18.498  0.00  0.00    +0.000 NA
BRANCH  30  32
ATOM     32  N   UNL     1       8.480   5.093  20.460  0.00  0.00    +0.000 N 
ATOM     33  H   UNL     1       8.328   5.698  21.260  0.00  0.00    +0.000 HD
ATOM     34  H   UNL     1       9.465   4.892  20.310  0.00  0.00    +0.000 HD
ENDBRANCH  30  32
ENDBRANCH  24  25
ENDBRANCH  23  24
ENDBRANCH   3  23
TORSDOF 12
ENDMDL
MODEL 6
REMARK VINA RESULT:      -7.2      1.026      1.194
REMARK  Name = 
REMARK  14 active torsions:
REMARK  status: ('A' for Active; 'I' for Inactive)
REMARK    1  A    between atoms: C_1  and  C_2
REMARK    2  A    between atoms: C_4  and  N_5
REMARK    3  A    between atoms: C_7  and  C_8
REMARK    4  A    between atoms: C_8  and  O_9
REMARK    5  A    between atoms: O_9  and  C_10
REMARK    6  A    between atoms: C_10  and  C_11
REMARK    7  A    between atoms: C_11  and  O_12
REMARK    8  A    between atoms: O_12  and  C_13
REMARK    9  A    between atoms: C_13  and  C_14
REMARK   10  A    between atoms: C_16  and  O_17
REMARK   11  A    between atoms: O_17  and  C_18
REMARK   12  A    between atoms: C_18  and  C_19
REMARK   13  A    between atoms: C_21  and  C_22
REMARK   14  A    between atoms: C_24  and  N_25
REMARK                            x       y       z     vdW  Elec       q    Type
REMARK                         _______ _______ _______ _____ _____    ______ ____
ROOT
ATOM      1  C   UNL     1       2.976   6.142  18.761  0.00  0.00    +0.000 C 
ATOM      2  C   UNL     1       4.455   5.820  18.956  0.00  0.00    +0.000 C 
ATOM      3  C   UNL     1       5.013   6.135  17.576  0.00  0.00    +0.000 C 
ATOM      4  C   UNL     1       4.123   7.308  17.106  0.00  0.00    +0.000 C 
ATOM      5  N   UNL     1       3.052   7.461  18.110  0.00  0.00    +0.000 NA
ATOM      6  H   UNL     1       2.170   7.670  17.642  0.00  0.00    +0.000 HD
ENDROOT
BRANCH   1   7
ATOM      7  C   UNL     1       2.175   6.070  20.060  0.00  0.00    +0.000 C 
BRANCH   7   8
ATOM      8  O   UNL     1       2.080   7.409  20.544  0.00  0.00    +0.000 OA
BRANCH   8   9
ATOM      9  C   UNL     1       0.905   7.660  21.311  0.00  0.00    +0.000 C 
BRANCH   9  10
ATOM     10  C   UNL     1       0.422   9.074  20.985  0.00  0.00    +0.000 C 
BRANCH  10  11
ATOM     11  O   UNL     1       1.020   9.481  19.750  0.00  0.00    +0.000 OA
BRANCH  11  12
ATOM     12  C   UNL     1       0.777  10.854  19.447  0.00  0.00    +0.000 C 
BRANCH  12  18
ATOM     13  C   UNL     1      -2.821   9.619  16.154  0.00  0.00    +0.000 C 
ATOM     14  C   UNL     1      -2.342  10.436  17.315  0.00  0.00    +0.000 A 
ATOM     15  C   UNL     1      -3.192  11.316  17.991  0.00  0.00    +0.000 A 
ATOM     16  C   UNL     1      -2.699  12.034  19.067  0.00  0.00    +0.000 A 
ATOM     17  N   UNL     1      -1.443  11.902  19.528  0.00  0.00    +0.000 NA
ATOM     18  C   UNL     1      -0.625  11.020  18.895  0.00  0.00    +0.000 A 
ATOM     19  C   UNL     1      -1.038  10.295  17.777  0.00  0.00    +0.000 A 
BRANCH  16  20
ATOM     20  N   UNL     1      -3.537  12.891  19.779  0.00  0.00    +0.000 N 
ATOM     21  H   UNL     1      -4.206  13.350  19.176  0.00  0.00    +0.000 HD
ATOM     22  H   UNL     1      -2.933  13.555  20.264  0.00  0.00    +0.000 HD
ENDBRANCH  16  20
ENDBRANCH  12  18
ENDBRANCH  11  12
ENDBRANCH  10  11
ENDBRANCH   9  10
ENDBRANCH   8   9
ENDBRANCH   7   8
ENDBRANCH   1   7
BRANCH   3  23
ATOM     23  O   UNL     1       4.825   4.961  16.778  0.00  0.00    +0.000 OA
BRANCH  23  24
ATOM     24  C   UNL     1       6.032   4.241  16.518  0.00  0.00    +0.000 C 
BRANCH  24  25
ATOM     25  C   UNL     1       6.384   4.314  15.050  0.00  0.00    +0.000 A 
ATOM     26  C   UNL     1       5.662   3.589  14.105  0.00  0.00    +0.000 A 
ATOM     27  C   UNL     1       6.027   3.670  12.763  0.00  0.00    +0.000 A 
ATOM     28  C   UNL     1       5.277   2.914  11.711  0.00  0.00    +0.000 C 
ATOM     29  C   UNL     1       7.109   4.483  12.420  0.00  0.00    +0.000 A 
ATOM     30  C   UNL     1       7.787   5.167  13.420  0.00  0.00    +0.000 A 
ATOM     31  N   UNL     1       7.450   5.091  14.716  0.00  0.00    +0.000 NA
BRANCH  30  32
ATOM     32  N   UNL     1       8.836   6.025  13.101  0.00  0.00    +0.000 N 
ATOM     33  H   UNL     1       9.225   6.470  13.925  0.00  0.00    +0.000 HD
ATOM     34  H   UNL     1       8.475   6.700  12.433  0.00  0.00    +0.000 HD
ENDBRANCH  30  32
ENDBRANCH  24  25
ENDBRANCH  23  24
ENDBRANCH   3  23
TORSDOF 12
ENDMDL
MODEL 7
REMARK VINA RESULT:      -7.1      6.082      9.241
REMARK  Name = 
REMARK  14 active torsions:
REMARK  status: ('A' for Active; 'I' for Inactive)
REMARK    1  A    between atoms: C_1  and  C_2
REMARK    2  A    between atoms: C_4  and  N_5
REMARK    3  A    between atoms: C_7  and  C_8
REMARK    4  A    between atoms: C_8  and  O_9
REMARK    5  A    between atoms: O_9  and  C_10
REMARK    6  A    between atoms: C_10  and  C_11
REMARK    7  A    between atoms: C_11  and  O_12
REMARK    8  A    between atoms: O_12  and  C_13
REMARK    9  A    between atoms: C_13  and  C_14
REMARK   10  A    between atoms: C_16  and  O_17
REMARK   11  A    between atoms: O_17  and  C_18
REMARK   12  A    between atoms: C_18  and  C_19
REMARK   13  A    between atoms: C_21  and  C_22
REMARK   14  A    between atoms: C_24  and  N_25
REMARK                            x       y       z     vdW  Elec       q    Type
REMARK                         _______ _______ _______ _____ _____    ______ ____
ROOT
ATOM      1  C   UNL     1       6.708   5.814  16.854  0.00  0.00    +0.000 C 
ATOM      2  C   UNL     1       6.225   4.674  17.747  0.00  0.00    +0.000 C 
ATOM      3  C   UNL     1       5.509   3.789  16.737  0.00  0.00    +0.000 C 
ATOM      4  C   UNL     1       6.338   3.996  15.450  0.00  0.00    +0.000 C 
ATOM      5  N   UNL     1       7.311   5.068  15.736  0.00  0.00    +0.000 NA
ATOM      6  H   UNL     1       7.401   5.676  14.921  0.00  0.00    +0.000 HD
ENDROOT
BRANCH   1   7
ATOM      7  C   UNL     1       7.620   6.796  17.586  0.00  0.00    +0.000 C 
BRANCH   7   8
ATOM      8  O   UNL     1       7.075   8.095  17.356  0.00  0.00    +0.000 OA
BRANCH   8   9
ATOM      9  C   UNL     1       8.017   9.151  17.518  0.00  0.00    +0.000 C 
BRANCH   9  10
ATOM     10  C   UNL     1       8.728   8.947  18.857  0.00  0.00    +0.000 C 
BRANCH  10  11
ATOM     11  O   UNL     1       9.076  10.231  19.383  0.00  0.00    +0.000 OA
BRANCH  11  12
ATOM     12  C   UNL     1      10.053  10.905  18.591  0.00  0.00    +0.000 C 
BRANCH  12  18
ATOM     13  C   UNL     1      11.505  15.464  20.143  0.00  0.00    +0.000 C 
ATOM     14  C   UNL     1      10.531  14.582  19.425  0.00  0.00    +0.000 A 
ATOM     15  C   UNL     1       9.439  15.111  18.730  0.00  0.00    +0.000 A 
ATOM     16  C   UNL     1       8.580  14.248  18.071  0.00  0.00    +0.000 A 
ATOM     17  N   UNL     1       8.760  12.917  18.030  0.00  0.00    +0.000 NA
ATOM     18  C   UNL     1       9.841  12.403  18.675  0.00  0.00    +0.000 A 
ATOM     19  C   UNL     1      10.725  13.206  19.397  0.00  0.00    +0.000 A 
BRANCH  16  20
ATOM     20  N   UNL     1       7.505  14.753  17.342  0.00  0.00    +0.000 N 
ATOM     21  H   UNL     1       6.627  14.619  17.824  0.00  0.00    +0.000 HD
ATOM     22  H   UNL     1       7.522  14.289  16.434  0.00  0.00    +0.000 HD
ENDBRANCH  16  20
ENDBRANCH  12  18
ENDBRANCH  11  12
ENDBRANCH  10  11
ENDBRANCH   9  10
ENDBRANCH   8   9
ENDBRANCH   7   8
ENDBRANCH   1   7
BRANCH   3  23
ATOM     23  O   UNL     1       4.178   4.302  16.611  0.00  0.00    +0.000 OA
BRANCH  23  24
ATOM     24  C   UNL     1       3.180   3.473  17.211  0.00  0.00    +0.000 C 
BRANCH  24  25
ATOM     25  C   UNL     1       2.766   4.033  18.552  0.00  0.00    +0.000 A 
ATOM     26  C   UNL     1       2.550   5.398  18.720  0.00  0.00    +0.000 A 
ATOM     27  C   UNL     1       2.185   5.879  19.976  0.00  0.00    +0.000 A 
ATOM     28  C   UNL     1       1.935   7.337  20.204  0.00  0.00    +0.000 C 
ATOM     29  C   UNL     1       2.050   4.962  21.021  0.00  0.00    +0.000 A 
ATOM     30  C   UNL     1       2.293   3.617  20.778  0.00  0.00    +0.000 A 
ATOM     31  N   UNL     1       2.653   3.144  19.576  0.00  0.00    +0.000 NA
BRANCH  30  32
ATOM     32  N   UNL     1       2.116   2.675  21.788  0.00  0.00    +0.000 N 
ATOM     33  H   UNL     1       1.688   3.081  22.613  0.00  0.00    +0.000 HD
ATOM     34  H   UNL     1       3.029   2.275  21.984  0.00  0.00    +0.000 HD
ENDBRANCH  30  32
ENDBRANCH  24  25
ENDBRANCH  23  24
ENDBRANCH   3  23
TORSDOF 12
ENDMDL
MODEL 8
REMARK VINA RESULT:      -7.1      2.226      3.301
REMARK  Name = 
REMARK  14 active torsions:
REMARK  status: ('A' for Active; 'I' for Inactive)
REMARK    1  A    between atoms: C_1  and  C_2
REMARK    2  A    between atoms: C_4  and  N_5
REMARK    3  A    between atoms: C_7  and  C_8
REMARK    4  A    between atoms: C_8  and  O_9
REMARK    5  A    between atoms: O_9  and  C_10
REMARK    6  A    between atoms: C_10  and  C_11
REMARK    7  A    between atoms: C_11  and  O_12
REMARK    8  A    between atoms: O_12  and  C_13
REMARK    9  A    between atoms: C_13  and  C_14
REMARK   10  A    between atoms: C_16  and  O_17
REMARK   11  A    between atoms: O_17  and  C_18
REMARK   12  A    between atoms: C_18  and  C_19
REMARK   13  A    between atoms: C_21  and  C_22
REMARK   14  A    between atoms: C_24  and  N_25
REMARK                            x       y       z     vdW  Elec       q    Type
REMARK                         _______ _______ _______ _____ _____    ______ ____
ROOT
ATOM      1  C   UNL     1       2.744   6.248  18.745  0.00  0.00    +0.000 C 
ATOM      2  C   UNL     1       1.806   5.149  18.253  0.00  0.00    +0.000 C 
ATOM      3  C   UNL     1       2.291   3.959  19.068  0.00  0.00    +0.000 C 
ATOM      4  C   UNL     1       2.734   4.610  20.397  0.00  0.00    +0.000 C 
ATOM      5  N   UNL     1       2.654   6.071  20.205  0.00  0.00    +0.000 NA
ATOM      6  H   UNL     1       3.449   6.521  20.659  0.00  0.00    +0.000 HD
ENDROOT
BRANCH   1   7
ATOM      7  C   UNL     1       2.377   7.629  18.205  0.00  0.00    +0.000 C 
BRANCH   7   8
ATOM      8  O   UNL     1       1.853   8.364  19.310  0.00  0.00    +0.000 OA
BRANCH   8   9
ATOM      9  C   UNL     1       1.516   9.713  18.995  0.00  0.00    +0.000 C 
BRANCH   9  10
ATOM     10  C   UNL     1       0.469  10.185  20.005  0.00  0.00    +0.000 C 
BRANCH  10  11
ATOM     11  O   UNL     1      -0.822  10.081  19.397  0.00  0.00    +0.000 OA
BRANCH  11  12
ATOM     12  C   UNL     1      -0.761  10.062  17.972  0.00  0.00    +0.000 C 
BRANCH  12  18
ATOM     13  C   UNL     1      -5.289  12.204  18.439  0.00  0.00    +0.000 C 
ATOM     14  C   UNL     1      -4.275  11.467  17.619  0.00  0.00    +0.000 A 
ATOM     15  C   UNL     1      -4.491  11.187  16.266  0.00  0.00    +0.000 A 
ATOM     16  C   UNL     1      -3.511  10.517  15.554  0.00  0.00    +0.000 A 
ATOM     17  N   UNL     1      -2.334  10.148  16.087  0.00  0.00    +0.000 NA
ATOM     18  C   UNL     1      -2.107  10.451  17.393  0.00  0.00    +0.000 A 
ATOM     19  C   UNL     1      -3.064  11.084  18.185  0.00  0.00    +0.000 A 
BRANCH  16  20
ATOM     20  N   UNL     1      -3.688  10.258  14.196  0.00  0.00    +0.000 N 
ATOM     21  H   UNL     1      -3.963  11.087  13.687  0.00  0.00    +0.000 HD
ATOM     22  H   UNL     1      -4.382   9.514  14.127  0.00  0.00    +0.000 HD
ENDBRANCH  16  20
ENDBRANCH  12  18
ENDBRANCH  11  12
ENDBRANCH  10  11
ENDBRANCH   9  10
ENDBRANCH   8   9
ENDBRANCH   7   8
ENDBRANCH   1   7
BRANCH   3  23
ATOM     23  O   UNL     1       3.392   3.390  18.351  0.00  0.00    +0.000 OA
BRANCH  23  24
ATOM     24  C   UNL     1       4.652   3.551  19.004  0.00  0.00    +0.000 C 
BRANCH  24  25
ATOM     25  C   UNL     1       5.601   4.341  18.132  0.00  0.00    +0.000 A 
ATOM     26  C   UNL     1       6.335   5.402  18.655  0.00  0.00    +0.000 A 
ATOM     27  C   UNL     1       7.187   6.117  17.816  0.00  0.00    +0.000 A 
ATOM     28  C   UNL     1       8.002   7.261  18.334  0.00  0.00    +0.000 C 
ATOM     29  C   UNL     1       7.269   5.735  16.475  0.00  0.00    +0.000 A 
ATOM     30  C   UNL     1       6.497   4.673  16.025  0.00  0.00    +0.000 A 
ATOM     31  N   UNL     1       5.668   3.982  16.821  0.00  0.00    +0.000 NA
BRANCH  30  32
ATOM     32  N   UNL     1       6.597   4.237  14.706  0.00  0.00    +0.000 N 
ATOM     33  H   UNL     1       5.732   3.824  14.378  0.00  0.00    +0.000 HD
ATOM     34  H   UNL     1       7.376   3.585  14.668  0.00  0.00    +0.000 HD
ENDBRANCH  30  32
ENDBRANCH  24  25
ENDBRANCH  23  24
ENDBRANCH   3  23
TORSDOF 12
ENDMDL
MODEL 9
REMARK VINA RESULT:      -7.1      2.306      9.809
REMARK  Name = 
REMARK  14 active torsions:
REMARK  status: ('A' for Active; 'I' for Inactive)
REMARK    1  A    between atoms: C_1  and  C_2
REMARK    2  A    between atoms: C_4  and  N_5
REMARK    3  A    between atoms: C_7  and  C_8
REMARK    4  A    between atoms: C_8  and  O_9
REMARK    5  A    between atoms: O_9  and  C_10
REMARK    6  A    between atoms: C_10  and  C_11
REMARK    7  A    between atoms: C_11  and  O_12
REMARK    8  A    between atoms: O_12  and  C_13
REMARK    9  A    between atoms: C_13  and  C_14
REMARK   10  A    between atoms: C_16  and  O_17
REMARK   11  A    between atoms: O_17  and  C_18
REMARK   12  A    between atoms: C_18  and  C_19
REMARK   13  A    between atoms: C_21  and  C_22
REMARK   14  A    between atoms: C_24  and  N_25
REMARK                            x       y       z     vdW  Elec       q    Type
REMARK                         _______ _______ _______ _____ _____    ______ ____
ROOT
ATOM      1  C   UNL     1       1.503   7.770  20.098  0.00  0.00    +0.000 C 
ATOM      2  C   UNL     1       1.858   9.137  19.519  0.00  0.00    +0.000 C 
ATOM      3  C   UNL     1       0.860  10.032  20.239  0.00  0.00    +0.000 C 
ATOM      4  C   UNL     1       0.714   9.346  21.616  0.00  0.00    +0.000 C 
ATOM      5  N   UNL     1       1.453   8.070  21.539  0.00  0.00    +0.000 NA
ATOM      6  H   UNL     1       0.933   7.343  22.028  0.00  0.00    +0.000 HD
ENDROOT
BRANCH   1   7
ATOM      7  C   UNL     1       2.474   6.672  19.666  0.00  0.00    +0.000 C 
BRANCH   7   8
ATOM      8  O   UNL     1       1.784   5.436  19.846  0.00  0.00    +0.000 OA
BRANCH   8   9
ATOM      9  C   UNL     1       2.185   4.718  21.010  0.00  0.00    +0.000 C 
BRANCH   9  10
ATOM     10  C   UNL     1       2.061   3.223  20.708  0.00  0.00    +0.000 C 
BRANCH  10  11
ATOM     11  O   UNL     1       3.323   2.754  20.225  0.00  0.00    +0.000 OA
BRANCH  11  12
ATOM     12  C   UNL     1       3.359   2.632  18.804  0.00  0.00    +0.000 C 
BRANCH  12  18
ATOM     13  C   UNL     1       5.636   4.867  14.915  0.00  0.00    +0.000 C 
ATOM     14  C   UNL     1       5.561   4.561  16.379  0.00  0.00    +0.000 A 
ATOM     15  C   UNL     1       6.450   5.133  17.294  0.00  0.00    +0.000 A 
ATOM     16  C   UNL     1       6.322   4.826  18.637  0.00  0.00    +0.000 A 
ATOM     17  N   UNL     1       5.355   4.029  19.123  0.00  0.00    +0.000 NA
ATOM     18  C   UNL     1       4.467   3.501  18.240  0.00  0.00    +0.000 A 
ATOM     19  C   UNL     1       4.559   3.729  16.867  0.00  0.00    +0.000 A 
BRANCH  16  20
ATOM     20  N   UNL     1       7.175   5.410  19.572  0.00  0.00    +0.000 N 
ATOM     21  H   UNL     1       6.974   5.097  20.513  0.00  0.00    +0.000 HD
ATOM     22  H   UNL     1       7.073   6.420  19.471  0.00  0.00    +0.000 HD
ENDBRANCH  16  20
ENDBRANCH  12  18
ENDBRANCH  11  12
ENDBRANCH  10  11
ENDBRANCH   9  10
ENDBRANCH   8   9
ENDBRANCH   7   8
ENDBRANCH   1   7
BRANCH   3  23
ATOM     23  O   UNL     1      -0.354   9.987  19.482  0.00  0.00    +0.000 OA
BRANCH  23  24
ATOM     24  C   UNL     1      -0.516  11.086  18.584  0.00  0.00    +0.000 C 
BRANCH  24  25
ATOM     25  C   UNL     1      -1.892  11.059  17.959  0.00  0.00    +0.000 A 
ATOM     26  C   UNL     1      -2.080  10.573  16.667  0.00  0.00    +0.000 A 
ATOM     27  C   UNL     1      -3.362  10.578  16.120  0.00  0.00    +0.000 A 
ATOM     28  C   UNL     1      -3.614  10.060  14.739  0.00  0.00    +0.000 C 
ATOM     29  C   UNL     1      -4.411  11.074  16.897  0.00  0.00    +0.000 A 
ATOM     30  C   UNL     1      -4.143  11.552  18.172  0.00  0.00    +0.000 A 
ATOM     31  N   UNL     1      -2.913  11.559  18.707  0.00  0.00    +0.000 NA
BRANCH  30  32
ATOM     32  N   UNL     1      -5.177  12.004  18.987  0.00  0.00    +0.000 N 
ATOM     33  H   UNL     1      -5.375  11.356  19.741  0.00  0.00    +0.000 HD
ATOM     34  H   UNL     1      -5.982  12.157  18.387  0.00  0.00    +0.000 HD
ENDBRANCH  30  32
ENDBRANCH  24  25
ENDBRANCH  23  24
ENDBRANCH   3  23
TORSDOF 12
ENDMDL
