MODEL 1
REMARK VINA RESULT:      -7.9      0.000      0.000
REMARK  Name = 
REMARK  8 active torsions:
REMARK  status: ('A' for Active; 'I' for Inactive)
REMARK    1  A    between atoms: C_1  and  C_2
REMARK    2  A    between atoms: C_3  and  C_4
REMARK    3  A    between atoms: C_4  and  C_5
REMARK    4  A    between atoms: C_5  and  C_6
REMARK    5  A    between atoms: C_6  and  O_8
REMARK    6  A    between atoms: C_14  and  O_15
REMARK    7  A    between atoms: O_15  and  C_16
REMARK    8  A    between atoms: C_16  and  C_17
REMARK                            x       y       z     vdW  Elec       q    Type
REMARK                         _______ _______ _______ _____ _____    ______ ____
ROOT
ATOM      1  C   UNL     1      -0.288  11.997  19.486  0.00  0.00    +0.000 C 
ATOM      2  C   UNL     1       0.148  10.899  20.428  0.00  0.00    +0.000 A 
ATOM      3  C   UNL     1      -0.046  10.913  21.765  0.00  0.00    +0.000 A 
ATOM      4  C   UNL     1       0.392   9.763  22.616  0.00  0.00    +0.000 A 
ATOM      5  O   UNL     1       0.179   9.749  23.824  0.00  0.00    +0.000 OA
ATOM      6  O   UNL     1       1.066   8.720  22.003  0.00  0.00    +0.000 OA
ATOM      7  C   UNL     1       1.287   8.702  20.618  0.00  0.00    +0.000 A 
ATOM      8  C   UNL     1       1.974   7.598  20.097  0.00  0.00    +0.000 A 
ATOM      9  C   UNL     1       2.230   7.534  18.729  0.00  0.00    +0.000 A 
ATOM     10  C   UNL     1       1.750   8.546  17.900  0.00  0.00    +0.000 A 
ATOM     11  C   UNL     1       1.075   9.642  18.439  0.00  0.00    +0.000 A 
ATOM     12  C   UNL     1       0.837   9.747  19.814  0.00  0.00    +0.000 A 
ENDROOT
BRANCH   3  13
ATOM     13  C   UNL     1      -0.755  12.027  22.521  0.00  0.00    +0.000 C 
BRANCH  13  14
ATOM     14  C   UNL     1      -2.178  11.729  23.002  0.00  0.00    +0.000 C 
BRANCH  14  15
ATOM     15  C   UNL     1      -3.215  12.644  22.398  0.00  0.00    +0.000 C 
ATOM     16  O   UNL     1      -4.378  12.343  22.194  0.00  0.00    +0.000 OA
BRANCH  15  17
ATOM     17  O   UNL     1      -2.734  13.885  22.150  0.00  0.00    +0.000 OA
ATOM     18  H   UNL     1      -1.778  13.909  21.951  0.00  0.00    +0.000 HD
ENDBRANCH  15  17
ENDBRANCH  14  15
ENDBRANCH  13  14
ENDBRANCH   3  13
BRANCH   9  19
ATOM     19  O   UNL     1       2.949   6.457  18.286  0.00  0.00    +0.000 OA
BRANCH  19  20
ATOM     20  C   UNL     1       2.170   5.287  17.986  0.00  0.00    +0.000 C 
BRANCH  20  21
ATOM     21  C   UNL     1       2.288   4.312  19.130  0.00  0.00    +0.000 A 
ATOM     22  C   UNL     1       1.105   3.997  19.829  0.00  0.00    +0.000 A 
ATOM     23  C   UNL     1       1.117   3.124  20.914  0.00  0.00    +0.000 A 
ATOM     24  C   UNL     1       2.316   2.553  21.328  0.00  0.00    +0.000 A 
ATOM     25  C   UNL     1       3.500   2.862  20.660  0.00  0.00    +0.000 A 
ATOM     26  C   UNL     1       3.491   3.741  19.569  0.00  0.00    +0.000 A 
ATOM     27 BR   UNL     1       5.167   4.105  18.752  0.00  0.00    +0.000 Br
ENDBRANCH  20  21
ENDBRANCH  19  20
ENDBRANCH   9  19
TORSDOF 7
ENDMDL
MODEL 2
REMARK VINA RESULT:      -7.9      3.313      9.139
REMARK  Name = 
REMARK  8 active torsions:
REMARK  status: ('A' for Active; 'I' for Inactive)
REMARK    1  A    between atoms: C_1  and  C_2
REMARK    2  A    between atoms: C_3  and  C_4
REMARK    3  A    between atoms: C_4  and  C_5
REMARK    4  A    between atoms: C_5  and  C_6
REMARK    5  A    between atoms: C_6  and  O_8
REMARK    6  A    between atoms: C_14  and  O_15
REMARK    7  A    between atoms: O_15  and  C_16
REMARK    8  A    between atoms: C_16  and  C_17
REMARK                            x       y       z     vdW  Elec       q    Type
REMARK                         _______ _______ _______ _____ _____    ______ ____
ROOT
ATOM      1  C   UNL     1       4.453   3.028  18.763  0.00  0.00    +0.000 C 
ATOM      2  C   UNL     1       4.306   4.472  18.343  0.00  0.00    +0.000 A 
ATOM      3  C   UNL     1       5.009   5.057  17.348  0.00  0.00    +0.000 A 
ATOM      4  C   UNL     1       4.772   6.488  16.980  0.00  0.00    +0.000 A 
ATOM      5  O   UNL     1       5.374   7.013  16.048  0.00  0.00    +0.000 OA
ATOM      6  O   UNL     1       3.866   7.213  17.737  0.00  0.00    +0.000 OA
ATOM      7  C   UNL     1       3.142   6.620  18.781  0.00  0.00    +0.000 A 
ATOM      8  C   UNL     1       2.247   7.439  19.481  0.00  0.00    +0.000 A 
ATOM      9  C   UNL     1       1.510   6.905  20.535  0.00  0.00    +0.000 A 
ATOM     10  C   UNL     1       1.641   5.551  20.838  0.00  0.00    +0.000 A 
ATOM     11  C   UNL     1       2.545   4.752  20.136  0.00  0.00    +0.000 A 
ATOM     12  C   UNL     1       3.322   5.275  19.096  0.00  0.00    +0.000 A 
ENDROOT
BRANCH   3  13
ATOM     13  C   UNL     1       6.037   4.342  16.484  0.00  0.00    +0.000 C 
BRANCH  13  14
ATOM     14  C   UNL     1       5.610   3.998  15.055  0.00  0.00    +0.000 C 
BRANCH  14  15
ATOM     15  C   UNL     1       6.661   4.329  14.023  0.00  0.00    +0.000 C 
ATOM     16  O   UNL     1       7.489   5.215  14.130  0.00  0.00    +0.000 OA
BRANCH  15  17
ATOM     17  O   UNL     1       6.634   3.486  12.963  0.00  0.00    +0.000 OA
ATOM     18  H   UNL     1       7.376   3.606  12.339  0.00  0.00    +0.000 HD
ENDBRANCH  15  17
ENDBRANCH  14  15
ENDBRANCH  13  14
ENDBRANCH   3  13
BRANCH   9  19
ATOM     19  O   UNL     1       0.689   7.766  21.213  0.00  0.00    +0.000 OA
BRANCH  19  20
ATOM     20  C   UNL     1       1.328   8.957  21.703  0.00  0.00    +0.000 C 
BRANCH  20  21
ATOM     21  C   UNL     1       0.302  10.058  21.800  0.00  0.00    +0.000 A 
ATOM     22  C   UNL     1      -0.444  10.137  22.993  0.00  0.00    +0.000 A 
ATOM     23  C   UNL     1      -1.429  11.106  23.167  0.00  0.00    +0.000 A 
ATOM     24  C   UNL     1      -1.693  12.013  22.147  0.00  0.00    +0.000 A 
ATOM     25  C   UNL     1      -0.977  11.944  20.952  0.00  0.00    +0.000 A 
ATOM     26  C   UNL     1       0.014  10.970  20.774  0.00  0.00    +0.000 A 
ATOM     27 BR   UNL     1       0.907  10.957  19.098  0.00  0.00    +0.000 Br
ENDBRANCH  20  21
ENDBRANCH  19  20
ENDBRANCH   9  19
TORSDOF 7
ENDMDL
MODEL 3
REMARK VINA RESULT:      -7.9      3.519      8.130
REMARK  Name = 
REMARK  8 active torsions:
REMARK  status: ('A' for Active; 'I' for Inactive)
REMARK    1  A    between atoms: C_1  and  C_2
REMARK    2  A    between atoms: C_3  and  C_4
REMARK    3  A    between atoms: C_4  and  C_5
REMARK    4  A    between atoms: C_5  and  C_6
REMARK    5  A    between atoms: C_6  and  O_8
REMARK    6  A    between atoms: C_14  and  O_15
REMARK    7  A    between atoms: O_15  and  C_16
REMARK    8  A    between atoms: C_16  and  C_17
REMARK                            x       y       z     vdW  Elec       q    Type
REMARK                         _______ _______ _______ _____ _____    ______ ____
ROOT
ATOM      1  C   UNL     1       4.095   5.853  17.278  0.00  0.00    +0.000 C 
ATOM      2  C   UNL     1       3.315   5.904  18.571  0.00  0.00    +0.000 A 
ATOM      3  C   UNL     1       3.237   4.889  19.460  0.00  0.00    +0.000 A 
ATOM      4  C   UNL     1       2.464   5.042  20.732  0.00  0.00    +0.000 A 
ATOM      5  O   UNL     1       2.426   4.141  21.565  0.00  0.00    +0.000 OA
ATOM      6  O   UNL     1       1.775   6.226  20.937  0.00  0.00    +0.000 OA
ATOM      7  C   UNL     1       1.837   7.280  20.014  0.00  0.00    +0.000 A 
ATOM      8  C   UNL     1       1.107   8.437  20.318  0.00  0.00    +0.000 A 
ATOM      9  C   UNL     1       1.125   9.510  19.430  0.00  0.00    +0.000 A 
ATOM     10  C   UNL     1       1.912   9.431  18.283  0.00  0.00    +0.000 A 
ATOM     11  C   UNL     1       2.625   8.267  17.993  0.00  0.00    +0.000 A 
ATOM     12  C   UNL     1       2.595   7.162  18.851  0.00  0.00    +0.000 A 
ENDROOT
BRANCH   3  13
ATOM     13  C   UNL     1       3.942   3.550  19.304  0.00  0.00    +0.000 C 
BRANCH  13  14
ATOM     14  C   UNL     1       3.056   2.343  18.986  0.00  0.00    +0.000 C 
BRANCH  14  15
ATOM     15  C   UNL     1       1.982   2.644  17.967  0.00  0.00    +0.000 C 
ATOM     16  O   UNL     1       2.189   2.995  16.819  0.00  0.00    +0.000 OA
BRANCH  15  17
ATOM     17  O   UNL     1       0.735   2.424  18.445  0.00  0.00    +0.000 OA
ATOM     18  H   UNL     1       0.300   1.631  18.075  0.00  0.00    +0.000 HD
ENDBRANCH  15  17
ENDBRANCH  14  15
ENDBRANCH  13  14
ENDBRANCH   3  13
BRANCH   9  19
ATOM     19  O   UNL     1       0.353  10.592  19.757  0.00  0.00    +0.000 OA
BRANCH  19  20
ATOM     20  C   UNL     1      -0.046  11.414  18.647  0.00  0.00    +0.000 C 
BRANCH  20  21
ATOM     21  C   UNL     1      -1.503  11.162  18.349  0.00  0.00    +0.000 A 
ATOM     22  C   UNL     1      -1.799  10.213  17.350  0.00  0.00    +0.000 A 
ATOM     23  C   UNL     1      -3.113   9.928  16.990  0.00  0.00    +0.000 A 
ATOM     24  C   UNL     1      -4.161  10.593  17.617  0.00  0.00    +0.000 A 
ATOM     25  C   UNL     1      -3.891  11.546  18.599  0.00  0.00    +0.000 A 
ATOM     26  C   UNL     1      -2.569  11.835  18.963  0.00  0.00    +0.000 A 
ATOM     27 BR   UNL     1      -2.321  13.167  20.295  0.00  0.00    +0.000 Br
ENDBRANCH  20  21
ENDBRANCH  19  20
ENDBRANCH   9  19
TORSDOF 7
ENDMDL
MODEL 4
REMARK VINA RESULT:      -7.9      1.564      1.955
REMARK  Name = 
REMARK  8 active torsions:
REMARK  status: ('A' for Active; 'I' for Inactive)
REMARK    1  A    between atoms: C_1  and  C_2
REMARK    2  A    between atoms: C_3  and  C_4
REMARK    3  A    between atoms: C_4  and  C_5
REMARK    4  A    between atoms: C_5  and  C_6
REMARK    5  A    between atoms: C_6  and  O_8
REMARK    6  A    between atoms: C_14  and  O_15
REMARK    7  A    between atoms: O_15  and  C_16
REMARK    8  A    between atoms: C_16  and  C_17
REMARK                            x       y       z     vdW  Elec       q    Type
REMARK                         _______ _______ _______ _____ _____    ______ ____
ROOT
ATOM      1  C   UNL     1      -0.776  12.333  18.648  0.00  0.00    +0.000 C 
ATOM      2  C   UNL     1      -0.473  11.495  19.867  0.00  0.00    +0.000 A 
ATOM      3  C   UNL     1      -0.885  11.786  21.121  0.00  0.00    +0.000 A 
ATOM      4  C   UNL     1      -0.563  10.878  22.265  0.00  0.00    +0.000 A 
ATOM      5  O   UNL     1      -0.972  11.113  23.398  0.00  0.00    +0.000 OA
ATOM      6  O   UNL     1       0.229   9.770  22.013  0.00  0.00    +0.000 OA
ATOM      7  C   UNL     1       0.674   9.465  20.718  0.00  0.00    +0.000 A 
ATOM      8  C   UNL     1       1.466   8.319  20.570  0.00  0.00    +0.000 A 
ATOM      9  C   UNL     1       1.945   7.976  19.308  0.00  0.00    +0.000 A 
ATOM     10  C   UNL     1       1.581   8.752  18.209  0.00  0.00    +0.000 A 
ATOM     11  C   UNL     1       0.799   9.895  18.378  0.00  0.00    +0.000 A 
ATOM     12  C   UNL     1       0.336  10.281  19.641  0.00  0.00    +0.000 A 
ENDROOT
BRANCH   3  13
ATOM     13  C   UNL     1      -1.737  12.992  21.489  0.00  0.00    +0.000 C 
BRANCH  13  14
ATOM     14  C   UNL     1      -3.244  12.862  21.255  0.00  0.00    +0.000 C 
BRANCH  14  15
ATOM     15  C   UNL     1      -4.033  12.690  22.531  0.00  0.00    +0.000 C 
ATOM     16  O   UNL     1      -5.223  12.439  22.587  0.00  0.00    +0.000 OA
BRANCH  15  17
ATOM     17  O   UNL     1      -3.258  12.784  23.638  0.00  0.00    +0.000 OA
ATOM     18  H   UNL     1      -3.420  13.588  24.170  0.00  0.00    +0.000 HD
ENDBRANCH  15  17
ENDBRANCH  14  15
ENDBRANCH  13  14
ENDBRANCH   3  13
BRANCH   9  19
ATOM     19  O   UNL     1       2.754   6.874  19.234  0.00  0.00    +0.000 OA
BRANCH  19  20
ATOM     20  C   UNL     1       2.368   5.778  20.080  0.00  0.00    +0.000 C 
BRANCH  20  21
ATOM     21  C   UNL     1       2.427   4.499  19.283  0.00  0.00    +0.000 A 
ATOM     22  C   UNL     1       2.633   4.618  17.894  0.00  0.00    +0.000 A 
ATOM     23  C   UNL     1       2.681   3.496  17.071  0.00  0.00    +0.000 A 
ATOM     24  C   UNL     1       2.515   2.229  17.621  0.00  0.00    +0.000 A 
ATOM     25  C   UNL     1       2.295   2.089  18.991  0.00  0.00    +0.000 A 
ATOM     26  C   UNL     1       2.247   3.217  19.820  0.00  0.00    +0.000 A 
ATOM     27 BR   UNL     1       1.919   2.906  21.666  0.00  0.00    +0.000 Br
ENDBRANCH  20  21
ENDBRANCH  19  20
ENDBRANCH   9  19
TORSDOF 7
ENDMDL
MODEL 5
REMARK VINA RESULT:      -7.8      3.609      9.263
REMARK  Name = 
REMARK  8 active torsions:
REMARK  status: ('A' for Active; 'I' for Inactive)
REMARK    1  A    between atoms: C_1  and  C_2
REMARK    2  A    between atoms: C_3  and  C_4
REMARK    3  A    between atoms: C_4  and  C_5
REMARK    4  A    between atoms: C_5  and  C_6
REMARK    5  A    between atoms: C_6  and  O_8
REMARK    6  A    between atoms: C_14  and  O_15
REMARK    7  A    between atoms: O_15  and  C_16
REMARK    8  A    between atoms: C_16  and  C_17
REMARK                            x       y       z     vdW  Elec       q    Type
REMARK                         _______ _______ _______ _____ _____    ______ ____
ROOT
ATOM      1  C   UNL     1       3.878   2.503  17.691  0.00  0.00    +0.000 C 
ATOM      2  C   UNL     1       4.050   3.999  17.561  0.00  0.00    +0.000 A 
ATOM      3  C   UNL     1       4.896   4.602  16.697  0.00  0.00    +0.000 A 
ATOM      4  C   UNL     1       4.976   6.093  16.617  0.00  0.00    +0.000 A 
ATOM      5  O   UNL     1       5.709   6.648  15.804  0.00  0.00    +0.000 OA
ATOM      6  O   UNL     1       4.212   6.835  17.503  0.00  0.00    +0.000 OA
ATOM      7  C   UNL     1       3.341   6.219  18.414  0.00  0.00    +0.000 A 
ATOM      8  C   UNL     1       2.609   7.060  19.263  0.00  0.00    +0.000 A 
ATOM      9  C   UNL     1       1.738   6.501  20.195  0.00  0.00    +0.000 A 
ATOM     10  C   UNL     1       1.572   5.117  20.227  0.00  0.00    +0.000 A 
ATOM     11  C   UNL     1       2.317   4.296  19.380  0.00  0.00    +0.000 A 
ATOM     12  C   UNL     1       3.226   4.832  18.460  0.00  0.00    +0.000 A 
ENDROOT
BRANCH   3  13
ATOM     13  C   UNL     1       5.786   3.865  15.708  0.00  0.00    +0.000 C 
BRANCH  13  14
ATOM     14  C   UNL     1       5.436   4.021  14.225  0.00  0.00    +0.000 C 
BRANCH  14  15
ATOM     15  C   UNL     1       6.637   4.308  13.357  0.00  0.00    +0.000 C 
ATOM     16  O   UNL     1       6.875   3.765  12.293  0.00  0.00    +0.000 OA
BRANCH  15  17
ATOM     17  O   UNL     1       7.417   5.296  13.856  0.00  0.00    +0.000 OA
ATOM     18  H   UNL     1       8.346   5.034  14.006  0.00  0.00    +0.000 HD
ENDBRANCH  15  17
ENDBRANCH  14  15
ENDBRANCH  13  14
ENDBRANCH   3  13
BRANCH   9  19
ATOM     19  O   UNL     1       1.088   7.370  21.030  0.00  0.00    +0.000 OA
BRANCH  19  20
ATOM     20  C   UNL     1       1.654   8.689  21.095  0.00  0.00    +0.000 C 
BRANCH  20  21
ATOM     21  C   UNL     1       0.656   9.678  20.546  0.00  0.00    +0.000 A 
ATOM     22  C   UNL     1       0.773  10.017  19.183  0.00  0.00    +0.000 A 
ATOM     23  C   UNL     1      -0.089  10.937  18.590  0.00  0.00    +0.000 A 
ATOM     24  C   UNL     1      -1.081  11.544  19.353  0.00  0.00    +0.000 A 
ATOM     25  C   UNL     1      -1.205  11.234  20.707  0.00  0.00    +0.000 A 
ATOM     26  C   UNL     1      -0.339  10.309  21.305  0.00  0.00    +0.000 A 
ATOM     27 BR   UNL     1      -0.587   9.984  23.160  0.00  0.00    +0.000 Br
ENDBRANCH  20  21
ENDBRANCH  19  20
ENDBRANCH   9  19
TORSDOF 7
ENDMDL
MODEL 6
REMARK VINA RESULT:      -7.8      1.406      1.569
REMARK  Name = 
REMARK  8 active torsions:
REMARK  status: ('A' for Active; 'I' for Inactive)
REMARK    1  A    between atoms: C_1  and  C_2
REMARK    2  A    between atoms: C_3  and  C_4
REMARK    3  A    between atoms: C_4  and  C_5
REMARK    4  A    between atoms: C_5  and  C_6
REMARK    5  A    between atoms: C_6  and  O_8
REMARK    6  A    between atoms: C_14  and  O_15
REMARK    7  A    between atoms: O_15  and  C_16
REMARK    8  A    between atoms: C_16  and  C_17
REMARK                            x       y       z     vdW  Elec       q    Type
REMARK                         _______ _______ _______ _____ _____    ______ ____
ROOT
ATOM      1  C   UNL     1      -0.660  12.230  18.539  0.00  0.00    +0.000 C 
ATOM      2  C   UNL     1      -0.400  11.416  19.785  0.00  0.00    +0.000 A 
ATOM      3  C   UNL     1      -0.855  11.733  21.017  0.00  0.00    +0.000 A 
ATOM      4  C   UNL     1      -0.575  10.848  22.190  0.00  0.00    +0.000 A 
ATOM      5  O   UNL     1      -1.023  11.106  23.303  0.00  0.00    +0.000 OA
ATOM      6  O   UNL     1       0.225   9.735  21.988  0.00  0.00    +0.000 OA
ATOM      7  C   UNL     1       0.715   9.404  20.716  0.00  0.00    +0.000 A 
ATOM      8  C   UNL     1       1.510   8.255  20.619  0.00  0.00    +0.000 A 
ATOM      9  C   UNL     1       2.032   7.886  19.381  0.00  0.00    +0.000 A 
ATOM     10  C   UNL     1       1.708   8.640  18.255  0.00  0.00    +0.000 A 
ATOM     11  C   UNL     1       0.922   9.787  18.373  0.00  0.00    +0.000 A 
ATOM     12  C   UNL     1       0.415  10.198  19.611  0.00  0.00    +0.000 A 
ENDROOT
BRANCH   3  13
ATOM     13  C   UNL     1      -1.719  12.946  21.331  0.00  0.00    +0.000 C 
BRANCH  13  14
ATOM     14  C   UNL     1      -3.222  12.799  21.083  0.00  0.00    +0.000 C 
BRANCH  14  15
ATOM     15  C   UNL     1      -4.030  12.704  22.355  0.00  0.00    +0.000 C 
ATOM     16  O   UNL     1      -5.187  12.330  22.421  0.00  0.00    +0.000 OA
BRANCH  15  17
ATOM     17  O   UNL     1      -3.309  13.028  23.455  0.00  0.00    +0.000 OA
ATOM     18  H   UNL     1      -2.346  12.890  23.355  0.00  0.00    +0.000 HD
ENDBRANCH  15  17
ENDBRANCH  14  15
ENDBRANCH  13  14
ENDBRANCH   3  13
BRANCH   9  19
ATOM     19  O   UNL     1       2.842   6.783  19.358  0.00  0.00    +0.000 OA
BRANCH  19  20
ATOM     20  C   UNL     1       3.025   6.188  18.063  0.00  0.00    +0.000 C 
BRANCH  20  21
ATOM     21  C   UNL     1       2.674   4.724  18.142  0.00  0.00    +0.000 A 
ATOM     22  C   UNL     1       1.566   4.371  18.938  0.00  0.00    +0.000 A 
ATOM     23  C   UNL     1       1.178   3.043  19.090  0.00  0.00    +0.000 A 
ATOM     24  C   UNL     1       1.897   2.037  18.454  0.00  0.00    +0.000 A 
ATOM     25  C   UNL     1       3.006   2.361  17.673  0.00  0.00    +0.000 A 
ATOM     26  C   UNL     1       3.398   3.697  17.519  0.00  0.00    +0.000 A 
ATOM     27 BR   UNL     1       4.937   4.018  16.451  0.00  0.00    +0.000 Br
ENDBRANCH  20  21
ENDBRANCH  19  20
ENDBRANCH   9  19
TORSDOF 7
ENDMDL
MODEL 7
REMARK VINA RESULT:      -7.8      2.173      2.856
REMARK  Name = 
REMARK  8 active torsions:
REMARK  status: ('A' for Active; 'I' for Inactive)
REMARK    1  A    between atoms: C_1  and  C_2
REMARK    2  A    between atoms: C_3  and  C_4
REMARK    3  A    between atoms: C_4  and  C_5
REMARK    4  A    between atoms: C_5  and  C_6
REMARK    5  A    between atoms: C_6  and  O_8
REMARK    6  A    between atoms: C_14  and  O_15
REMARK    7  A    between atoms: O_15  and  C_16
REMARK    8  A    between atoms: C_16  and  C_17
REMARK                            x       y       z     vdW  Elec       q    Type
REMARK                         _______ _______ _______ _____ _____    ______ ____
ROOT
ATOM      1  C   UNL     1       0.718  11.457  18.750  0.00  0.00    +0.000 C 
ATOM      2  C   UNL     1       0.817  10.497  19.913  0.00  0.00    +0.000 A 
ATOM      3  C   UNL     1       0.435  10.781  21.177  0.00  0.00    +0.000 A 
ATOM      4  C   UNL     1       0.541   9.755  22.260  0.00  0.00    +0.000 A 
ATOM      5  O   UNL     1       0.154   9.991  23.400  0.00  0.00    +0.000 OA
ATOM      6  O   UNL     1       1.109   8.532  21.943  0.00  0.00    +0.000 OA
ATOM      7  C   UNL     1       1.523   8.231  20.637  0.00  0.00    +0.000 A 
ATOM      8  C   UNL     1       2.080   6.964  20.422  0.00  0.00    +0.000 A 
ATOM      9  C   UNL     1       2.518   6.617  19.146  0.00  0.00    +0.000 A 
ATOM     10  C   UNL     1       2.344   7.519  18.098  0.00  0.00    +0.000 A 
ATOM     11  C   UNL     1       1.795   8.780  18.335  0.00  0.00    +0.000 A 
ATOM     12  C   UNL     1       1.381   9.166  19.614  0.00  0.00    +0.000 A 
ENDROOT
BRANCH   3  13
ATOM     13  C   UNL     1      -0.176  12.104  21.616  0.00  0.00    +0.000 C 
BRANCH  13  14
ATOM     14  C   UNL     1      -1.646  12.333  21.252  0.00  0.00    +0.000 C 
BRANCH  14  15
ATOM     15  C   UNL     1      -2.539  12.500  22.458  0.00  0.00    +0.000 C 
ATOM     16  O   UNL     1      -2.631  11.702  23.373  0.00  0.00    +0.000 OA
BRANCH  15  17
ATOM     17  O   UNL     1      -3.202  13.680  22.455  0.00  0.00    +0.000 OA
ATOM     18  H   UNL     1      -3.420  14.013  21.563  0.00  0.00    +0.000 HD
ENDBRANCH  15  17
ENDBRANCH  14  15
ENDBRANCH  13  14
ENDBRANCH   3  13
BRANCH   9  19
ATOM     19  O   UNL     1       3.099   5.385  19.008  0.00  0.00    +0.000 OA
BRANCH  19  20
ATOM     20  C   UNL     1       4.506   5.338  19.299  0.00  0.00    +0.000 C 
BRANCH  20  21
ATOM     21  C   UNL     1       5.256   4.977  18.042  0.00  0.00    +0.000 A 
ATOM     22  C   UNL     1       4.499   4.466  16.968  0.00  0.00    +0.000 A 
ATOM     23  C   UNL     1       5.105   4.084  15.774  0.00  0.00    +0.000 A 
ATOM     24  C   UNL     1       6.483   4.199  15.631  0.00  0.00    +0.000 A 
ATOM     25  C   UNL     1       7.253   4.689  16.686  0.00  0.00    +0.000 A 
ATOM     26  C   UNL     1       6.646   5.073  17.889  0.00  0.00    +0.000 A 
ATOM     27 BR   UNL     1       7.796   5.704  19.263  0.00  0.00    +0.000 Br
ENDBRANCH  20  21
ENDBRANCH  19  20
ENDBRANCH   9  19
TORSDOF 7
ENDMDL
MODEL 8
REMARK VINA RESULT:      -7.8      3.445      8.584
REMARK  Name = 
REMARK  8 active torsions:
REMARK  status: ('A' for Active; 'I' for Inactive)
REMARK    1  A    between atoms: C_1  and  C_2
REMARK    2  A    between atoms: C_3  and  C_4
REMARK    3  A    between atoms: C_4  and  C_5
REMARK    4  A    between atoms: C_5  and  C_6
REMARK    5  A    between atoms: C_6  and  O_8
REMARK    6  A    between atoms: C_14  and  O_15
REMARK    7  A    between atoms: O_15  and  C_16
REMARK    8  A    between atoms: C_16  and  C_17
REMARK                            x       y       z     vdW  Elec       q    Type
REMARK                         _______ _______ _______ _____ _____    ______ ____
ROOT
ATOM      1  C   UNL     1       2.797   4.699  20.642  0.00  0.00    +0.000 C 
ATOM      2  C   UNL     1       3.003   5.739  19.566  0.00  0.00    +0.000 A 
ATOM      3  C   UNL     1       3.825   5.592  18.503  0.00  0.00    +0.000 A 
ATOM      4  C   UNL     1       3.941   6.666  17.469  0.00  0.00    +0.000 A 
ATOM      5  O   UNL     1       4.651   6.520  16.478  0.00  0.00    +0.000 OA
ATOM      6  O   UNL     1       3.238   7.842  17.670  0.00  0.00    +0.000 OA
ATOM      7  C   UNL     1       2.393   8.012  18.777  0.00  0.00    +0.000 A 
ATOM      8  C   UNL     1       1.724   9.238  18.885  0.00  0.00    +0.000 A 
ATOM      9  C   UNL     1       0.881   9.464  19.971  0.00  0.00    +0.000 A 
ATOM     10  C   UNL     1       0.680   8.445  20.900  0.00  0.00    +0.000 A 
ATOM     11  C   UNL     1       1.364   7.234  20.780  0.00  0.00    +0.000 A 
ATOM     12  C   UNL     1       2.243   6.996  19.718  0.00  0.00    +0.000 A 
ENDROOT
BRANCH   3  13
ATOM     13  C   UNL     1       4.649   4.345  18.218  0.00  0.00    +0.000 C 
BRANCH  13  14
ATOM     14  C   UNL     1       4.016   3.304  17.291  0.00  0.00    +0.000 C 
BRANCH  14  15
ATOM     15  C   UNL     1       3.311   2.195  18.033  0.00  0.00    +0.000 C 
ATOM     16  O   UNL     1       2.117   1.965  17.974  0.00  0.00    +0.000 OA
BRANCH  15  17
ATOM     17  O   UNL     1       4.164   1.420  18.745  0.00  0.00    +0.000 OA
ATOM     18  H   UNL     1       3.725   0.727  19.275  0.00  0.00    +0.000 HD
ENDBRANCH  15  17
ENDBRANCH  14  15
ENDBRANCH  13  14
ENDBRANCH   3  13
BRANCH   9  19
ATOM     19  O   UNL     1       0.294  10.698  20.048  0.00  0.00    +0.000 OA
BRANCH  19  20
ATOM     20  C   UNL     1       0.010  11.318  18.783  0.00  0.00    +0.000 C 
BRANCH  20  21
ATOM     21  C   UNL     1      -1.446  11.109  18.450  0.00  0.00    +0.000 A 
ATOM     22  C   UNL     1      -1.748  10.127  17.485  0.00  0.00    +0.000 A 
ATOM     23  C   UNL     1      -3.061   9.875  17.095  0.00  0.00    +0.000 A 
ATOM     24  C   UNL     1      -4.100  10.609  17.657  0.00  0.00    +0.000 A 
ATOM     25  C   UNL     1      -3.823  11.595  18.603  0.00  0.00    +0.000 A 
ATOM     26  C   UNL     1      -2.502  11.850  18.997  0.00  0.00    +0.000 A 
ATOM     27 BR   UNL     1      -2.243  13.232  20.274  0.00  0.00    +0.000 Br
ENDBRANCH  20  21
ENDBRANCH  19  20
ENDBRANCH   9  19
TORSDOF 7
ENDMDL
MODEL 9
REMARK VINA RESULT:      -7.7      3.847      8.927
REMARK  Name = 
REMARK  8 active torsions:
REMARK  status: ('A' for Active; 'I' for Inactive)
REMARK    1  A    between atoms: C_1  and  C_2
REMARK    2  A    between atoms: C_3  and  C_4
REMARK    3  A    between atoms: C_4  and  C_5
REMARK    4  A    between atoms: C_5  and  C_6
REMARK    5  A    between atoms: C_6  and  O_8
REMARK    6  A    between atoms: C_14  and  O_15
REMARK    7  A    between atoms: O_15  and  C_16
REMARK    8  A    between atoms: C_16  and  C_17
REMARK                            x       y       z     vdW  Elec       q    Type
REMARK                         _______ _______ _______ _____ _____    ______ ____
ROOT
ATOM      1  C   UNL     1       3.059   5.190  20.201  0.00  0.00    +0.000 C 
ATOM      2  C   UNL     1       3.244   6.138  19.039  0.00  0.00    +0.000 A 
ATOM      3  C   UNL     1       4.090   5.930  18.006  0.00  0.00    +0.000 A 
ATOM      4  C   UNL     1       4.182   6.913  16.881  0.00  0.00    +0.000 A 
ATOM      5  O   UNL     1       4.915   6.709  15.918  0.00  0.00    +0.000 OA
ATOM      6  O   UNL     1       3.431   8.073  16.967  0.00  0.00    +0.000 OA
ATOM      7  C   UNL     1       2.561   8.306  18.042  0.00  0.00    +0.000 A 
ATOM      8  C   UNL     1       1.842   9.508  18.031  0.00  0.00    +0.000 A 
ATOM      9  C   UNL     1       0.972   9.796  19.080  0.00  0.00    +0.000 A 
ATOM     10  C   UNL     1       0.794   8.856  20.093  0.00  0.00    +0.000 A 
ATOM     11  C   UNL     1       1.526   7.667  20.092  0.00  0.00    +0.000 A 
ATOM     12  C   UNL     1       2.433   7.372  19.068  0.00  0.00    +0.000 A 
ENDROOT
BRANCH   3  13
ATOM     13  C   UNL     1       4.966   4.697  17.845  0.00  0.00    +0.000 C 
BRANCH  13  14
ATOM     14  C   UNL     1       6.325   4.727  18.550  0.00  0.00    +0.000 C 
BRANCH  14  15
ATOM     15  C   UNL     1       7.481   4.960  17.607  0.00  0.00    +0.000 C 
ATOM     16  O   UNL     1       8.247   4.097  17.216  0.00  0.00    +0.000 OA
BRANCH  15  17
ATOM     17  O   UNL     1       7.552   6.242  17.176  0.00  0.00    +0.000 OA
ATOM     18  H   UNL     1       7.347   6.356  16.228  0.00  0.00    +0.000 HD
ENDBRANCH  15  17
ENDBRANCH  14  15
ENDBRANCH  13  14
ENDBRANCH   3  13
BRANCH   9  19
ATOM     19  O   UNL     1       0.336  11.007  19.038  0.00  0.00    +0.000 OA
BRANCH  19  20
ATOM     20  C   UNL     1      -0.959  11.037  19.661  0.00  0.00    +0.000 C 
BRANCH  20  21
ATOM     21  C   UNL     1      -2.019  10.976  18.591  0.00  0.00    +0.000 A 
ATOM     22  C   UNL     1      -1.727  10.214  17.442  0.00  0.00    +0.000 A 
ATOM     23  C   UNL     1      -2.635  10.114  16.390  0.00  0.00    +0.000 A 
ATOM     24  C   UNL     1      -3.852  10.783  16.463  0.00  0.00    +0.000 A 
ATOM     25  C   UNL     1      -4.156  11.554  17.584  0.00  0.00    +0.000 A 
ATOM     26  C   UNL     1      -3.244  11.656  18.644  0.00  0.00    +0.000 A 
ATOM     27 BR   UNL     1      -3.755  12.753  20.108  0.00  0.00    +0.000 Br
ENDBRANCH  20  21
ENDBRANCH  19  20
ENDBRANCH   9  19
TORSDOF 7
ENDMDL
