MODEL 1
REMARK VINA RESULT:      -8.3      0.000      0.000
REMARK  Name = 
REMARK  1 active torsions:
REMARK  status: ('A' for Active; 'I' for Inactive)
REMARK    1  A    between atoms: C_4  and  C_5
REMARK                            x       y       z     vdW  Elec       q    Type
REMARK                         _______ _______ _______ _____ _____    ______ ____
ROOT
ATOM      1  C   UNL     1       5.107   4.583  18.300  0.00  0.00    +0.000 A 
ATOM      2  C   UNL     1       5.785   5.153  19.314  0.00  0.00    +0.000 A 
ATOM      3  C   UNL     1       7.123   5.700  18.966  0.00  0.00    +0.000 A 
ATOM      4  N   UNL     1       7.704   5.641  17.809  0.00  0.00    +0.000 NA
ATOM      5  C   UNL     1       6.994   5.033  16.814  0.00  0.00    +0.000 A 
ATOM      6  N   UNL     1       7.351   4.791  15.572  0.00  0.00    +0.000 NA
ATOM      7  C   UNL     1       6.227   4.239  15.036  0.00  0.00    +0.000 A 
ATOM      8  N   UNL     1       6.158   3.876  13.661  0.00  0.00    +0.000 N 
ATOM      9  C   UNL     1       7.215   3.876  12.772  0.00  0.00    +0.000 A 
ATOM     10  C   UNL     1       6.759   3.487  11.532  0.00  0.00    +0.000 A 
ATOM     11  C   UNL     1       5.372   3.247  11.653  0.00  0.00    +0.000 A 
ATOM     12  C   UNL     1       5.031   3.473  12.968  0.00  0.00    +0.000 A 
ATOM     13  N   UNL     1       5.187   4.078  15.854  0.00  0.00    +0.000 NA
ATOM     14  N   UNL     1       5.690   4.547  17.026  0.00  0.00    +0.000 N 
ENDROOT
BRANCH   1  18
ATOM     15  C   UNL     1       1.304   2.797  19.043  0.00  0.00    +0.000 A 
ATOM     16  C   UNL     1       2.467   2.132  19.430  0.00  0.00    +0.000 A 
ATOM     17  C   UNL     1       3.718   2.711  19.195  0.00  0.00    +0.000 A 
ATOM     18  C   UNL     1       3.806   3.960  18.573  0.00  0.00    +0.000 A 
ATOM     19  C   UNL     1       2.632   4.622  18.187  0.00  0.00    +0.000 A 
ATOM     20  C   UNL     1       1.385   4.040  18.422  0.00  0.00    +0.000 A 
ENDBRANCH   1  18
TORSDOF 1
ENDMDL
MODEL 2
REMARK VINA RESULT:      -8.3      0.049      1.081
REMARK  Name = 
REMARK  1 active torsions:
REMARK  status: ('A' for Active; 'I' for Inactive)
REMARK    1  A    between atoms: C_4  and  C_5
REMARK                            x       y       z     vdW  Elec       q    Type
REMARK                         _______ _______ _______ _____ _____    ______ ____
ROOT
ATOM      1  C   UNL     1       5.107   4.601  18.307  0.00  0.00    +0.000 A 
ATOM      2  C   UNL     1       5.792   5.163  19.320  0.00  0.00    +0.000 A 
ATOM      3  C   UNL     1       7.137   5.693  18.971  0.00  0.00    +0.000 A 
ATOM      4  N   UNL     1       7.717   5.625  17.814  0.00  0.00    +0.000 NA
ATOM      5  C   UNL     1       6.999   5.025  16.820  0.00  0.00    +0.000 A 
ATOM      6  N   UNL     1       7.353   4.777  15.578  0.00  0.00    +0.000 NA
ATOM      7  C   UNL     1       6.221   4.239  15.043  0.00  0.00    +0.000 A 
ATOM      8  N   UNL     1       6.147   3.874  13.669  0.00  0.00    +0.000 N 
ATOM      9  C   UNL     1       7.204   3.860  12.779  0.00  0.00    +0.000 A 
ATOM     10  C   UNL     1       6.743   3.475  11.540  0.00  0.00    +0.000 A 
ATOM     11  C   UNL     1       5.353   3.253  11.662  0.00  0.00    +0.000 A 
ATOM     12  C   UNL     1       5.015   3.485  12.977  0.00  0.00    +0.000 A 
ATOM     13  N   UNL     1       5.180   4.091  15.861  0.00  0.00    +0.000 NA
ATOM     14  N   UNL     1       5.689   4.555  17.033  0.00  0.00    +0.000 N 
ENDROOT
BRANCH   1  18
ATOM     15  C   UNL     1       1.325   2.817  19.157  0.00  0.00    +0.000 A 
ATOM     16  C   UNL     1       1.377   4.037  18.484  0.00  0.00    +0.000 A 
ATOM     17  C   UNL     1       2.612   4.628  18.197  0.00  0.00    +0.000 A 
ATOM     18  C   UNL     1       3.798   3.995  18.581  0.00  0.00    +0.000 A 
ATOM     19  C   UNL     1       3.737   2.768  19.258  0.00  0.00    +0.000 A 
ATOM     20  C   UNL     1       2.502   2.182  19.544  0.00  0.00    +0.000 A 
ENDBRANCH   1  18
TORSDOF 1
ENDMDL
MODEL 3
REMARK VINA RESULT:      -8.0      3.567      6.664
REMARK  Name = 
REMARK  1 active torsions:
REMARK  status: ('A' for Active; 'I' for Inactive)
REMARK    1  A    between atoms: C_4  and  C_5
REMARK                            x       y       z     vdW  Elec       q    Type
REMARK                         _______ _______ _______ _____ _____    ______ ____
ROOT
ATOM      1  C   UNL     1       4.146   4.070  18.887  0.00  0.00    +0.000 A 
ATOM      2  C   UNL     1       4.086   2.914  19.574  0.00  0.00    +0.000 A 
ATOM      3  C   UNL     1       3.102   2.879  20.689  0.00  0.00    +0.000 A 
ATOM      4  N   UNL     1       2.343   3.854  21.080  0.00  0.00    +0.000 NA
ATOM      5  C   UNL     1       2.453   5.017  20.373  0.00  0.00    +0.000 A 
ATOM      6  N   UNL     1       1.850   6.168  20.576  0.00  0.00    +0.000 NA
ATOM      7  C   UNL     1       2.285   6.924  19.529  0.00  0.00    +0.000 A 
ATOM      8  N   UNL     1       1.818   8.254  19.327  0.00  0.00    +0.000 N 
ATOM      9  C   UNL     1       1.034   8.977  20.206  0.00  0.00    +0.000 A 
ATOM     10  C   UNL     1       0.767  10.212  19.657  0.00  0.00    +0.000 A 
ATOM     11  C   UNL     1       1.396  10.253  18.393  0.00  0.00    +0.000 A 
ATOM     12  C   UNL     1       2.048   9.052  18.221  0.00  0.00    +0.000 A 
ATOM     13  N   UNL     1       3.149   6.353  18.691  0.00  0.00    +0.000 NA
ATOM     14  N   UNL     1       3.304   5.127  19.257  0.00  0.00    +0.000 N 
ENDROOT
BRANCH   1  18
ATOM     15  C   UNL     1       6.982   4.497  15.728  0.00  0.00    +0.000 A 
ATOM     16  C   UNL     1       7.370   4.750  17.043  0.00  0.00    +0.000 A 
ATOM     17  C   UNL     1       6.449   4.608  18.086  0.00  0.00    +0.000 A 
ATOM     18  C   UNL     1       5.136   4.210  17.813  0.00  0.00    +0.000 A 
ATOM     19  C   UNL     1       4.755   3.957  16.487  0.00  0.00    +0.000 A 
ATOM     20  C   UNL     1       5.677   4.101  15.449  0.00  0.00    +0.000 A 
ENDBRANCH   1  18
TORSDOF 1
ENDMDL
MODEL 4
REMARK VINA RESULT:      -8.0      3.641      6.744
REMARK  Name = 
REMARK  1 active torsions:
REMARK  status: ('A' for Active; 'I' for Inactive)
REMARK    1  A    between atoms: C_4  and  C_5
REMARK                            x       y       z     vdW  Elec       q    Type
REMARK                         _______ _______ _______ _____ _____    ______ ____
ROOT
ATOM      1  C   UNL     1       4.042   4.080  19.059  0.00  0.00    +0.000 A 
ATOM      2  C   UNL     1       3.953   2.935  19.761  0.00  0.00    +0.000 A 
ATOM      3  C   UNL     1       2.947   2.930  20.857  0.00  0.00    +0.000 A 
ATOM      4  N   UNL     1       2.194   3.921  21.218  0.00  0.00    +0.000 NA
ATOM      5  C   UNL     1       2.333   5.071  20.496  0.00  0.00    +0.000 A 
ATOM      6  N   UNL     1       1.742   6.233  20.670  0.00  0.00    +0.000 NA
ATOM      7  C   UNL     1       2.207   6.967  19.621  0.00  0.00    +0.000 A 
ATOM      8  N   UNL     1       1.761   8.300  19.389  0.00  0.00    +0.000 N 
ATOM      9  C   UNL     1       0.970   9.046  20.241  0.00  0.00    +0.000 A 
ATOM     10  C   UNL     1       0.730  10.276  19.669  0.00  0.00    +0.000 A 
ATOM     11  C   UNL     1       1.384  10.289  18.417  0.00  0.00    +0.000 A 
ATOM     12  C   UNL     1       2.023   9.077  18.276  0.00  0.00    +0.000 A 
ATOM     13  N   UNL     1       3.079   6.373  18.809  0.00  0.00    +0.000 NA
ATOM     14  N   UNL     1       3.207   5.153  19.395  0.00  0.00    +0.000 N 
ENDROOT
BRANCH   1  18
ATOM     15  C   UNL     1       7.031   4.384  16.029  0.00  0.00    +0.000 A 
ATOM     16  C   UNL     1       5.749   3.949  15.693  0.00  0.00    +0.000 A 
ATOM     17  C   UNL     1       4.761   3.850  16.678  0.00  0.00    +0.000 A 
ATOM     18  C   UNL     1       5.055   4.190  18.002  0.00  0.00    +0.000 A 
ATOM     19  C   UNL     1       6.347   4.627  18.331  0.00  0.00    +0.000 A 
ATOM     20  C   UNL     1       7.330   4.724  17.345  0.00  0.00    +0.000 A 
ENDBRANCH   1  18
TORSDOF 1
ENDMDL
MODEL 5
REMARK VINA RESULT:      -7.4      5.293      8.097
REMARK  Name = 
REMARK  1 active torsions:
REMARK  status: ('A' for Active; 'I' for Inactive)
REMARK    1  A    between atoms: C_4  and  C_5
REMARK                            x       y       z     vdW  Elec       q    Type
REMARK                         _______ _______ _______ _____ _____    ______ ____
ROOT
ATOM      1  C   UNL     1       2.389   6.186  19.112  0.00  0.00    +0.000 A 
ATOM      2  C   UNL     1       3.147   6.136  18.001  0.00  0.00    +0.000 A 
ATOM      3  C   UNL     1       3.375   7.438  17.319  0.00  0.00    +0.000 A 
ATOM      4  N   UNL     1       2.884   8.587  17.664  0.00  0.00    +0.000 NA
ATOM      5  C   UNL     1       2.100   8.590  18.782  0.00  0.00    +0.000 A 
ATOM      6  N   UNL     1       1.441   9.589  19.327  0.00  0.00    +0.000 NA
ATOM      7  C   UNL     1       0.907   9.023  20.446  0.00  0.00    +0.000 A 
ATOM      8  N   UNL     1       0.150   9.788  21.378  0.00  0.00    +0.000 N 
ATOM      9  C   UNL     1      -0.266  11.094  21.202  0.00  0.00    +0.000 A 
ATOM     10  C   UNL     1      -0.954  11.501  22.324  0.00  0.00    +0.000 A 
ATOM     11  C   UNL     1      -0.956  10.416  23.230  0.00  0.00    +0.000 A 
ATOM     12  C   UNL     1      -0.292   9.374  22.621  0.00  0.00    +0.000 A 
ATOM     13  N   UNL     1       1.147   7.727  20.638  0.00  0.00    +0.000 NA
ATOM     14  N   UNL     1       1.883   7.422  19.537  0.00  0.00    +0.000 N 
ENDROOT
BRANCH   1  18
ATOM     15  C   UNL     1       1.443   2.521  21.081  0.00  0.00    +0.000 A 
ATOM     16  C   UNL     1       2.180   3.496  21.753  0.00  0.00    +0.000 A 
ATOM     17  C   UNL     1       2.492   4.702  21.117  0.00  0.00    +0.000 A 
ATOM     18  C   UNL     1       2.062   4.936  19.807  0.00  0.00    +0.000 A 
ATOM     19  C   UNL     1       1.320   3.951  19.140  0.00  0.00    +0.000 A 
ATOM     20  C   UNL     1       1.013   2.747  19.777  0.00  0.00    +0.000 A 
ENDBRANCH   1  18
TORSDOF 1
ENDMDL
MODEL 6
REMARK VINA RESULT:      -7.3      1.625      5.807
REMARK  Name = 
REMARK  1 active torsions:
REMARK  status: ('A' for Active; 'I' for Inactive)
REMARK    1  A    between atoms: C_4  and  C_5
REMARK                            x       y       z     vdW  Elec       q    Type
REMARK                         _______ _______ _______ _____ _____    ______ ____
ROOT
ATOM      1  C   UNL     1       6.659   4.871  16.935  0.00  0.00    +0.000 A 
ATOM      2  C   UNL     1       7.769   5.465  17.411  0.00  0.00    +0.000 A 
ATOM      3  C   UNL     1       7.769   5.750  18.871  0.00  0.00    +0.000 A 
ATOM      4  N   UNL     1       6.801   5.523  19.702  0.00  0.00    +0.000 NA
ATOM      5  C   UNL     1       5.684   4.943  19.174  0.00  0.00    +0.000 A 
ATOM      6  N   UNL     1       4.547   4.649  19.765  0.00  0.00    +0.000 NA
ATOM      7  C   UNL     1       3.844   4.029  18.776  0.00  0.00    +0.000 A 
ATOM      8  N   UNL     1       2.550   3.484  19.011  0.00  0.00    +0.000 N 
ATOM      9  C   UNL     1       1.802   3.646  20.161  0.00  0.00    +0.000 A 
ATOM     10  C   UNL     1       0.617   2.956  20.027  0.00  0.00    +0.000 A 
ATOM     11  C   UNL     1       0.635   2.337  18.758  0.00  0.00    +0.000 A 
ATOM     12  C   UNL     1       1.818   2.689  18.147  0.00  0.00    +0.000 A 
ATOM     13  N   UNL     1       4.435   3.936  17.585  0.00  0.00    +0.000 NA
ATOM     14  N   UNL     1       5.614   4.571  17.818  0.00  0.00    +0.000 N 
ENDROOT
BRANCH   1  18
ATOM     15  C   UNL     1       6.407   4.124  12.741  0.00  0.00    +0.000 A 
ATOM     16  C   UNL     1       5.432   3.609  13.594  0.00  0.00    +0.000 A 
ATOM     17  C   UNL     1       5.503   3.852  14.970  0.00  0.00    +0.000 A 
ATOM     18  C   UNL     1       6.551   4.615  15.493  0.00  0.00    +0.000 A 
ATOM     19  C   UNL     1       7.528   5.130  14.628  0.00  0.00    +0.000 A 
ATOM     20  C   UNL     1       7.454   4.884  13.256  0.00  0.00    +0.000 A 
ENDBRANCH   1  18
TORSDOF 1
ENDMDL
MODEL 7
REMARK VINA RESULT:      -7.3      5.283      8.109
REMARK  Name = 
REMARK  1 active torsions:
REMARK  status: ('A' for Active; 'I' for Inactive)
REMARK    1  A    between atoms: C_4  and  C_5
REMARK                            x       y       z     vdW  Elec       q    Type
REMARK                         _______ _______ _______ _____ _____    ______ ____
ROOT
ATOM      1  C   UNL     1       2.394   6.188  19.079  0.00  0.00    +0.000 A 
ATOM      2  C   UNL     1       3.156   6.146  17.970  0.00  0.00    +0.000 A 
ATOM      3  C   UNL     1       3.389   7.452  17.299  0.00  0.00    +0.000 A 
ATOM      4  N   UNL     1       2.901   8.600  17.652  0.00  0.00    +0.000 NA
ATOM      5  C   UNL     1       2.113   8.595  18.768  0.00  0.00    +0.000 A 
ATOM      6  N   UNL     1       1.454   9.591  19.318  0.00  0.00    +0.000 NA
ATOM      7  C   UNL     1       0.915   9.018  20.431  0.00  0.00    +0.000 A 
ATOM      8  N   UNL     1       0.157   9.777  21.367  0.00  0.00    +0.000 N 
ATOM      9  C   UNL     1      -0.255  11.085  21.200  0.00  0.00    +0.000 A 
ATOM     10  C   UNL     1      -0.946  11.485  22.323  0.00  0.00    +0.000 A 
ATOM     11  C   UNL     1      -0.953  10.393  23.220  0.00  0.00    +0.000 A 
ATOM     12  C   UNL     1      -0.290   9.354  22.605  0.00  0.00    +0.000 A 
ATOM     13  N   UNL     1       1.152   7.720  20.614  0.00  0.00    +0.000 NA
ATOM     14  N   UNL     1       1.890   7.422  19.512  0.00  0.00    +0.000 N 
ENDROOT
BRANCH   1  18
ATOM     15  C   UNL     1       1.425   2.570  21.122  0.00  0.00    +0.000 A 
ATOM     16  C   UNL     1       0.971   2.770  19.819  0.00  0.00    +0.000 A 
ATOM     17  C   UNL     1       1.287   3.951  19.139  0.00  0.00    +0.000 A 
ATOM     18  C   UNL     1       2.062   4.933  19.763  0.00  0.00    +0.000 A 
ATOM     19  C   UNL     1       2.515   4.724  21.074  0.00  0.00    +0.000 A 
ATOM     20  C   UNL     1       2.196   3.544  21.750  0.00  0.00    +0.000 A 
ENDBRANCH   1  18
TORSDOF 1
ENDMDL
MODEL 8
REMARK VINA RESULT:      -7.3      3.881      7.290
REMARK  Name = 
REMARK  1 active torsions:
REMARK  status: ('A' for Active; 'I' for Inactive)
REMARK    1  A    between atoms: C_4  and  C_5
REMARK                            x       y       z     vdW  Elec       q    Type
REMARK                         _______ _______ _______ _____ _____    ______ ____
ROOT
ATOM      1  C   UNL     1       4.218   4.491  19.265  0.00  0.00    +0.000 A 
ATOM      2  C   UNL     1       4.271   3.194  19.618  0.00  0.00    +0.000 A 
ATOM      3  C   UNL     1       3.194   2.733  20.535  0.00  0.00    +0.000 A 
ATOM      4  N   UNL     1       2.254   3.461  21.049  0.00  0.00    +0.000 NA
ATOM      5  C   UNL     1       2.251   4.777  20.686  0.00  0.00    +0.000 A 
ATOM      6  N   UNL     1       1.456   5.745  21.088  0.00  0.00    +0.000 NA
ATOM      7  C   UNL     1       1.872   6.806  20.342  0.00  0.00    +0.000 A 
ATOM      8  N   UNL     1       1.224   8.072  20.421  0.00  0.00    +0.000 N 
ATOM      9  C   UNL     1       0.248   8.423  21.334  0.00  0.00    +0.000 A 
ATOM     10  C   UNL     1      -0.153   9.718  21.087  0.00  0.00    +0.000 A 
ATOM     11  C   UNL     1       0.590  10.181  19.977  0.00  0.00    +0.000 A 
ATOM     12  C   UNL     1       1.439   9.163  19.600  0.00  0.00    +0.000 A 
ATOM     13  N   UNL     1       2.898   6.599  19.518  0.00  0.00    +0.000 NA
ATOM     14  N   UNL     1       3.185   5.294  19.768  0.00  0.00    +0.000 N 
ENDROOT
BRANCH   1  18
ATOM     15  C   UNL     1       7.265   6.119  16.760  0.00  0.00    +0.000 A 
ATOM     16  C   UNL     1       7.503   5.964  18.125  0.00  0.00    +0.000 A 
ATOM     17  C   UNL     1       6.512   5.427  18.954  0.00  0.00    +0.000 A 
ATOM     18  C   UNL     1       5.281   5.042  18.415  0.00  0.00    +0.000 A 
ATOM     19  C   UNL     1       5.050   5.201  17.041  0.00  0.00    +0.000 A 
ATOM     20  C   UNL     1       6.041   5.739  16.218  0.00  0.00    +0.000 A 
ENDBRANCH   1  18
TORSDOF 1
ENDMDL
MODEL 9
REMARK VINA RESULT:      -7.2      1.634      5.804
REMARK  Name = 
REMARK  1 active torsions:
REMARK  status: ('A' for Active; 'I' for Inactive)
REMARK    1  A    between atoms: C_4  and  C_5
REMARK                            x       y       z     vdW  Elec       q    Type
REMARK                         _______ _______ _______ _____ _____    ______ ____
ROOT
ATOM      1  C   UNL     1       6.711   4.845  16.968  0.00  0.00    +0.000 A 
ATOM      2  C   UNL     1       7.820   5.432  17.456  0.00  0.00    +0.000 A 
ATOM      3  C   UNL     1       7.804   5.723  18.914  0.00  0.00    +0.000 A 
ATOM      4  N   UNL     1       6.824   5.507  19.735  0.00  0.00    +0.000 NA
ATOM      5  C   UNL     1       5.708   4.934  19.195  0.00  0.00    +0.000 A 
ATOM      6  N   UNL     1       4.561   4.653  19.773  0.00  0.00    +0.000 NA
ATOM      7  C   UNL     1       3.866   4.035  18.778  0.00  0.00    +0.000 A 
ATOM      8  N   UNL     1       2.565   3.501  18.999  0.00  0.00    +0.000 N 
ATOM      9  C   UNL     1       1.804   3.675  20.139  0.00  0.00    +0.000 A 
ATOM     10  C   UNL     1       0.615   2.994  19.993  0.00  0.00    +0.000 A 
ATOM     11  C   UNL     1       0.643   2.369  18.727  0.00  0.00    +0.000 A 
ATOM     12  C   UNL     1       1.837   2.709  18.129  0.00  0.00    +0.000 A 
ATOM     13  N   UNL     1       4.470   3.932  17.594  0.00  0.00    +0.000 NA
ATOM     14  N   UNL     1       5.652   4.557  17.840  0.00  0.00    +0.000 N 
ENDROOT
BRANCH   1  18
ATOM     15  C   UNL     1       6.382   4.084  12.783  0.00  0.00    +0.000 A 
ATOM     16  C   UNL     1       7.393   4.919  13.255  0.00  0.00    +0.000 A 
ATOM     17  C   UNL     1       7.512   5.171  14.626  0.00  0.00    +0.000 A 
ATOM     18  C   UNL     1       6.618   4.584  15.527  0.00  0.00    +0.000 A 
ATOM     19  C   UNL     1       5.604   3.745  15.043  0.00  0.00    +0.000 A 
ATOM     20  C   UNL     1       5.488   3.497  13.674  0.00  0.00    +0.000 A 
ENDBRANCH   1  18
TORSDOF 1
ENDMDL
