MODEL 1
REMARK VINA RESULT:      -7.5      0.000      0.000
REMARK  Name = 
REMARK  8 active torsions:
REMARK  status: ('A' for Active; 'I' for Inactive)
REMARK    1  A    between atoms: C_1  and  C_2
REMARK    2  A    between atoms: C_6  and  N_7
REMARK    3  A    between atoms: C_8  and  C_10
REMARK    4  A    between atoms: C_10  and  O_11
REMARK    5  A    between atoms: O_11  and  C_12
REMARK    6  A    between atoms: C_12  and  C_14
REMARK    7  A    between atoms: C_14  and  C_15
REMARK    8  A    between atoms: C_20  and  C_21
REMARK                            x       y       z     vdW  Elec       q    Type
REMARK                         _______ _______ _______ _____ _____    ______ ____
ROOT
ATOM      1  N   UNL     1       4.940   4.206  18.174  0.00  0.00    +0.000 N 
ATOM      2  C   UNL     1       6.172   4.717  18.576  0.00  0.00    +0.000 C 
ATOM      3  O   UNL     1       6.405   5.329  19.616  0.00  0.00    +0.000 OA
ATOM      4  H   UNL     1       4.914   3.812  17.246  0.00  0.00    +0.000 HD
ENDROOT
BRANCH   1  10
ATOM      5  C   UNL     1       1.787   2.523  21.741  0.00  0.00    +0.000 C 
ATOM      6  C   UNL     1       2.159   3.449  20.609  0.00  0.00    +0.000 A 
ATOM      7  C   UNL     1       1.225   4.424  20.234  0.00  0.00    +0.000 A 
ATOM      8  C   UNL     1       1.515   5.309  19.210  0.00  0.00    +0.000 A 
ATOM      9  C   UNL     1       2.739   5.234  18.548  0.00  0.00    +0.000 A 
ATOM     10  C   UNL     1       3.703   4.269  18.878  0.00  0.00    +0.000 A 
ATOM     11  C   UNL     1       3.410   3.356  19.929  0.00  0.00    +0.000 A 
ATOM     12  C   UNL     1       4.363   2.275  20.382  0.00  0.00    +0.000 C 
ENDBRANCH   1  10
BRANCH   2  13
ATOM     13  C   UNL     1       7.313   4.473  17.582  0.00  0.00    +0.000 C 
BRANCH  13  14
ATOM     14  O   UNL     1       6.806   4.075  16.303  0.00  0.00    +0.000 OA
BRANCH  14  15
ATOM     15  C   UNL     1       6.900   5.038  15.350  0.00  0.00    +0.000 C 
ATOM     16  O   UNL     1       7.785   5.883  15.312  0.00  0.00    +0.000 OA
BRANCH  15  17
ATOM     17  C   UNL     1       5.797   4.909  14.326  0.00  0.00    +0.000 C 
BRANCH  17  18
ATOM     18  C   UNL     1       6.089   3.725  13.412  0.00  0.00    +0.000 C 
ATOM     19  C   UNL     1       4.896   3.305  12.553  0.00  0.00    +0.000 C 
ATOM     20  C   UNL     1       5.519   2.322  11.571  0.00  0.00    +0.000 C 
ATOM     21  C   UNL     1       6.960   2.803  11.374  0.00  0.00    +0.000 C 
ATOM     22  C   UNL     1       7.152   3.972  12.344  0.00  0.00    +0.000 C 
ENDBRANCH  17  18
ENDBRANCH  15  17
ENDBRANCH  14  15
ENDBRANCH  13  14
ENDBRANCH   2  13
TORSDOF 6
ENDMDL
MODEL 2
REMARK VINA RESULT:      -7.5      1.293      1.427
REMARK  Name = 
REMARK  8 active torsions:
REMARK  status: ('A' for Active; 'I' for Inactive)
REMARK    1  A    between atoms: C_1  and  C_2
REMARK    2  A    between atoms: C_6  and  N_7
REMARK    3  A    between atoms: C_8  and  C_10
REMARK    4  A    between atoms: C_10  and  O_11
REMARK    5  A    between atoms: O_11  and  C_12
REMARK    6  A    between atoms: C_12  and  C_14
REMARK    7  A    between atoms: C_14  and  C_15
REMARK    8  A    between atoms: C_20  and  C_21
REMARK                            x       y       z     vdW  Elec       q    Type
REMARK                         _______ _______ _______ _____ _____    ______ ____
ROOT
ATOM      1  N   UNL     1       4.351   5.315  17.855  0.00  0.00    +0.000 N 
ATOM      2  C   UNL     1       5.660   4.852  17.961  0.00  0.00    +0.000 C 
ATOM      3  O   UNL     1       6.092   4.070  18.804  0.00  0.00    +0.000 OA
ATOM      4  H   UNL     1       4.195   6.026  17.157  0.00  0.00    +0.000 HD
ENDROOT
BRANCH   1  10
ATOM      5  C   UNL     1       0.488   2.295  19.060  0.00  0.00    +0.000 C 
ATOM      6  C   UNL     1       1.352   3.514  19.271  0.00  0.00    +0.000 A 
ATOM      7  C   UNL     1       1.037   4.357  20.344  0.00  0.00    +0.000 A 
ATOM      8  C   UNL     1       1.801   5.483  20.593  0.00  0.00    +0.000 A 
ATOM      9  C   UNL     1       2.890   5.783  19.776  0.00  0.00    +0.000 A 
ATOM     10  C   UNL     1       3.241   4.977  18.682  0.00  0.00    +0.000 A 
ATOM     11  C   UNL     1       2.459   3.818  18.421  0.00  0.00    +0.000 A 
ATOM     12  C   UNL     1       2.733   2.868  17.278  0.00  0.00    +0.000 C 
ENDBRANCH   1  10
BRANCH   2  13
ATOM     13  C   UNL     1       6.616   5.413  16.902  0.00  0.00    +0.000 C 
BRANCH  13  14
ATOM     14  O   UNL     1       6.837   4.464  15.852  0.00  0.00    +0.000 OA
BRANCH  14  15
ATOM     15  C   UNL     1       7.039   5.029  14.633  0.00  0.00    +0.000 C 
ATOM     16  O   UNL     1       8.044   5.654  14.324  0.00  0.00    +0.000 OA
BRANCH  15  17
ATOM     17  C   UNL     1       5.882   4.754  13.701  0.00  0.00    +0.000 C 
BRANCH  17  18
ATOM     18  C   UNL     1       6.121   3.439  12.970  0.00  0.00    +0.000 C 
ATOM     19  C   UNL     1       4.951   3.008  12.085  0.00  0.00    +0.000 C 
ATOM     20  C   UNL     1       5.542   1.854  11.285  0.00  0.00    +0.000 C 
ATOM     21  C   UNL     1       7.030   2.184  11.136  0.00  0.00    +0.000 C 
ATOM     22  C   UNL     1       7.267   3.452  11.962  0.00  0.00    +0.000 C 
ENDBRANCH  17  18
ENDBRANCH  15  17
ENDBRANCH  14  15
ENDBRANCH  13  14
ENDBRANCH   2  13
TORSDOF 6
ENDMDL
MODEL 3
REMARK VINA RESULT:      -7.4      0.962      1.047
REMARK  Name = 
REMARK  8 active torsions:
REMARK  status: ('A' for Active; 'I' for Inactive)
REMARK    1  A    between atoms: C_1  and  C_2
REMARK    2  A    between atoms: C_6  and  N_7
REMARK    3  A    between atoms: C_8  and  C_10
REMARK    4  A    between atoms: C_10  and  O_11
REMARK    5  A    between atoms: O_11  and  C_12
REMARK    6  A    between atoms: C_12  and  C_14
REMARK    7  A    between atoms: C_14  and  C_15
REMARK    8  A    between atoms: C_20  and  C_21
REMARK                            x       y       z     vdW  Elec       q    Type
REMARK                         _______ _______ _______ _____ _____    ______ ____
ROOT
ATOM      1  N   UNL     1       4.881   5.160  18.200  0.00  0.00    +0.000 N 
ATOM      2  C   UNL     1       6.233   5.167  18.534  0.00  0.00    +0.000 C 
ATOM      3  O   UNL     1       6.706   5.151  19.668  0.00  0.00    +0.000 OA
ATOM      4  H   UNL     1       4.674   5.270  17.219  0.00  0.00    +0.000 HD
ENDROOT
BRANCH   1  10
ATOM      5  C   UNL     1       1.780   2.649  21.295  0.00  0.00    +0.000 C 
ATOM      6  C   UNL     1       2.248   3.900  20.592  0.00  0.00    +0.000 A 
ATOM      7  C   UNL     1       1.540   5.085  20.832  0.00  0.00    +0.000 A 
ATOM      8  C   UNL     1       1.931   6.265  20.224  0.00  0.00    +0.000 A 
ATOM      9  C   UNL     1       3.032   6.280  19.371  0.00  0.00    +0.000 A 
ATOM     10  C   UNL     1       3.767   5.119  19.088  0.00  0.00    +0.000 A 
ATOM     11  C   UNL     1       3.371   3.902  19.710  0.00  0.00    +0.000 A 
ATOM     12  C   UNL     1       4.080   2.585  19.493  0.00  0.00    +0.000 C 
ENDBRANCH   1  10
BRANCH   2  13
ATOM     13  C   UNL     1       7.181   5.210  17.330  0.00  0.00    +0.000 C 
BRANCH  13  14
ATOM     14  O   UNL     1       6.677   4.420  16.248  0.00  0.00    +0.000 OA
BRANCH  14  15
ATOM     15  C   UNL     1       6.288   5.149  15.169  0.00  0.00    +0.000 C 
ATOM     16  O   UNL     1       5.505   6.088  15.221  0.00  0.00    +0.000 OA
BRANCH  15  17
ATOM     17  C   UNL     1       6.974   4.676  13.908  0.00  0.00    +0.000 C 
BRANCH  17  18
ATOM     18  C   UNL     1       6.101   3.635  13.216  0.00  0.00    +0.000 C 
ATOM     19  C   UNL     1       4.938   4.238  12.428  0.00  0.00    +0.000 C 
ATOM     20  C   UNL     1       4.415   3.045  11.638  0.00  0.00    +0.000 C 
ATOM     21  C   UNL     1       5.639   2.161  11.378  0.00  0.00    +0.000 C 
ATOM     22  C   UNL     1       6.799   2.814  12.135  0.00  0.00    +0.000 C 
ENDBRANCH  17  18
ENDBRANCH  15  17
ENDBRANCH  14  15
ENDBRANCH  13  14
ENDBRANCH   2  13
TORSDOF 6
ENDMDL
MODEL 4
REMARK VINA RESULT:      -7.3      1.466      1.960
REMARK  Name = 
REMARK  8 active torsions:
REMARK  status: ('A' for Active; 'I' for Inactive)
REMARK    1  A    between atoms: C_1  and  C_2
REMARK    2  A    between atoms: C_6  and  N_7
REMARK    3  A    between atoms: C_8  and  C_10
REMARK    4  A    between atoms: C_10  and  O_11
REMARK    5  A    between atoms: O_11  and  C_12
REMARK    6  A    between atoms: C_12  and  C_14
REMARK    7  A    between atoms: C_14  and  C_15
REMARK    8  A    between atoms: C_20  and  C_21
REMARK                            x       y       z     vdW  Elec       q    Type
REMARK                         _______ _______ _______ _____ _____    ______ ____
ROOT
ATOM      1  N   UNL     1       4.092   5.912  18.060  0.00  0.00    +0.000 N 
ATOM      2  C   UNL     1       5.450   5.924  18.367  0.00  0.00    +0.000 C 
ATOM      3  O   UNL     1       5.982   5.409  19.348  0.00  0.00    +0.000 OA
ATOM      4  H   UNL     1       3.821   6.465  17.262  0.00  0.00    +0.000 HD
ENDROOT
BRANCH   1  10
ATOM      5  C   UNL     1       0.725   2.206  18.714  0.00  0.00    +0.000 C 
ATOM      6  C   UNL     1       1.392   3.498  19.120  0.00  0.00    +0.000 A 
ATOM      7  C   UNL     1       0.945   4.121  20.292  0.00  0.00    +0.000 A 
ATOM      8  C   UNL     1       1.527   5.301  20.719  0.00  0.00    +0.000 A 
ATOM      9  C   UNL     1       2.564   5.874  19.985  0.00  0.00    +0.000 A 
ATOM     10  C   UNL     1       3.040   5.296  18.799  0.00  0.00    +0.000 A 
ATOM     11  C   UNL     1       2.445   4.083  18.354  0.00  0.00    +0.000 A 
ATOM     12  C   UNL     1       2.869   3.359  17.097  0.00  0.00    +0.000 C 
ENDBRANCH   1  10
BRANCH   2  13
ATOM     13  C   UNL     1       6.321   6.677  17.354  0.00  0.00    +0.000 C 
BRANCH  13  14
ATOM     14  O   UNL     1       6.310   6.024  16.079  0.00  0.00    +0.000 OA
BRANCH  14  15
ATOM     15  C   UNL     1       6.893   4.797  16.085  0.00  0.00    +0.000 C 
ATOM     16  O   UNL     1       7.972   4.551  16.607  0.00  0.00    +0.000 OA
BRANCH  15  17
ATOM     17  C   UNL     1       6.021   3.770  15.400  0.00  0.00    +0.000 C 
BRANCH  17  18
ATOM     18  C   UNL     1       5.908   4.108  13.918  0.00  0.00    +0.000 C 
ATOM     19  C   UNL     1       7.229   3.984  13.159  0.00  0.00    +0.000 C 
ATOM     20  C   UNL     1       6.792   4.101  11.704  0.00  0.00    +0.000 C 
ATOM     21  C   UNL     1       5.382   3.506  11.655  0.00  0.00    +0.000 C 
ATOM     22  C   UNL     1       5.009   3.182  13.104  0.00  0.00    +0.000 C 
ENDBRANCH  17  18
ENDBRANCH  15  17
ENDBRANCH  14  15
ENDBRANCH  13  14
ENDBRANCH   2  13
TORSDOF 6
ENDMDL
MODEL 5
REMARK VINA RESULT:      -7.3      1.273      1.646
REMARK  Name = 
REMARK  8 active torsions:
REMARK  status: ('A' for Active; 'I' for Inactive)
REMARK    1  A    between atoms: C_1  and  C_2
REMARK    2  A    between atoms: C_6  and  N_7
REMARK    3  A    between atoms: C_8  and  C_10
REMARK    4  A    between atoms: C_10  and  O_11
REMARK    5  A    between atoms: O_11  and  C_12
REMARK    6  A    between atoms: C_12  and  C_14
REMARK    7  A    between atoms: C_14  and  C_15
REMARK    8  A    between atoms: C_20  and  C_21
REMARK                            x       y       z     vdW  Elec       q    Type
REMARK                         _______ _______ _______ _____ _____    ______ ____
ROOT
ATOM      1  N   UNL     1       5.149   3.604  19.145  0.00  0.00    +0.000 N 
ATOM      2  C   UNL     1       5.786   4.785  18.776  0.00  0.00    +0.000 C 
ATOM      3  O   UNL     1       5.307   5.916  18.810  0.00  0.00    +0.000 OA
ATOM      4  H   UNL     1       5.664   2.756  18.964  0.00  0.00    +0.000 HD
ENDROOT
BRANCH   1  10
ATOM      5  C   UNL     1       0.380   2.020  18.648  0.00  0.00    +0.000 C 
ATOM      6  C   UNL     1       1.497   2.689  19.410  0.00  0.00    +0.000 A 
ATOM      7  C   UNL     1       1.206   3.188  20.686  0.00  0.00    +0.000 A 
ATOM      8  C   UNL     1       2.194   3.802  21.436  0.00  0.00    +0.000 A 
ATOM      9  C   UNL     1       3.484   3.924  20.925  0.00  0.00    +0.000 A 
ATOM     10  C   UNL     1       3.825   3.452  19.648  0.00  0.00    +0.000 A 
ATOM     11  C   UNL     1       2.813   2.821  18.872  0.00  0.00    +0.000 A 
ATOM     12  C   UNL     1       3.051   2.267  17.486  0.00  0.00    +0.000 C 
ENDBRANCH   1  10
BRANCH   2  13
ATOM     13  C   UNL     1       7.224   4.599  18.276  0.00  0.00    +0.000 C 
BRANCH  13  14
ATOM     14  O   UNL     1       7.251   4.348  16.867  0.00  0.00    +0.000 OA
BRANCH  14  15
ATOM     15  C   UNL     1       6.967   5.439  16.109  0.00  0.00    +0.000 C 
ATOM     16  O   UNL     1       7.593   6.490  16.155  0.00  0.00    +0.000 OA
BRANCH  15  17
ATOM     17  C   UNL     1       5.807   5.175  15.176  0.00  0.00    +0.000 C 
BRANCH  17  18
ATOM     18  C   UNL     1       6.249   4.218  14.076  0.00  0.00    +0.000 C 
ATOM     19  C   UNL     1       5.102   3.736  13.186  0.00  0.00    +0.000 C 
ATOM     20  C   UNL     1       5.833   3.042  12.044  0.00  0.00    +0.000 C 
ATOM     21  C   UNL     1       7.161   3.792  11.896  0.00  0.00    +0.000 C 
ATOM     22  C   UNL     1       7.201   4.810  13.040  0.00  0.00    +0.000 C 
ENDBRANCH  17  18
ENDBRANCH  15  17
ENDBRANCH  14  15
ENDBRANCH  13  14
ENDBRANCH   2  13
TORSDOF 6
ENDMDL
MODEL 6
REMARK VINA RESULT:      -7.2      1.441      1.852
REMARK  Name = 
REMARK  8 active torsions:
REMARK  status: ('A' for Active; 'I' for Inactive)
REMARK    1  A    between atoms: C_1  and  C_2
REMARK    2  A    between atoms: C_6  and  N_7
REMARK    3  A    between atoms: C_8  and  C_10
REMARK    4  A    between atoms: C_10  and  O_11
REMARK    5  A    between atoms: O_11  and  C_12
REMARK    6  A    between atoms: C_12  and  C_14
REMARK    7  A    between atoms: C_14  and  C_15
REMARK    8  A    between atoms: C_20  and  C_21
REMARK                            x       y       z     vdW  Elec       q    Type
REMARK                         _______ _______ _______ _____ _____    ______ ____
ROOT
ATOM      1  N   UNL     1       3.888   5.201  17.634  0.00  0.00    +0.000 N 
ATOM      2  C   UNL     1       5.150   5.640  18.026  0.00  0.00    +0.000 C 
ATOM      3  O   UNL     1       5.841   5.167  18.925  0.00  0.00    +0.000 OA
ATOM      4  H   UNL     1       3.428   5.767  16.937  0.00  0.00    +0.000 HD
ENDROOT
BRANCH   1  10
ATOM      5  C   UNL     1       1.173   3.107  21.340  0.00  0.00    +0.000 C 
ATOM      6  C   UNL     1       1.822   3.086  19.977  0.00  0.00    +0.000 A 
ATOM      7  C   UNL     1       1.674   1.927  19.205  0.00  0.00    +0.000 A 
ATOM      8  C   UNL     1       2.237   1.855  17.943  0.00  0.00    +0.000 A 
ATOM      9  C   UNL     1       2.953   2.937  17.434  0.00  0.00    +0.000 A 
ATOM     10  C   UNL     1       3.140   4.116  18.173  0.00  0.00    +0.000 A 
ATOM     11  C   UNL     1       2.563   4.196  19.471  0.00  0.00    +0.000 A 
ATOM     12  C   UNL     1       2.687   5.408  20.364  0.00  0.00    +0.000 C 
ENDBRANCH   1  10
BRANCH   2  13
ATOM     13  C   UNL     1       5.679   6.840  17.231  0.00  0.00    +0.000 C 
BRANCH  13  14
ATOM     14  O   UNL     1       6.974   6.568  16.685  0.00  0.00    +0.000 OA
BRANCH  14  15
ATOM     15  C   UNL     1       7.042   5.406  15.983  0.00  0.00    +0.000 C 
ATOM     16  O   UNL     1       7.837   4.507  16.217  0.00  0.00    +0.000 OA
BRANCH  15  17
ATOM     17  C   UNL     1       5.985   5.354  14.904  0.00  0.00    +0.000 C 
BRANCH  17  18
ATOM     18  C   UNL     1       6.344   4.270  13.895  0.00  0.00    +0.000 C 
ATOM     19  C   UNL     1       5.145   3.750  13.100  0.00  0.00    +0.000 C 
ATOM     20  C   UNL     1       5.802   2.911  12.012  0.00  0.00    +0.000 C 
ATOM     21  C   UNL     1       7.152   3.581  11.741  0.00  0.00    +0.000 C 
ATOM     22  C   UNL     1       7.278   4.709  12.770  0.00  0.00    +0.000 C 
ENDBRANCH  17  18
ENDBRANCH  15  17
ENDBRANCH  14  15
ENDBRANCH  13  14
ENDBRANCH   2  13
TORSDOF 6
ENDMDL
MODEL 7
REMARK VINA RESULT:      -7.2      2.869      6.735
REMARK  Name = 
REMARK  8 active torsions:
REMARK  status: ('A' for Active; 'I' for Inactive)
REMARK    1  A    between atoms: C_1  and  C_2
REMARK    2  A    between atoms: C_6  and  N_7
REMARK    3  A    between atoms: C_8  and  C_10
REMARK    4  A    between atoms: C_10  and  O_11
REMARK    5  A    between atoms: O_11  and  C_12
REMARK    6  A    between atoms: C_12  and  C_14
REMARK    7  A    between atoms: C_14  and  C_15
REMARK    8  A    between atoms: C_20  and  C_21
REMARK                            x       y       z     vdW  Elec       q    Type
REMARK                         _______ _______ _______ _____ _____    ______ ____
ROOT
ATOM      1  N   UNL     1       4.790   3.393  18.455  0.00  0.00    +0.000 N 
ATOM      2  C   UNL     1       3.708   2.544  18.240  0.00  0.00    +0.000 C 
ATOM      3  O   UNL     1       3.027   2.472  17.220  0.00  0.00    +0.000 OA
ATOM      4  H   UNL     1       5.174   3.382  19.388  0.00  0.00    +0.000 HD
ENDROOT
BRANCH   1  10
ATOM      5  C   UNL     1       7.627   7.456  17.482  0.00  0.00    +0.000 C 
ATOM      6  C   UNL     1       6.721   6.323  17.066  0.00  0.00    +0.000 A 
ATOM      7  C   UNL     1       6.412   6.204  15.705  0.00  0.00    +0.000 A 
ATOM      8  C   UNL     1       5.595   5.178  15.263  0.00  0.00    +0.000 A 
ATOM      9  C   UNL     1       5.076   4.257  16.172  0.00  0.00    +0.000 A 
ATOM     10  C   UNL     1       5.345   4.340  17.547  0.00  0.00    +0.000 A 
ATOM     11  C   UNL     1       6.185   5.393  18.006  0.00  0.00    +0.000 A 
ATOM     12  C   UNL     1       6.554   5.589  19.459  0.00  0.00    +0.000 C 
ENDBRANCH   1  10
BRANCH   2  13
ATOM     13  C   UNL     1       3.368   1.639  19.431  0.00  0.00    +0.000 C 
BRANCH  13  14
ATOM     14  O   UNL     1       2.060   1.924  19.938  0.00  0.00    +0.000 OA
BRANCH  14  15
ATOM     15  C   UNL     1       2.037   2.907  20.876  0.00  0.00    +0.000 C 
ATOM     16  O   UNL     1       2.690   2.885  21.910  0.00  0.00    +0.000 OA
BRANCH  15  17
ATOM     17  C   UNL     1       1.132   4.044  20.460  0.00  0.00    +0.000 C 
BRANCH  17  18
ATOM     18  C   UNL     1       1.979   5.210  19.965  0.00  0.00    +0.000 C 
ATOM     19  C   UNL     1       1.861   5.459  18.461  0.00  0.00    +0.000 C 
ATOM     20  C   UNL     1       2.561   6.800  18.287  0.00  0.00    +0.000 C 
ATOM     21  C   UNL     1       2.318   7.558  19.596  0.00  0.00    +0.000 C 
ATOM     22  C   UNL     1       1.594   6.578  20.523  0.00  0.00    +0.000 C 
ENDBRANCH  17  18
ENDBRANCH  15  17
ENDBRANCH  14  15
ENDBRANCH  13  14
ENDBRANCH   2  13
TORSDOF 6
ENDMDL
MODEL 8
REMARK VINA RESULT:      -7.1      1.472      1.955
REMARK  Name = 
REMARK  8 active torsions:
REMARK  status: ('A' for Active; 'I' for Inactive)
REMARK    1  A    between atoms: C_1  and  C_2
REMARK    2  A    between atoms: C_6  and  N_7
REMARK    3  A    between atoms: C_8  and  C_10
REMARK    4  A    between atoms: C_10  and  O_11
REMARK    5  A    between atoms: O_11  and  C_12
REMARK    6  A    between atoms: C_12  and  C_14
REMARK    7  A    between atoms: C_14  and  C_15
REMARK    8  A    between atoms: C_20  and  C_21
REMARK                            x       y       z     vdW  Elec       q    Type
REMARK                         _______ _______ _______ _____ _____    ______ ____
ROOT
ATOM      1  N   UNL     1       4.401   5.828  18.611  0.00  0.00    +0.000 N 
ATOM      2  C   UNL     1       5.734   5.458  18.771  0.00  0.00    +0.000 C 
ATOM      3  O   UNL     1       6.156   4.517  19.439  0.00  0.00    +0.000 OA
ATOM      4  H   UNL     1       4.245   6.684  18.101  0.00  0.00    +0.000 HD
ENDROOT
BRANCH   1  10
ATOM      5  C   UNL     1       0.941   2.150  18.622  0.00  0.00    +0.000 C 
ATOM      6  C   UNL     1       1.558   3.412  19.175  0.00  0.00    +0.000 A 
ATOM      7  C   UNL     1       0.959   3.989  20.302  0.00  0.00    +0.000 A 
ATOM      8  C   UNL     1       1.488   5.139  20.860  0.00  0.00    +0.000 A 
ATOM      9  C   UNL     1       2.621   5.728  20.303  0.00  0.00    +0.000 A 
ATOM     10  C   UNL     1       3.252   5.197  19.168  0.00  0.00    +0.000 A 
ATOM     11  C   UNL     1       2.713   4.014  18.590  0.00  0.00    +0.000 A 
ATOM     12  C   UNL     1       3.300   3.340  17.371  0.00  0.00    +0.000 C 
ENDBRANCH   1  10
BRANCH   2  13
ATOM     13  C   UNL     1       6.733   6.353  18.027  0.00  0.00    +0.000 C 
BRANCH  13  14
ATOM     14  O   UNL     1       7.038   5.820  16.733  0.00  0.00    +0.000 OA
BRANCH  14  15
ATOM     15  C   UNL     1       5.981   5.812  15.879  0.00  0.00    +0.000 C 
ATOM     16  O   UNL     1       5.292   6.791  15.629  0.00  0.00    +0.000 OA
BRANCH  15  17
ATOM     17  C   UNL     1       5.791   4.450  15.252  0.00  0.00    +0.000 C 
BRANCH  17  18
ATOM     18  C   UNL     1       6.041   4.543  13.751  0.00  0.00    +0.000 C 
ATOM     19  C   UNL     1       7.479   4.920  13.392  0.00  0.00    +0.000 C 
ATOM     20  C   UNL     1       7.524   4.678  11.889  0.00  0.00    +0.000 C 
ATOM     21  C   UNL     1       6.542   3.531  11.633  0.00  0.00    +0.000 C 
ATOM     22  C   UNL     1       5.874   3.237  12.979  0.00  0.00    +0.000 C 
ENDBRANCH  17  18
ENDBRANCH  15  17
ENDBRANCH  14  15
ENDBRANCH  13  14
ENDBRANCH   2  13
TORSDOF 6
ENDMDL
MODEL 9
REMARK VINA RESULT:      -7.1      3.153      5.899
REMARK  Name = 
REMARK  8 active torsions:
REMARK  status: ('A' for Active; 'I' for Inactive)
REMARK    1  A    between atoms: C_1  and  C_2
REMARK    2  A    between atoms: C_6  and  N_7
REMARK    3  A    between atoms: C_8  and  C_10
REMARK    4  A    between atoms: C_10  and  O_11
REMARK    5  A    between atoms: O_11  and  C_12
REMARK    6  A    between atoms: C_12  and  C_14
REMARK    7  A    between atoms: C_14  and  C_15
REMARK    8  A    between atoms: C_20  and  C_21
REMARK                            x       y       z     vdW  Elec       q    Type
REMARK                         _______ _______ _______ _____ _____    ______ ____
ROOT
ATOM      1  N   UNL     1       2.885   6.469  17.899  0.00  0.00    +0.000 N 
ATOM      2  C   UNL     1       4.173   6.340  17.386  0.00  0.00    +0.000 C 
ATOM      3  O   UNL     1       5.021   7.226  17.309  0.00  0.00    +0.000 OA
ATOM      4  H   UNL     1       2.293   5.659  17.798  0.00  0.00    +0.000 HD
ENDROOT
BRANCH   1  10
ATOM      5  C   UNL     1       0.728   8.943  21.737  0.00  0.00    +0.000 C 
ATOM      6  C   UNL     1       1.225   8.846  20.315  0.00  0.00    +0.000 A 
ATOM      7  C   UNL     1       1.081   9.974  19.497  0.00  0.00    +0.000 A 
ATOM      8  C   UNL     1       1.529   9.947  18.188  0.00  0.00    +0.000 A 
ATOM      9  C   UNL     1       2.126   8.797  17.678  0.00  0.00    +0.000 A 
ATOM     10  C   UNL     1       2.283   7.637  18.451  0.00  0.00    +0.000 A 
ATOM     11  C   UNL     1       1.824   7.658  19.798  0.00  0.00    +0.000 A 
ATOM     12  C   UNL     1       1.938   6.478  20.735  0.00  0.00    +0.000 C 
ENDBRANCH   1  10
BRANCH   2  13
ATOM     13  C   UNL     1       4.511   4.936  16.871  0.00  0.00    +0.000 C 
BRANCH  13  14
ATOM     14  O   UNL     1       5.604   4.368  17.600  0.00  0.00    +0.000 OA
BRANCH  14  15
ATOM     15  C   UNL     1       5.299   4.043  18.884  0.00  0.00    +0.000 C 
ATOM     16  O   UNL     1       5.712   4.649  19.863  0.00  0.00    +0.000 OA
BRANCH  15  17
ATOM     17  C   UNL     1       4.355   2.864  18.943  0.00  0.00    +0.000 C 
BRANCH  17  18
ATOM     18  C   UNL     1       3.092   3.264  19.696  0.00  0.00    +0.000 C 
ATOM     19  C   UNL     1       1.800   2.850  18.990  0.00  0.00    +0.000 C 
ATOM     20  C   UNL     1       0.739   3.111  20.050  0.00  0.00    +0.000 C 
ATOM     21  C   UNL     1       1.438   2.871  21.392  0.00  0.00    +0.000 C 
ATOM     22  C   UNL     1       2.909   2.602  21.060  0.00  0.00    +0.000 C 
ENDBRANCH  17  18
ENDBRANCH  15  17
ENDBRANCH  14  15
ENDBRANCH  13  14
ENDBRANCH   2  13
TORSDOF 6
ENDMDL
