MODEL 1
REMARK VINA RESULT:      -6.9      0.000      0.000
REMARK  Name = 
REMARK  10 active torsions:
REMARK  status: ('A' for Active; 'I' for Inactive)
REMARK    1  A    between atoms: C_1  and  C_2
REMARK    2  A    between atoms: C_5  and  S_6
REMARK    3  A    between atoms: S_6  and  C_7
REMARK    4  A    between atoms: C_7  and  C_8
REMARK    5  A    between atoms: C_8  and  C_9
REMARK    6  A    between atoms: C_8  and  N_13
REMARK    7  A    between atoms: C_9  and  C_10
REMARK    8  A    between atoms: C_10  and  C_11
REMARK    9  A    between atoms: C_10  and  C_12
REMARK   10  A    between atoms: N_16  and  C_17
REMARK                            x       y       z     vdW  Elec       q    Type
REMARK                         _______ _______ _______ _____ _____    ______ ____
ROOT
ATOM      1  C   UNL     1       2.120   5.017  18.577  0.00  0.00    +0.000 C 
ENDROOT
BRANCH   1   2
ATOM      2  N   UNL     1       3.582   4.870  18.294  0.00  0.00    +0.000 N 
ATOM      3  C   UNL     1       4.494   4.794  19.435  0.00  0.00    +0.000 C 
ATOM      4  C   UNL     1       5.907   5.364  19.171  0.00  0.00    +0.000 C 
ATOM      5  N   UNL     1       6.775   4.519  18.341  0.00  0.00    +0.000 NA
ATOM      6  C   UNL     1       8.179   4.923  18.516  0.00  0.00    +0.000 C 
ATOM      7  C   UNL     1       6.466   4.512  16.902  0.00  0.00    +0.000 C 
ATOM      8  C   UNL     1       5.035   4.599  16.403  0.00  0.00    +0.000 C 
ATOM      9  C   UNL     1       3.978   3.986  17.281  0.00  0.00    +0.000 C 
ATOM     10  O   UNL     1       3.435   2.917  17.033  0.00  0.00    +0.000 OA
ENDBRANCH   1   2
BRANCH   1  11
ATOM     11  C   UNL     1       1.544   6.373  18.049  0.00  0.00    +0.000 C 
BRANCH  11  12
ATOM     12  S   UNL     1       2.545   7.881  18.393  0.00  0.00    +0.000 S 
BRANCH  12  17
ATOM     13  C   UNL     1      -0.676  10.906  22.562  0.00  0.00    +0.000 C 
ATOM     14  C   UNL     1      -0.029  10.071  21.497  0.00  0.00    +0.000 A 
ATOM     15  C   UNL     1      -0.052  10.473  20.157  0.00  0.00    +0.000 A 
ATOM     16  C   UNL     1       0.677   9.768  19.196  0.00  0.00    +0.000 A 
ATOM     17  C   UNL     1       1.441   8.657  19.565  0.00  0.00    +0.000 A 
ATOM     18  C   UNL     1       1.393   8.200  20.882  0.00  0.00    +0.000 A 
ATOM     19  C   UNL     1       0.664   8.905  21.845  0.00  0.00    +0.000 A 
ENDBRANCH  12  17
ENDBRANCH  11  12
ENDBRANCH   1  11
BRANCH   1  20
ATOM     20  C   UNL     1       1.808   4.828  20.099  0.00  0.00    +0.000 C 
BRANCH  20  21
ATOM     21  C   UNL     1       1.018   3.558  20.513  0.00  0.00    +0.000 C 
ATOM     22  C   UNL     1       0.793   2.662  19.290  0.00  0.00    +0.000 C 
ATOM     23  C   UNL     1       1.714   2.717  21.583  0.00  0.00    +0.000 C 
ENDBRANCH  20  21
ENDBRANCH   1  20
TORSDOF 6
ENDMDL
MODEL 2
REMARK VINA RESULT:      -6.8      2.119      6.840
REMARK  Name = 
REMARK  10 active torsions:
REMARK  status: ('A' for Active; 'I' for Inactive)
REMARK    1  A    between atoms: C_1  and  C_2
REMARK    2  A    between atoms: C_5  and  S_6
REMARK    3  A    between atoms: S_6  and  C_7
REMARK    4  A    between atoms: C_7  and  C_8
REMARK    5  A    between atoms: C_8  and  C_9
REMARK    6  A    between atoms: C_8  and  N_13
REMARK    7  A    between atoms: C_9  and  C_10
REMARK    8  A    between atoms: C_10  and  C_11
REMARK    9  A    between atoms: C_10  and  C_12
REMARK   10  A    between atoms: N_16  and  C_17
REMARK                            x       y       z     vdW  Elec       q    Type
REMARK                         _______ _______ _______ _____ _____    ______ ____
ROOT
ATOM      1  C   UNL     1       2.551   6.806  18.183  0.00  0.00    +0.000 C 
ENDROOT
BRANCH   1   2
ATOM      2  N   UNL     1       2.327   5.500  18.881  0.00  0.00    +0.000 N 
ATOM      3  C   UNL     1       1.747   5.534  20.223  0.00  0.00    +0.000 C 
ATOM      4  C   UNL     1       2.189   4.375  21.147  0.00  0.00    +0.000 C 
ATOM      5  N   UNL     1       1.581   3.073  20.848  0.00  0.00    +0.000 NA
ATOM      6  C   UNL     1       1.718   2.181  22.010  0.00  0.00    +0.000 C 
ATOM      7  C   UNL     1       2.110   2.382  19.663  0.00  0.00    +0.000 C 
ATOM      8  C   UNL     1       2.545   3.153  18.429  0.00  0.00    +0.000 C 
ATOM      9  C   UNL     1       1.806   4.431  18.140  0.00  0.00    +0.000 C 
ATOM     10  O   UNL     1       0.966   4.536  17.255  0.00  0.00    +0.000 OA
ENDBRANCH   1   2
BRANCH   1  11
ATOM     11  C   UNL     1       4.011   6.945  17.636  0.00  0.00    +0.000 C 
BRANCH  11  12
ATOM     12  S   UNL     1       5.251   5.748  18.287  0.00  0.00    +0.000 S 
BRANCH  12  17
ATOM     13  C   UNL     1       6.602   3.794  12.696  0.00  0.00    +0.000 C 
ATOM     14  C   UNL     1       6.357   4.136  14.135  0.00  0.00    +0.000 A 
ATOM     15  C   UNL     1       7.274   4.912  14.854  0.00  0.00    +0.000 A 
ATOM     16  C   UNL     1       6.969   5.348  16.145  0.00  0.00    +0.000 A 
ATOM     17  C   UNL     1       5.743   5.020  16.731  0.00  0.00    +0.000 A 
ATOM     18  C   UNL     1       4.867   4.171  16.053  0.00  0.00    +0.000 A 
ATOM     19  C   UNL     1       5.170   3.734  14.760  0.00  0.00    +0.000 A 
ENDBRANCH  12  17
ENDBRANCH  11  12
ENDBRANCH   1  11
BRANCH   1  20
ATOM     20  C   UNL     1       2.176   8.017  19.099  0.00  0.00    +0.000 C 
BRANCH  20  21
ATOM     21  C   UNL     1       1.295   9.134  18.479  0.00  0.00    +0.000 C 
ATOM     22  C   UNL     1       0.434   9.785  19.568  0.00  0.00    +0.000 C 
ATOM     23  C   UNL     1       2.091  10.243  17.793  0.00  0.00    +0.000 C 
ENDBRANCH  20  21
ENDBRANCH   1  20
TORSDOF 6
ENDMDL
MODEL 3
REMARK VINA RESULT:      -6.7      1.138      1.660
REMARK  Name = 
REMARK  10 active torsions:
REMARK  status: ('A' for Active; 'I' for Inactive)
REMARK    1  A    between atoms: C_1  and  C_2
REMARK    2  A    between atoms: C_5  and  S_6
REMARK    3  A    between atoms: S_6  and  C_7
REMARK    4  A    between atoms: C_7  and  C_8
REMARK    5  A    between atoms: C_8  and  C_9
REMARK    6  A    between atoms: C_8  and  N_13
REMARK    7  A    between atoms: C_9  and  C_10
REMARK    8  A    between atoms: C_10  and  C_11
REMARK    9  A    between atoms: C_10  and  C_12
REMARK   10  A    between atoms: N_16  and  C_17
REMARK                            x       y       z     vdW  Elec       q    Type
REMARK                         _______ _______ _______ _____ _____    ______ ____
ROOT
ATOM      1  C   UNL     1       2.294   5.754  19.390  0.00  0.00    +0.000 C 
ENDROOT
BRANCH   1   2
ATOM      2  N   UNL     1       3.614   5.418  18.768  0.00  0.00    +0.000 N 
ATOM      3  C   UNL     1       4.656   4.869  19.633  0.00  0.00    +0.000 C 
ATOM      4  C   UNL     1       6.101   5.215  19.202  0.00  0.00    +0.000 C 
ATOM      5  N   UNL     1       6.596   4.478  18.032  0.00  0.00    +0.000 NA
ATOM      6  C   UNL     1       8.064   4.550  17.983  0.00  0.00    +0.000 C 
ATOM      7  C   UNL     1       6.062   4.916  16.734  0.00  0.00    +0.000 C 
ATOM      8  C   UNL     1       4.630   5.400  16.593  0.00  0.00    +0.000 C 
ATOM      9  C   UNL     1       3.617   4.782  17.519  0.00  0.00    +0.000 C 
ATOM     10  O   UNL     1       2.804   3.941  17.159  0.00  0.00    +0.000 OA
ENDBRANCH   1   2
BRANCH   1  11
ATOM     11  C   UNL     1       2.161   7.280  19.716  0.00  0.00    +0.000 C 
BRANCH  11  12
ATOM     12  S   UNL     1       2.146   8.429  18.276  0.00  0.00    +0.000 S 
BRANCH  12  17
ATOM     13  C   UNL     1      -2.049  12.536  19.840  0.00  0.00    +0.000 C 
ATOM     14  C   UNL     1      -1.122  11.401  19.519  0.00  0.00    +0.000 A 
ATOM     15  C   UNL     1      -1.224  10.713  18.304  0.00  0.00    +0.000 A 
ATOM     16  C   UNL     1      -0.268   9.758  17.953  0.00  0.00    +0.000 A 
ATOM     17  C   UNL     1       0.804   9.483  18.807  0.00  0.00    +0.000 A 
ATOM     18  C   UNL     1       0.857  10.100  20.058  0.00  0.00    +0.000 A 
ATOM     19  C   UNL     1      -0.099  11.057  20.411  0.00  0.00    +0.000 A 
ENDBRANCH  12  17
ENDBRANCH  11  12
ENDBRANCH   1  11
BRANCH   1  20
ATOM     20  C   UNL     1       2.019   4.881  20.659  0.00  0.00    +0.000 C 
BRANCH  20  21
ATOM     21  C   UNL     1       1.734   3.372  20.438  0.00  0.00    +0.000 C 
ATOM     22  C   UNL     1       1.487   2.685  21.786  0.00  0.00    +0.000 C 
ATOM     23  C   UNL     1       0.523   3.094  19.548  0.00  0.00    +0.000 C 
ENDBRANCH  20  21
ENDBRANCH   1  20
TORSDOF 6
ENDMDL
MODEL 4
REMARK VINA RESULT:      -6.7      1.540      1.794
REMARK  Name = 
REMARK  10 active torsions:
REMARK  status: ('A' for Active; 'I' for Inactive)
REMARK    1  A    between atoms: C_1  and  C_2
REMARK    2  A    between atoms: C_5  and  S_6
REMARK    3  A    between atoms: S_6  and  C_7
REMARK    4  A    between atoms: C_7  and  C_8
REMARK    5  A    between atoms: C_8  and  C_9
REMARK    6  A    between atoms: C_8  and  N_13
REMARK    7  A    between atoms: C_9  and  C_10
REMARK    8  A    between atoms: C_10  and  C_11
REMARK    9  A    between atoms: C_10  and  C_12
REMARK   10  A    between atoms: N_16  and  C_17
REMARK                            x       y       z     vdW  Elec       q    Type
REMARK                         _______ _______ _______ _____ _____    ______ ____
ROOT
ATOM      1  C   UNL     1       2.378   5.826  19.268  0.00  0.00    +0.000 C 
ENDROOT
BRANCH   1   2
ATOM      2  N   UNL     1       3.708   5.471  18.678  0.00  0.00    +0.000 N 
ATOM      3  C   UNL     1       4.722   4.910  19.569  0.00  0.00    +0.000 C 
ATOM      4  C   UNL     1       6.182   5.236  19.172  0.00  0.00    +0.000 C 
ATOM      5  N   UNL     1       6.694   4.491  18.015  0.00  0.00    +0.000 NA
ATOM      6  C   UNL     1       8.164   4.544  18.001  0.00  0.00    +0.000 C 
ATOM      7  C   UNL     1       6.198   4.936  16.704  0.00  0.00    +0.000 C 
ATOM      8  C   UNL     1       4.775   5.438  16.529  0.00  0.00    +0.000 C 
ATOM      9  C   UNL     1       3.733   4.834  17.430  0.00  0.00    +0.000 C 
ATOM     10  O   UNL     1       2.918   4.003  17.052  0.00  0.00    +0.000 OA
ENDBRANCH   1   2
BRANCH   1  11
ATOM     11  C   UNL     1       2.162   7.373  19.363  0.00  0.00    +0.000 C 
BRANCH  11  12
ATOM     12  S   UNL     1       2.462   8.341  17.825  0.00  0.00    +0.000 S 
BRANCH  12  17
ATOM     13  C   UNL     1      -1.684  12.492  19.400  0.00  0.00    +0.000 C 
ATOM     14  C   UNL     1      -0.648  11.552  18.858  0.00  0.00    +0.000 A 
ATOM     15  C   UNL     1       0.717  11.820  19.017  0.00  0.00    +0.000 A 
ATOM     16  C   UNL     1       1.670  10.871  18.640  0.00  0.00    +0.000 A 
ATOM     17  C   UNL     1       1.271   9.643  18.106  0.00  0.00    +0.000 A 
ATOM     18  C   UNL     1      -0.083   9.410  17.862  0.00  0.00    +0.000 A 
ATOM     19  C   UNL     1      -1.039  10.359  18.240  0.00  0.00    +0.000 A 
ENDBRANCH  12  17
ENDBRANCH  11  12
ENDBRANCH   1  11
BRANCH   1  20
ATOM     20  C   UNL     1       2.168   5.141  20.660  0.00  0.00    +0.000 C 
BRANCH  20  21
ATOM     21  C   UNL     1       1.136   3.985  20.737  0.00  0.00    +0.000 C 
ATOM     22  C   UNL     1       0.869   3.429  19.334  0.00  0.00    +0.000 C 
ATOM     23  C   UNL     1       1.576   2.819  21.622  0.00  0.00    +0.000 C 
ENDBRANCH  20  21
ENDBRANCH   1  20
TORSDOF 6
ENDMDL
MODEL 5
REMARK VINA RESULT:      -6.6      2.289      6.560
REMARK  Name = 
REMARK  10 active torsions:
REMARK  status: ('A' for Active; 'I' for Inactive)
REMARK    1  A    between atoms: C_1  and  C_2
REMARK    2  A    between atoms: C_5  and  S_6
REMARK    3  A    between atoms: S_6  and  C_7
REMARK    4  A    between atoms: C_7  and  C_8
REMARK    5  A    between atoms: C_8  and  C_9
REMARK    6  A    between atoms: C_8  and  N_13
REMARK    7  A    between atoms: C_9  and  C_10
REMARK    8  A    between atoms: C_10  and  C_11
REMARK    9  A    between atoms: C_10  and  C_12
REMARK   10  A    between atoms: N_16  and  C_17
REMARK                            x       y       z     vdW  Elec       q    Type
REMARK                         _______ _______ _______ _____ _____    ______ ____
ROOT
ATOM      1  C   UNL     1       3.481   4.492  19.144  0.00  0.00    +0.000 C 
ENDROOT
BRANCH   1   2
ATOM      2  N   UNL     1       2.831   5.837  19.247  0.00  0.00    +0.000 N 
ATOM      3  C   UNL     1       2.453   6.509  18.004  0.00  0.00    +0.000 C 
ATOM      4  C   UNL     1       2.493   8.054  18.069  0.00  0.00    +0.000 C 
ATOM      5  N   UNL     1       1.391   8.676  18.814  0.00  0.00    +0.000 NA
ATOM      6  C   UNL     1       1.283  10.096  18.450  0.00  0.00    +0.000 C 
ATOM      7  C   UNL     1       1.479   8.574  20.279  0.00  0.00    +0.000 C 
ATOM      8  C   UNL     1       2.054   7.338  20.950  0.00  0.00    +0.000 C 
ATOM      9  C   UNL     1       1.856   6.030  20.234  0.00  0.00    +0.000 C 
ATOM     10  O   UNL     1       1.041   5.188  20.588  0.00  0.00    +0.000 OA
ENDBRANCH   1   2
BRANCH   1  11
ATOM     11  C   UNL     1       5.025   4.556  19.394  0.00  0.00    +0.000 C 
BRANCH  11  12
ATOM     12  S   UNL     1       5.906   6.028  18.722  0.00  0.00    +0.000 S 
BRANCH  12  17
ATOM     13  C   UNL     1       5.886   3.759  13.086  0.00  0.00    +0.000 C 
ATOM     14  C   UNL     1       6.025   4.420  14.426  0.00  0.00    +0.000 A 
ATOM     15  C   UNL     1       5.354   5.615  14.710  0.00  0.00    +0.000 A 
ATOM     16  C   UNL     1       5.372   6.144  16.002  0.00  0.00    +0.000 A 
ATOM     17  C   UNL     1       6.055   5.483  17.026  0.00  0.00    +0.000 A 
ATOM     18  C   UNL     1       6.801   4.342  16.726  0.00  0.00    +0.000 A 
ATOM     19  C   UNL     1       6.783   3.811  15.433  0.00  0.00    +0.000 A 
ENDBRANCH  12  17
ENDBRANCH  11  12
ENDBRANCH   1  11
BRANCH   1  20
ATOM     20  C   UNL     1       3.161   3.803  17.776  0.00  0.00    +0.000 C 
BRANCH  20  21
ATOM     21  C   UNL     1       2.515   2.393  17.822  0.00  0.00    +0.000 C 
ATOM     22  C   UNL     1       3.500   1.387  18.428  0.00  0.00    +0.000 C 
ATOM     23  C   UNL     1       1.224   2.328  18.639  0.00  0.00    +0.000 C 
ENDBRANCH  20  21
ENDBRANCH   1  20
TORSDOF 6
ENDMDL
MODEL 6
REMARK VINA RESULT:      -6.6      2.282      6.090
REMARK  Name = 
REMARK  10 active torsions:
REMARK  status: ('A' for Active; 'I' for Inactive)
REMARK    1  A    between atoms: C_1  and  C_2
REMARK    2  A    between atoms: C_5  and  S_6
REMARK    3  A    between atoms: S_6  and  C_7
REMARK    4  A    between atoms: C_7  and  C_8
REMARK    5  A    between atoms: C_8  and  C_9
REMARK    6  A    between atoms: C_8  and  N_13
REMARK    7  A    between atoms: C_9  and  C_10
REMARK    8  A    between atoms: C_10  and  C_11
REMARK    9  A    between atoms: C_10  and  C_12
REMARK   10  A    between atoms: N_16  and  C_17
REMARK                            x       y       z     vdW  Elec       q    Type
REMARK                         _______ _______ _______ _____ _____    ______ ____
ROOT
ATOM      1  C   UNL     1       2.498   5.353  19.137  0.00  0.00    +0.000 C 
ENDROOT
BRANCH   1   2
ATOM      2  N   UNL     1       2.056   6.779  19.251  0.00  0.00    +0.000 N 
ATOM      3  C   UNL     1       1.918   7.345  20.592  0.00  0.00    +0.000 C 
ATOM      4  C   UNL     1       0.836   8.443  20.721  0.00  0.00    +0.000 C 
ATOM      5  N   UNL     1       1.194   9.743  20.140  0.00  0.00    +0.000 NA
ATOM      6  C   UNL     1       0.319  10.791  20.688  0.00  0.00    +0.000 C 
ATOM      7  C   UNL     1       1.148   9.816  18.672  0.00  0.00    +0.000 C 
ATOM      8  C   UNL     1       1.544   8.629  17.811  0.00  0.00    +0.000 C 
ATOM      9  C   UNL     1       2.604   7.718  18.368  0.00  0.00    +0.000 C 
ATOM     10  O   UNL     1       3.762   7.713  17.969  0.00  0.00    +0.000 OA
ENDBRANCH   1   2
BRANCH   1  11
ATOM     11  C   UNL     1       2.550   4.863  17.652  0.00  0.00    +0.000 C 
BRANCH  11  12
ATOM     12  S   UNL     1       3.851   3.626  17.239  0.00  0.00    +0.000 S 
BRANCH  12  17
ATOM     13  C   UNL     1       8.277   7.627  18.383  0.00  0.00    +0.000 C 
ATOM     14  C   UNL     1       7.312   6.524  18.065  0.00  0.00    +0.000 A 
ATOM     15  C   UNL     1       6.898   5.625  19.055  0.00  0.00    +0.000 A 
ATOM     16  C   UNL     1       5.891   4.695  18.786  0.00  0.00    +0.000 A 
ATOM     17  C   UNL     1       5.282   4.656  17.529  0.00  0.00    +0.000 A 
ATOM     18  C   UNL     1       5.756   5.489  16.514  0.00  0.00    +0.000 A 
ATOM     19  C   UNL     1       6.763   6.421  16.781  0.00  0.00    +0.000 A 
ENDBRANCH  12  17
ENDBRANCH  11  12
ENDBRANCH   1  11
BRANCH   1  20
ATOM     20  C   UNL     1       1.613   4.406  20.013  0.00  0.00    +0.000 C 
BRANCH  20  21
ATOM     21  C   UNL     1       2.327   3.578  21.114  0.00  0.00    +0.000 C 
ATOM     22  C   UNL     1       1.303   2.724  21.871  0.00  0.00    +0.000 C 
ATOM     23  C   UNL     1       3.410   2.641  20.581  0.00  0.00    +0.000 C 
ENDBRANCH  20  21
ENDBRANCH   1  20
TORSDOF 6
ENDMDL
MODEL 7
REMARK VINA RESULT:      -6.6      1.270      1.714
REMARK  Name = 
REMARK  10 active torsions:
REMARK  status: ('A' for Active; 'I' for Inactive)
REMARK    1  A    between atoms: C_1  and  C_2
REMARK    2  A    between atoms: C_5  and  S_6
REMARK    3  A    between atoms: S_6  and  C_7
REMARK    4  A    between atoms: C_7  and  C_8
REMARK    5  A    between atoms: C_8  and  C_9
REMARK    6  A    between atoms: C_8  and  N_13
REMARK    7  A    between atoms: C_9  and  C_10
REMARK    8  A    between atoms: C_10  and  C_11
REMARK    9  A    between atoms: C_10  and  C_12
REMARK   10  A    between atoms: N_16  and  C_17
REMARK                            x       y       z     vdW  Elec       q    Type
REMARK                         _______ _______ _______ _____ _____    ______ ____
ROOT
ATOM      1  C   UNL     1       2.340   5.795  19.410  0.00  0.00    +0.000 C 
ENDROOT
BRANCH   1   2
ATOM      2  N   UNL     1       3.655   5.458  18.778  0.00  0.00    +0.000 N 
ATOM      3  C   UNL     1       4.682   4.853  19.624  0.00  0.00    +0.000 C 
ATOM      4  C   UNL     1       6.136   5.186  19.212  0.00  0.00    +0.000 C 
ATOM      5  N   UNL     1       6.620   4.488  18.015  0.00  0.00    +0.000 NA
ATOM      6  C   UNL     1       8.090   4.532  17.973  0.00  0.00    +0.000 C 
ATOM      7  C   UNL     1       6.101   4.991  16.734  0.00  0.00    +0.000 C 
ATOM      8  C   UNL     1       4.679   5.508  16.608  0.00  0.00    +0.000 C 
ATOM      9  C   UNL     1       3.651   4.874  17.504  0.00  0.00    +0.000 C 
ATOM     10  O   UNL     1       2.822   4.065  17.108  0.00  0.00    +0.000 OA
ENDBRANCH   1   2
BRANCH   1  11
ATOM     11  C   UNL     1       2.107   7.340  19.513  0.00  0.00    +0.000 C 
BRANCH  11  12
ATOM     12  S   UNL     1       1.347   7.954  21.074  0.00  0.00    +0.000 S 
BRANCH  12  17
ATOM     13  C   UNL     1      -0.648  13.303  18.999  0.00  0.00    +0.000 C 
ATOM     14  C   UNL     1      -0.313  11.918  19.467  0.00  0.00    +0.000 A 
ATOM     15  C   UNL     1       0.223  10.973  18.585  0.00  0.00    +0.000 A 
ATOM     16  C   UNL     1       0.667   9.737  19.061  0.00  0.00    +0.000 A 
ATOM     17  C   UNL     1       0.587   9.434  20.423  0.00  0.00    +0.000 A 
ATOM     18  C   UNL     1      -0.032  10.337  21.289  0.00  0.00    +0.000 A 
ATOM     19  C   UNL     1      -0.476  11.575  20.814  0.00  0.00    +0.000 A 
ENDBRANCH  12  17
ENDBRANCH  11  12
ENDBRANCH   1  11
BRANCH   1  20
ATOM     20  C   UNL     1       2.181   5.108  20.806  0.00  0.00    +0.000 C 
BRANCH  20  21
ATOM     21  C   UNL     1       1.228   3.887  20.895  0.00  0.00    +0.000 C 
ATOM     22  C   UNL     1       0.824   3.436  19.487  0.00  0.00    +0.000 C 
ATOM     23  C   UNL     1       1.831   2.680  21.613  0.00  0.00    +0.000 C 
ENDBRANCH  20  21
ENDBRANCH   1  20
TORSDOF 6
ENDMDL
MODEL 8
REMARK VINA RESULT:      -6.6      1.013      1.697
REMARK  Name = 
REMARK  10 active torsions:
REMARK  status: ('A' for Active; 'I' for Inactive)
REMARK    1  A    between atoms: C_1  and  C_2
REMARK    2  A    between atoms: C_5  and  S_6
REMARK    3  A    between atoms: S_6  and  C_7
REMARK    4  A    between atoms: C_7  and  C_8
REMARK    5  A    between atoms: C_8  and  C_9
REMARK    6  A    between atoms: C_8  and  N_13
REMARK    7  A    between atoms: C_9  and  C_10
REMARK    8  A    between atoms: C_10  and  C_11
REMARK    9  A    between atoms: C_10  and  C_12
REMARK   10  A    between atoms: N_16  and  C_17
REMARK                            x       y       z     vdW  Elec       q    Type
REMARK                         _______ _______ _______ _____ _____    ______ ____
ROOT
ATOM      1  C   UNL     1       2.327   5.690  19.410  0.00  0.00    +0.000 C 
ENDROOT
BRANCH   1   2
ATOM      2  N   UNL     1       3.645   5.370  18.776  0.00  0.00    +0.000 N 
ATOM      3  C   UNL     1       4.703   4.838  19.632  0.00  0.00    +0.000 C 
ATOM      4  C   UNL     1       6.139   5.202  19.186  0.00  0.00    +0.000 C 
ATOM      5  N   UNL     1       6.632   4.469  18.014  0.00  0.00    +0.000 NA
ATOM      6  C   UNL     1       8.099   4.561  17.950  0.00  0.00    +0.000 C 
ATOM      7  C   UNL     1       6.080   4.897  16.719  0.00  0.00    +0.000 C 
ATOM      8  C   UNL     1       4.640   5.360  16.591  0.00  0.00    +0.000 C 
ATOM      9  C   UNL     1       3.645   4.732  17.528  0.00  0.00    +0.000 C 
ATOM     10  O   UNL     1       2.840   3.878  17.179  0.00  0.00    +0.000 OA
ENDBRANCH   1   2
BRANCH   1  11
ATOM     11  C   UNL     1       2.190   7.208  19.765  0.00  0.00    +0.000 C 
BRANCH  11  12
ATOM     12  S   UNL     1       2.047   8.375  18.346  0.00  0.00    +0.000 S 
BRANCH  12  17
ATOM     13  C   UNL     1      -1.923  12.185  20.921  0.00  0.00    +0.000 C 
ATOM     14  C   UNL     1      -0.819  11.362  20.326  0.00  0.00    +0.000 A 
ATOM     15  C   UNL     1      -0.093  10.460  21.112  0.00  0.00    +0.000 A 
ATOM     16  C   UNL     1       0.831   9.595  20.521  0.00  0.00    +0.000 A 
ATOM     17  C   UNL     1       1.036   9.617  19.139  0.00  0.00    +0.000 A 
ATOM     18  C   UNL     1       0.381  10.577  18.366  0.00  0.00    +0.000 A 
ATOM     19  C   UNL     1      -0.544  11.443  18.955  0.00  0.00    +0.000 A 
ENDBRANCH  12  17
ENDBRANCH  11  12
ENDBRANCH   1  11
BRANCH   1  20
ATOM     20  C   UNL     1       2.061   4.792  20.664  0.00  0.00    +0.000 C 
BRANCH  20  21
ATOM     21  C   UNL     1       1.752   3.292  20.414  0.00  0.00    +0.000 C 
ATOM     22  C   UNL     1       1.506   2.581  21.750  0.00  0.00    +0.000 C 
ATOM     23  C   UNL     1       0.531   3.050  19.528  0.00  0.00    +0.000 C 
ENDBRANCH  20  21
ENDBRANCH   1  20
TORSDOF 6
ENDMDL
MODEL 9
REMARK VINA RESULT:      -6.5      1.244      1.771
REMARK  Name = 
REMARK  10 active torsions:
REMARK  status: ('A' for Active; 'I' for Inactive)
REMARK    1  A    between atoms: C_1  and  C_2
REMARK    2  A    between atoms: C_5  and  S_6
REMARK    3  A    between atoms: S_6  and  C_7
REMARK    4  A    between atoms: C_7  and  C_8
REMARK    5  A    between atoms: C_8  and  C_9
REMARK    6  A    between atoms: C_8  and  N_13
REMARK    7  A    between atoms: C_9  and  C_10
REMARK    8  A    between atoms: C_10  and  C_11
REMARK    9  A    between atoms: C_10  and  C_12
REMARK   10  A    between atoms: N_16  and  C_17
REMARK                            x       y       z     vdW  Elec       q    Type
REMARK                         _______ _______ _______ _____ _____    ______ ____
ROOT
ATOM      1  C   UNL     1       2.338   5.717  19.332  0.00  0.00    +0.000 C 
ENDROOT
BRANCH   1   2
ATOM      2  N   UNL     1       3.669   5.399  18.724  0.00  0.00    +0.000 N 
ATOM      3  C   UNL     1       4.693   4.817  19.590  0.00  0.00    +0.000 C 
ATOM      4  C   UNL     1       6.147   5.173  19.199  0.00  0.00    +0.000 C 
ATOM      5  N   UNL     1       6.663   4.476  18.014  0.00  0.00    +0.000 NA
ATOM      6  C   UNL     1       8.132   4.546  17.995  0.00  0.00    +0.000 C 
ATOM      7  C   UNL     1       6.155   4.962  16.721  0.00  0.00    +0.000 C 
ATOM      8  C   UNL     1       4.727   5.454  16.570  0.00  0.00    +0.000 C 
ATOM      9  C   UNL     1       3.695   4.808  17.454  0.00  0.00    +0.000 C 
ATOM     10  O   UNL     1       2.887   3.982  17.049  0.00  0.00    +0.000 OA
ENDBRANCH   1   2
BRANCH   1  11
ATOM     11  C   UNL     1       2.087   7.259  19.443  0.00  0.00    +0.000 C 
BRANCH  11  12
ATOM     12  S   UNL     1       1.343   7.859  21.018  0.00  0.00    +0.000 S 
BRANCH  12  17
ATOM     13  C   UNL     1      -0.928  13.173  19.145  0.00  0.00    +0.000 C 
ATOM     14  C   UNL     1      -0.209  11.938  19.603  0.00  0.00    +0.000 A 
ATOM     15  C   UNL     1       0.035  11.713  20.963  0.00  0.00    +0.000 A 
ATOM     16  C   UNL     1       0.572  10.497  21.391  0.00  0.00    +0.000 A 
ATOM     17  C   UNL     1       0.864   9.490  20.468  0.00  0.00    +0.000 A 
ATOM     18  C   UNL     1       0.707   9.745  19.104  0.00  0.00    +0.000 A 
ATOM     19  C   UNL     1       0.170  10.962  18.674  0.00  0.00    +0.000 A 
ENDBRANCH  12  17
ENDBRANCH  11  12
ENDBRANCH   1  11
BRANCH   1  20
ATOM     20  C   UNL     1       2.160   5.017  20.720  0.00  0.00    +0.000 C 
BRANCH  20  21
ATOM     21  C   UNL     1       1.142   3.848  20.803  0.00  0.00    +0.000 C 
ATOM     22  C   UNL     1       0.851   3.308  19.398  0.00  0.00    +0.000 C 
ATOM     23  C   UNL     1       1.613   2.675  21.662  0.00  0.00    +0.000 C 
ENDBRANCH  20  21
ENDBRANCH   1  20
TORSDOF 6
ENDMDL
