MODEL 1
REMARK VINA RESULT:      -7.2      0.000      0.000
REMARK  Name = 
REMARK  9 active torsions:
REMARK  status: ('A' for Active; 'I' for Inactive)
REMARK    1  A    between atoms: C_1  and  C_2
REMARK    2  A    between atoms: C_2  and  O_3
REMARK    3  A    between atoms: O_3  and  C_4
REMARK    4  A    between atoms: C_4  and  C_6
REMARK    5  A    between atoms: C_6  and  C_7
REMARK    6  A    between atoms: C_6  and  O_8
REMARK    7  A    between atoms: O_8  and  N_9
REMARK    8  A    between atoms: C_13  and  C_14
REMARK    9  A    between atoms: C_16  and  C_17
REMARK                            x       y       z     vdW  Elec       q    Type
REMARK                         _______ _______ _______ _____ _____    ______ ____
ROOT
ATOM      1  N   UNL     1       2.846   6.498  18.338  0.00  0.00    +0.000 N 
ATOM      2  C   UNL     1       2.491   5.755  19.446  0.00  0.00    +0.000 A 
ATOM      3  N   UNL     1       2.843   4.380  19.501  0.00  0.00    +0.000 N 
ATOM      4  N   UNL     1       3.309   3.695  18.423  0.00  0.00    +0.000 NA
ATOM      5  C   UNL     1       3.414   2.426  18.821  0.00  0.00    +0.000 A 
ATOM      6  C   UNL     1       3.749   1.354  17.856  0.00  0.00    +0.000 C 
ATOM      7  C   UNL     1       3.104   2.275  20.182  0.00  0.00    +0.000 A 
ATOM      8  C   UNL     1       2.683   3.518  20.593  0.00  0.00    +0.000 A 
ATOM      9  C   UNL     1       2.113   3.925  21.905  0.00  0.00    +0.000 C 
ATOM     10  N   UNL     1       1.855   6.270  20.456  0.00  0.00    +0.000 NA
ATOM     11  C   UNL     1       1.517   7.615  20.422  0.00  0.00    +0.000 A 
ATOM     12  C   UNL     1       0.971   8.175  21.579  0.00  0.00    +0.000 A 
ATOM     13  C   UNL     1       0.647   9.529  21.616  0.00  0.00    +0.000 A 
ATOM     14  C   UNL     1       0.844  10.322  20.489  0.00  0.00    +0.000 A 
ATOM     15  C   UNL     1       1.378   9.768  19.320  0.00  0.00    +0.000 A 
ATOM     16  C   UNL     1       1.723   8.414  19.300  0.00  0.00    +0.000 A 
ATOM     17  C   UNL     1       2.385   7.793  18.131  0.00  0.00    +0.000 A 
ATOM     18  O   UNL     1       2.530   8.449  17.102  0.00  0.00    +0.000 OA
ENDROOT
BRANCH   1  19
ATOM     19  O   UNL     1       3.623   5.981  17.281  0.00  0.00    +0.000 OA
BRANCH  19  20
ATOM     20  C   UNL     1       4.864   6.685  17.179  0.00  0.00    +0.000 C 
ATOM     21  C   UNL     1       5.298   6.675  15.716  0.00  0.00    +0.000 C 
BRANCH  20  22
ATOM     22  C   UNL     1       6.018   6.140  18.026  0.00  0.00    +0.000 C 
ATOM     23  O   UNL     1       5.909   5.499  19.060  0.00  0.00    +0.000 OA
BRANCH  22  24
ATOM     24  O   UNL     1       7.217   6.469  17.448  0.00  0.00    +0.000 OA
BRANCH  24  26
ATOM     25  C   UNL     1       7.980   8.745  17.804  0.00  0.00    +0.000 C 
ATOM     26  C   UNL     1       8.081   7.295  18.244  0.00  0.00    +0.000 C 
ENDBRANCH  24  26
ENDBRANCH  22  24
ENDBRANCH  20  22
ENDBRANCH  19  20
ENDBRANCH   1  19
TORSDOF 5
ENDMDL
MODEL 2
REMARK VINA RESULT:      -6.9      1.073      1.680
REMARK  Name = 
REMARK  9 active torsions:
REMARK  status: ('A' for Active; 'I' for Inactive)
REMARK    1  A    between atoms: C_1  and  C_2
REMARK    2  A    between atoms: C_2  and  O_3
REMARK    3  A    between atoms: O_3  and  C_4
REMARK    4  A    between atoms: C_4  and  C_6
REMARK    5  A    between atoms: C_6  and  C_7
REMARK    6  A    between atoms: C_6  and  O_8
REMARK    7  A    between atoms: O_8  and  N_9
REMARK    8  A    between atoms: C_13  and  C_14
REMARK    9  A    between atoms: C_16  and  C_17
REMARK                            x       y       z     vdW  Elec       q    Type
REMARK                         _______ _______ _______ _____ _____    ______ ____
ROOT
ATOM      1  N   UNL     1       3.034   6.428  18.362  0.00  0.00    +0.000 N 
ATOM      2  C   UNL     1       2.588   5.665  19.422  0.00  0.00    +0.000 A 
ATOM      3  N   UNL     1       2.938   4.290  19.481  0.00  0.00    +0.000 N 
ATOM      4  N   UNL     1       3.495   3.624  18.433  0.00  0.00    +0.000 NA
ATOM      5  C   UNL     1       3.569   2.348  18.816  0.00  0.00    +0.000 A 
ATOM      6  C   UNL     1       3.987   1.294  17.863  0.00  0.00    +0.000 C 
ATOM      7  C   UNL     1       3.146   2.172  20.143  0.00  0.00    +0.000 A 
ATOM      8  C   UNL     1       2.688   3.407  20.539  0.00  0.00    +0.000 A 
ATOM      9  C   UNL     1       2.009   3.790  21.806  0.00  0.00    +0.000 C 
ATOM     10  N   UNL     1       1.869   6.160  20.384  0.00  0.00    +0.000 NA
ATOM     11  C   UNL     1       1.532   7.506  20.346  0.00  0.00    +0.000 A 
ATOM     12  C   UNL     1       0.888   8.044  21.463  0.00  0.00    +0.000 A 
ATOM     13  C   UNL     1       0.559   9.397  21.497  0.00  0.00    +0.000 A 
ATOM     14  C   UNL     1       0.849  10.210  20.406  0.00  0.00    +0.000 A 
ATOM     15  C   UNL     1       1.481   9.678  19.276  0.00  0.00    +0.000 A 
ATOM     16  C   UNL     1       1.829   8.325  19.260  0.00  0.00    +0.000 A 
ATOM     17  C   UNL     1       2.589   7.727  18.140  0.00  0.00    +0.000 A 
ATOM     18  O   UNL     1       2.819   8.401  17.139  0.00  0.00    +0.000 OA
ENDROOT
BRANCH   1  19
ATOM     19  O   UNL     1       3.898   5.932  17.364  0.00  0.00    +0.000 OA
BRANCH  19  20
ATOM     20  C   UNL     1       5.261   6.217  17.693  0.00  0.00    +0.000 C 
ATOM     21  C   UNL     1       5.782   7.254  16.703  0.00  0.00    +0.000 C 
BRANCH  20  22
ATOM     22  C   UNL     1       6.219   5.022  17.686  0.00  0.00    +0.000 C 
ATOM     23  O   UNL     1       6.544   4.356  18.657  0.00  0.00    +0.000 OA
BRANCH  22  24
ATOM     24  O   UNL     1       6.666   4.790  16.411  0.00  0.00    +0.000 OA
BRANCH  24  26
ATOM     25  C   UNL     1       6.158   3.919  14.204  0.00  0.00    +0.000 C 
ATOM     26  C   UNL     1       5.997   3.736  15.702  0.00  0.00    +0.000 C 
ENDBRANCH  24  26
ENDBRANCH  22  24
ENDBRANCH  20  22
ENDBRANCH  19  20
ENDBRANCH   1  19
TORSDOF 5
ENDMDL
MODEL 3
REMARK VINA RESULT:      -6.7      1.035      1.240
REMARK  Name = 
REMARK  9 active torsions:
REMARK  status: ('A' for Active; 'I' for Inactive)
REMARK    1  A    between atoms: C_1  and  C_2
REMARK    2  A    between atoms: C_2  and  O_3
REMARK    3  A    between atoms: O_3  and  C_4
REMARK    4  A    between atoms: C_4  and  C_6
REMARK    5  A    between atoms: C_6  and  C_7
REMARK    6  A    between atoms: C_6  and  O_8
REMARK    7  A    between atoms: O_8  and  N_9
REMARK    8  A    between atoms: C_13  and  C_14
REMARK    9  A    between atoms: C_16  and  C_17
REMARK                            x       y       z     vdW  Elec       q    Type
REMARK                         _______ _______ _______ _____ _____    ______ ____
ROOT
ATOM      1  N   UNL     1       3.739   6.039  17.794  0.00  0.00    +0.000 N 
ATOM      2  C   UNL     1       3.083   5.557  18.909  0.00  0.00    +0.000 A 
ATOM      3  N   UNL     1       3.290   4.209  19.306  0.00  0.00    +0.000 N 
ATOM      4  N   UNL     1       3.919   3.296  18.519  0.00  0.00    +0.000 NA
ATOM      5  C   UNL     1       3.819   2.133  19.165  0.00  0.00    +0.000 A 
ATOM      6  C   UNL     1       4.261   0.871  18.528  0.00  0.00    +0.000 C 
ATOM      7  C   UNL     1       3.204   2.280  20.419  0.00  0.00    +0.000 A 
ATOM      8  C   UNL     1       2.816   3.599  20.474  0.00  0.00    +0.000 A 
ATOM      9  C   UNL     1       2.010   4.293  21.514  0.00  0.00    +0.000 C 
ATOM     10  N   UNL     1       2.289   6.296  19.625  0.00  0.00    +0.000 NA
ATOM     11  C   UNL     1       2.089   7.619  19.256  0.00  0.00    +0.000 A 
ATOM     12  C   UNL     1       1.354   8.429  20.124  0.00  0.00    +0.000 A 
ATOM     13  C   UNL     1       1.152   9.774  19.824  0.00  0.00    +0.000 A 
ATOM     14  C   UNL     1       1.664  10.308  18.645  0.00  0.00    +0.000 A 
ATOM     15  C   UNL     1       2.390   9.501  17.762  0.00  0.00    +0.000 A 
ATOM     16  C   UNL     1       2.608   8.159  18.081  0.00  0.00    +0.000 A 
ATOM     17  C   UNL     1       3.453   7.282  17.241  0.00  0.00    +0.000 A 
ATOM     18  O   UNL     1       3.880   7.704  16.169  0.00  0.00    +0.000 OA
ENDROOT
BRANCH   1  19
ATOM     19  O   UNL     1       4.681   5.281  17.067  0.00  0.00    +0.000 OA
BRANCH  19  20
ATOM     20  C   UNL     1       5.950   5.941  17.050  0.00  0.00    +0.000 C 
ATOM     21  C   UNL     1       6.774   5.358  15.905  0.00  0.00    +0.000 C 
BRANCH  20  22
ATOM     22  C   UNL     1       6.777   5.842  18.335  0.00  0.00    +0.000 C 
ATOM     23  O   UNL     1       6.605   5.038  19.239  0.00  0.00    +0.000 OA
BRANCH  22  24
ATOM     24  O   UNL     1       7.763   6.793  18.330  0.00  0.00    +0.000 OA
BRANCH  24  26
ATOM     25  C   UNL     1       8.338   9.141  18.113  0.00  0.00    +0.000 C 
ATOM     26  C   UNL     1       7.447   8.009  17.635  0.00  0.00    +0.000 C 
ENDBRANCH  24  26
ENDBRANCH  22  24
ENDBRANCH  20  22
ENDBRANCH  19  20
ENDBRANCH   1  19
TORSDOF 5
ENDMDL
MODEL 4
REMARK VINA RESULT:      -6.6      0.956      1.183
REMARK  Name = 
REMARK  9 active torsions:
REMARK  status: ('A' for Active; 'I' for Inactive)
REMARK    1  A    between atoms: C_1  and  C_2
REMARK    2  A    between atoms: C_2  and  O_3
REMARK    3  A    between atoms: O_3  and  C_4
REMARK    4  A    between atoms: C_4  and  C_6
REMARK    5  A    between atoms: C_6  and  C_7
REMARK    6  A    between atoms: C_6  and  O_8
REMARK    7  A    between atoms: O_8  and  N_9
REMARK    8  A    between atoms: C_13  and  C_14
REMARK    9  A    between atoms: C_16  and  C_17
REMARK                            x       y       z     vdW  Elec       q    Type
REMARK                         _______ _______ _______ _____ _____    ______ ____
ROOT
ATOM      1  N   UNL     1       2.870   6.413  18.298  0.00  0.00    +0.000 N 
ATOM      2  C   UNL     1       2.517   5.688  19.418  0.00  0.00    +0.000 A 
ATOM      3  N   UNL     1       2.854   4.310  19.487  0.00  0.00    +0.000 N 
ATOM      4  N   UNL     1       3.303   3.606  18.413  0.00  0.00    +0.000 NA
ATOM      5  C   UNL     1       3.397   2.341  18.826  0.00  0.00    +0.000 A 
ATOM      6  C   UNL     1       3.712   1.253  17.871  0.00  0.00    +0.000 C 
ATOM      7  C   UNL     1       3.098   2.210  20.191  0.00  0.00    +0.000 A 
ATOM      8  C   UNL     1       2.694   3.463  20.591  0.00  0.00    +0.000 A 
ATOM      9  C   UNL     1       2.141   3.892  21.902  0.00  0.00    +0.000 C 
ATOM     10  N   UNL     1       1.896   6.222  20.427  0.00  0.00    +0.000 NA
ATOM     11  C   UNL     1       1.573   7.571  20.379  0.00  0.00    +0.000 A 
ATOM     12  C   UNL     1       1.043   8.151  21.534  0.00  0.00    +0.000 A 
ATOM     13  C   UNL     1       0.735   9.508  21.557  0.00  0.00    +0.000 A 
ATOM     14  C   UNL     1       0.931  10.285  20.419  0.00  0.00    +0.000 A 
ATOM     15  C   UNL     1       1.448   9.711  19.252  0.00  0.00    +0.000 A 
ATOM     16  C   UNL     1       1.778   8.353  19.245  0.00  0.00    +0.000 A 
ATOM     17  C   UNL     1       2.422   7.711  18.079  0.00  0.00    +0.000 A 
ATOM     18  O   UNL     1       2.566   8.352  17.040  0.00  0.00    +0.000 OA
ENDROOT
BRANCH   1  19
ATOM     19  O   UNL     1       3.632   5.874  17.240  0.00  0.00    +0.000 OA
BRANCH  19  20
ATOM     20  C   UNL     1       5.030   6.045  17.491  0.00  0.00    +0.000 C 
ATOM     21  C   UNL     1       5.562   7.098  16.523  0.00  0.00    +0.000 C 
BRANCH  20  22
ATOM     22  C   UNL     1       5.896   4.789  17.356  0.00  0.00    +0.000 C 
ATOM     23  O   UNL     1       6.165   4.211  16.314  0.00  0.00    +0.000 OA
BRANCH  22  24
ATOM     24  O   UNL     1       6.345   4.397  18.590  0.00  0.00    +0.000 OA
BRANCH  24  26
ATOM     25  C   UNL     1       8.110   5.928  19.245  0.00  0.00    +0.000 C 
ATOM     26  C   UNL     1       6.687   5.462  19.491  0.00  0.00    +0.000 C 
ENDBRANCH  24  26
ENDBRANCH  22  24
ENDBRANCH  20  22
ENDBRANCH  19  20
ENDBRANCH   1  19
TORSDOF 5
ENDMDL
MODEL 5
REMARK VINA RESULT:      -6.1      7.148      9.772
REMARK  Name = 
REMARK  9 active torsions:
REMARK  status: ('A' for Active; 'I' for Inactive)
REMARK    1  A    between atoms: C_1  and  C_2
REMARK    2  A    between atoms: C_2  and  O_3
REMARK    3  A    between atoms: O_3  and  C_4
REMARK    4  A    between atoms: C_4  and  C_6
REMARK    5  A    between atoms: C_6  and  C_7
REMARK    6  A    between atoms: C_6  and  O_8
REMARK    7  A    between atoms: O_8  and  N_9
REMARK    8  A    between atoms: C_13  and  C_14
REMARK    9  A    between atoms: C_16  and  C_17
REMARK                            x       y       z     vdW  Elec       q    Type
REMARK                         _______ _______ _______ _____ _____    ______ ____
ROOT
ATOM      1  N   UNL     1      -2.837  13.356  20.592  0.00  0.00    +0.000 N 
ATOM      2  C   UNL     1      -2.401  12.431  19.665  0.00  0.00    +0.000 A 
ATOM      3  N   UNL     1      -1.007  12.203  19.516  0.00  0.00    +0.000 N 
ATOM      4  N   UNL     1      -0.064  13.010  20.073  0.00  0.00    +0.000 NA
ATOM      5  C   UNL     1       1.108  12.557  19.623  0.00  0.00    +0.000 A 
ATOM      6  C   UNL     1       2.362  13.293  19.901  0.00  0.00    +0.000 C 
ATOM      7  C   UNL     1       0.959  11.401  18.840  0.00  0.00    +0.000 A 
ATOM      8  C   UNL     1      -0.400  11.218  18.728  0.00  0.00    +0.000 A 
ATOM      9  C   UNL     1      -1.144  10.222  17.911  0.00  0.00    +0.000 C 
ATOM     10  N   UNL     1      -3.221  11.744  18.927  0.00  0.00    +0.000 NA
ATOM     11  C   UNL     1      -4.586  11.947  19.072  0.00  0.00    +0.000 A 
ATOM     12  C   UNL     1      -5.445  11.092  18.377  0.00  0.00    +0.000 A 
ATOM     13  C   UNL     1      -6.824  11.224  18.513  0.00  0.00    +0.000 A 
ATOM     14  C   UNL     1      -7.350  12.226  19.323  0.00  0.00    +0.000 A 
ATOM     15  C   UNL     1      -6.498  13.097  20.013  0.00  0.00    +0.000 A 
ATOM     16  C   UNL     1      -5.115  12.942  19.890  0.00  0.00    +0.000 A 
ATOM     17  C   UNL     1      -4.164  13.763  20.671  0.00  0.00    +0.000 A 
ATOM     18  O   UNL     1      -4.590  14.689  21.358  0.00  0.00    +0.000 OA
ENDROOT
BRANCH   1  19
ATOM     19  O   UNL     1      -1.967  14.035  21.471  0.00  0.00    +0.000 OA
BRANCH  19  20
ATOM     20  C   UNL     1      -2.308  13.753  22.832  0.00  0.00    +0.000 C 
ATOM     21  C   UNL     1      -1.339  14.514  23.732  0.00  0.00    +0.000 C 
BRANCH  20  22
ATOM     22  C   UNL     1      -2.284  12.277  23.239  0.00  0.00    +0.000 C 
ATOM     23  O   UNL     1      -3.245  11.616  23.600  0.00  0.00    +0.000 OA
BRANCH  22  24
ATOM     24  O   UNL     1      -1.009  11.784  23.133  0.00  0.00    +0.000 OA
BRANCH  24  26
ATOM     25  C   UNL     1       0.081   9.866  22.123  0.00  0.00    +0.000 C 
ATOM     26  C   UNL     1      -0.893  10.354  23.180  0.00  0.00    +0.000 C 
ENDBRANCH  24  26
ENDBRANCH  22  24
ENDBRANCH  20  22
ENDBRANCH  19  20
ENDBRANCH   1  19
TORSDOF 5
ENDMDL
MODEL 6
REMARK VINA RESULT:      -6.0      7.455     10.327
REMARK  Name = 
REMARK  9 active torsions:
REMARK  status: ('A' for Active; 'I' for Inactive)
REMARK    1  A    between atoms: C_1  and  C_2
REMARK    2  A    between atoms: C_2  and  O_3
REMARK    3  A    between atoms: O_3  and  C_4
REMARK    4  A    between atoms: C_4  and  C_6
REMARK    5  A    between atoms: C_6  and  C_7
REMARK    6  A    between atoms: C_6  and  O_8
REMARK    7  A    between atoms: O_8  and  N_9
REMARK    8  A    between atoms: C_13  and  C_14
REMARK    9  A    between atoms: C_16  and  C_17
REMARK                            x       y       z     vdW  Elec       q    Type
REMARK                         _______ _______ _______ _____ _____    ______ ____
ROOT
ATOM      1  N   UNL     1      -2.852  13.456  20.657  0.00  0.00    +0.000 N 
ATOM      2  C   UNL     1      -2.422  12.510  19.749  0.00  0.00    +0.000 A 
ATOM      3  N   UNL     1      -1.030  12.264  19.612  0.00  0.00    +0.000 N 
ATOM      4  N   UNL     1      -0.080  13.070  20.159  0.00  0.00    +0.000 NA
ATOM      5  C   UNL     1       1.088  12.597  19.724  0.00  0.00    +0.000 A 
ATOM      6  C   UNL     1       2.349  13.324  19.996  0.00  0.00    +0.000 C 
ATOM      7  C   UNL     1       0.931  11.429  18.961  0.00  0.00    +0.000 A 
ATOM      8  C   UNL     1      -0.429  11.258  18.845  0.00  0.00    +0.000 A 
ATOM      9  C   UNL     1      -1.180  10.256  18.042  0.00  0.00    +0.000 C 
ATOM     10  N   UNL     1      -3.245  11.818  19.019  0.00  0.00    +0.000 NA
ATOM     11  C   UNL     1      -4.609  12.039  19.153  0.00  0.00    +0.000 A 
ATOM     12  C   UNL     1      -5.473  11.181  18.469  0.00  0.00    +0.000 A 
ATOM     13  C   UNL     1      -6.852  11.331  18.595  0.00  0.00    +0.000 A 
ATOM     14  C   UNL     1      -7.371  12.353  19.384  0.00  0.00    +0.000 A 
ATOM     15  C   UNL     1      -6.513  13.226  20.062  0.00  0.00    +0.000 A 
ATOM     16  C   UNL     1      -5.131  13.054  19.949  0.00  0.00    +0.000 A 
ATOM     17  C   UNL     1      -4.176  13.879  20.721  0.00  0.00    +0.000 A 
ATOM     18  O   UNL     1      -4.594  14.821  21.389  0.00  0.00    +0.000 OA
ENDROOT
BRANCH   1  19
ATOM     19  O   UNL     1      -1.980  14.141  21.528  0.00  0.00    +0.000 OA
BRANCH  19  20
ATOM     20  C   UNL     1      -2.249  13.788  22.888  0.00  0.00    +0.000 C 
ATOM     21  C   UNL     1      -1.264  14.540  23.778  0.00  0.00    +0.000 C 
BRANCH  20  22
ATOM     22  C   UNL     1      -2.160  12.297  23.226  0.00  0.00    +0.000 C 
ATOM     23  O   UNL     1      -1.140  11.626  23.250  0.00  0.00    +0.000 OA
BRANCH  22  24
ATOM     24  O   UNL     1      -3.408  11.808  23.513  0.00  0.00    +0.000 OA
BRANCH  24  26
ATOM     25  C   UNL     1      -5.593  12.706  24.068  0.00  0.00    +0.000 C 
ATOM     26  C   UNL     1      -4.148  12.542  24.502  0.00  0.00    +0.000 C 
ENDBRANCH  24  26
ENDBRANCH  22  24
ENDBRANCH  20  22
ENDBRANCH  19  20
ENDBRANCH   1  19
TORSDOF 5
ENDMDL
MODEL 7
REMARK VINA RESULT:      -5.9      8.448     11.356
REMARK  Name = 
REMARK  9 active torsions:
REMARK  status: ('A' for Active; 'I' for Inactive)
REMARK    1  A    between atoms: C_1  and  C_2
REMARK    2  A    between atoms: C_2  and  O_3
REMARK    3  A    between atoms: O_3  and  C_4
REMARK    4  A    between atoms: C_4  and  C_6
REMARK    5  A    between atoms: C_6  and  C_7
REMARK    6  A    between atoms: C_6  and  O_8
REMARK    7  A    between atoms: O_8  and  N_9
REMARK    8  A    between atoms: C_13  and  C_14
REMARK    9  A    between atoms: C_16  and  C_17
REMARK                            x       y       z     vdW  Elec       q    Type
REMARK                         _______ _______ _______ _____ _____    ______ ____
ROOT
ATOM      1  N   UNL     1      -4.520  12.519  18.999  0.00  0.00    +0.000 N 
ATOM      2  C   UNL     1      -3.303  12.194  19.562  0.00  0.00    +0.000 A 
ATOM      3  N   UNL     1      -2.992  12.669  20.864  0.00  0.00    +0.000 N 
ATOM      4  N   UNL     1      -3.731  13.619  21.499  0.00  0.00    +0.000 NA
ATOM      5  C   UNL     1      -3.076  13.889  22.629  0.00  0.00    +0.000 A 
ATOM      6  C   UNL     1      -3.509  14.998  23.510  0.00  0.00    +0.000 C 
ATOM      7  C   UNL     1      -1.951  13.065  22.795  0.00  0.00    +0.000 A 
ATOM      8  C   UNL     1      -1.872  12.330  21.634  0.00  0.00    +0.000 A 
ATOM      9  C   UNL     1      -0.811  11.384  21.198  0.00  0.00    +0.000 C 
ATOM     10  N   UNL     1      -2.427  11.453  18.952  0.00  0.00    +0.000 NA
ATOM     11  C   UNL     1      -2.724  10.970  17.684  0.00  0.00    +0.000 A 
ATOM     12  C   UNL     1      -1.834  10.057  17.115  0.00  0.00    +0.000 A 
ATOM     13  C   UNL     1      -2.098   9.510  15.862  0.00  0.00    +0.000 A 
ATOM     14  C   UNL     1      -3.238   9.893  15.163  0.00  0.00    +0.000 A 
ATOM     15  C   UNL     1      -4.130  10.818  15.718  0.00  0.00    +0.000 A 
ATOM     16  C   UNL     1      -3.870  11.344  16.987  0.00  0.00    +0.000 A 
ATOM     17  C   UNL     1      -4.823  12.245  17.670  0.00  0.00    +0.000 A 
ATOM     18  O   UNL     1      -5.816  12.644  17.065  0.00  0.00    +0.000 OA
ENDROOT
BRANCH   1  19
ATOM     19  O   UNL     1      -5.521  13.236  19.688  0.00  0.00    +0.000 OA
BRANCH  19  20
ATOM     20  C   UNL     1      -6.662  12.406  19.922  0.00  0.00    +0.000 C 
ATOM     21  C   UNL     1      -7.916  13.238  19.666  0.00  0.00    +0.000 C 
BRANCH  20  22
ATOM     22  C   UNL     1      -6.772  11.792  21.321  0.00  0.00    +0.000 C 
ATOM     23  O   UNL     1      -6.297  12.254  22.347  0.00  0.00    +0.000 OA
BRANCH  22  24
ATOM     24  O   UNL     1      -7.499  10.631  21.265  0.00  0.00    +0.000 OA
BRANCH  24  26
ATOM     25  C   UNL     1      -7.562   8.355  20.426  0.00  0.00    +0.000 C 
ATOM     26  C   UNL     1      -7.268   9.811  20.110  0.00  0.00    +0.000 C 
ENDBRANCH  24  26
ENDBRANCH  22  24
ENDBRANCH  20  22
ENDBRANCH  19  20
ENDBRANCH   1  19
TORSDOF 5
ENDMDL
MODEL 8
REMARK VINA RESULT:      -5.8      5.330      8.879
REMARK  Name = 
REMARK  9 active torsions:
REMARK  status: ('A' for Active; 'I' for Inactive)
REMARK    1  A    between atoms: C_1  and  C_2
REMARK    2  A    between atoms: C_2  and  O_3
REMARK    3  A    between atoms: O_3  and  C_4
REMARK    4  A    between atoms: C_4  and  C_6
REMARK    5  A    between atoms: C_6  and  C_7
REMARK    6  A    between atoms: C_6  and  O_8
REMARK    7  A    between atoms: O_8  and  N_9
REMARK    8  A    between atoms: C_13  and  C_14
REMARK    9  A    between atoms: C_16  and  C_17
REMARK                            x       y       z     vdW  Elec       q    Type
REMARK                         _______ _______ _______ _____ _____    ______ ____
ROOT
ATOM      1  N   UNL     1      -0.419  12.353  21.792  0.00  0.00    +0.000 N 
ATOM      2  C   UNL     1      -0.629  13.586  21.208  0.00  0.00    +0.000 A 
ATOM      3  N   UNL     1       0.327  14.087  20.284  0.00  0.00    +0.000 N 
ATOM      4  N   UNL     1       1.554  13.525  20.114  0.00  0.00    +0.000 NA
ATOM      5  C   UNL     1       2.203  14.327  19.268  0.00  0.00    +0.000 A 
ATOM      6  C   UNL     1       3.637  14.111  18.968  0.00  0.00    +0.000 C 
ATOM      7  C   UNL     1       1.388  15.372  18.804  0.00  0.00    +0.000 A 
ATOM      8  C   UNL     1       0.211  15.245  19.505  0.00  0.00    +0.000 A 
ATOM      9  C   UNL     1      -0.972  16.147  19.517  0.00  0.00    +0.000 C 
ATOM     10  N   UNL     1      -1.681  14.306  21.459  0.00  0.00    +0.000 NA
ATOM     11  C   UNL     1      -2.629  13.822  22.349  0.00  0.00    +0.000 A 
ATOM     12  C   UNL     1      -3.817  14.545  22.485  0.00  0.00    +0.000 A 
ATOM     13  C   UNL     1      -4.820  14.087  23.335  0.00  0.00    +0.000 A 
ATOM     14  C   UNL     1      -4.631  12.921  24.071  0.00  0.00    +0.000 A 
ATOM     15  C   UNL     1      -3.438  12.198  23.952  0.00  0.00    +0.000 A 
ATOM     16  C   UNL     1      -2.446  12.650  23.078  0.00  0.00    +0.000 A 
ATOM     17  C   UNL     1      -1.209  11.877  22.832  0.00  0.00    +0.000 A 
ATOM     18  O   UNL     1      -0.985  10.870  23.499  0.00  0.00    +0.000 OA
ENDROOT
BRANCH   1  19
ATOM     19  O   UNL     1       0.664  11.515  21.454  0.00  0.00    +0.000 OA
BRANCH  19  20
ATOM     20  C   UNL     1       0.195  10.312  20.838  0.00  0.00    +0.000 C 
ATOM     21  C   UNL     1       1.019   9.148  21.378  0.00  0.00    +0.000 C 
BRANCH  20  22
ATOM     22  C   UNL     1       0.254  10.273  19.308  0.00  0.00    +0.000 C 
ATOM     23  O   UNL     1      -0.705  10.293  18.551  0.00  0.00    +0.000 OA
BRANCH  22  24
ATOM     24  O   UNL     1       1.560  10.221  18.892  0.00  0.00    +0.000 OA
BRANCH  24  26
ATOM     25  C   UNL     1       2.293   8.049  18.100  0.00  0.00    +0.000 C 
ATOM     26  C   UNL     1       1.804   9.433  17.717  0.00  0.00    +0.000 C 
ENDBRANCH  24  26
ENDBRANCH  22  24
ENDBRANCH  20  22
ENDBRANCH  19  20
ENDBRANCH   1  19
TORSDOF 5
ENDMDL
MODEL 9
REMARK VINA RESULT:      -5.8      6.032      9.244
REMARK  Name = 
REMARK  9 active torsions:
REMARK  status: ('A' for Active; 'I' for Inactive)
REMARK    1  A    between atoms: C_1  and  C_2
REMARK    2  A    between atoms: C_2  and  O_3
REMARK    3  A    between atoms: O_3  and  C_4
REMARK    4  A    between atoms: C_4  and  C_6
REMARK    5  A    between atoms: C_6  and  C_7
REMARK    6  A    between atoms: C_6  and  O_8
REMARK    7  A    between atoms: O_8  and  N_9
REMARK    8  A    between atoms: C_13  and  C_14
REMARK    9  A    between atoms: C_16  and  C_17
REMARK                            x       y       z     vdW  Elec       q    Type
REMARK                         _______ _______ _______ _____ _____    ______ ____
ROOT
ATOM      1  N   UNL     1      -0.339  12.401  21.690  0.00  0.00    +0.000 N 
ATOM      2  C   UNL     1      -0.556  13.647  21.136  0.00  0.00    +0.000 A 
ATOM      3  N   UNL     1       0.390  14.172  20.216  0.00  0.00    +0.000 N 
ATOM      4  N   UNL     1       1.617  13.616  20.023  0.00  0.00    +0.000 NA
ATOM      5  C   UNL     1       2.257  14.439  19.190  0.00  0.00    +0.000 A 
ATOM      6  C   UNL     1       3.689  14.232  18.872  0.00  0.00    +0.000 C 
ATOM      7  C   UNL     1       1.436  15.492  18.758  0.00  0.00    +0.000 A 
ATOM      8  C   UNL     1       0.265  15.347  19.465  0.00  0.00    +0.000 A 
ATOM      9  C   UNL     1      -0.918  16.246  19.509  0.00  0.00    +0.000 C 
ATOM     10  N   UNL     1      -1.607  14.360  21.413  0.00  0.00    +0.000 NA
ATOM     11  C   UNL     1      -2.547  13.853  22.300  0.00  0.00    +0.000 A 
ATOM     12  C   UNL     1      -3.735  14.570  22.463  0.00  0.00    +0.000 A 
ATOM     13  C   UNL     1      -4.730  14.091  23.311  0.00  0.00    +0.000 A 
ATOM     14  C   UNL     1      -4.532  12.909  24.018  0.00  0.00    +0.000 A 
ATOM     15  C   UNL     1      -3.339  12.190  23.872  0.00  0.00    +0.000 A 
ATOM     16  C   UNL     1      -2.356  12.665  23.000  0.00  0.00    +0.000 A 
ATOM     17  C   UNL     1      -1.120  11.900  22.725  0.00  0.00    +0.000 A 
ATOM     18  O   UNL     1      -0.888  10.877  23.366  0.00  0.00    +0.000 OA
ENDROOT
BRANCH   1  19
ATOM     19  O   UNL     1       0.742  11.573  21.323  0.00  0.00    +0.000 OA
BRANCH  19  20
ATOM     20  C   UNL     1       0.276  10.431  20.598  0.00  0.00    +0.000 C 
ATOM     21  C   UNL     1       1.057   9.212  21.079  0.00  0.00    +0.000 C 
BRANCH  20  22
ATOM     22  C   UNL     1       0.397  10.507  19.073  0.00  0.00    +0.000 C 
ATOM     23  O   UNL     1       1.436  10.616  18.440  0.00  0.00    +0.000 OA
BRANCH  22  24
ATOM     24  O   UNL     1      -0.846  10.426  18.502  0.00  0.00    +0.000 OA
BRANCH  24  26
ATOM     25  C   UNL     1      -2.784  11.832  18.896  0.00  0.00    +0.000 C 
ATOM     26  C   UNL     1      -1.459  11.683  18.172  0.00  0.00    +0.000 C 
ENDBRANCH  24  26
ENDBRANCH  22  24
ENDBRANCH  20  22
ENDBRANCH  19  20
ENDBRANCH   1  19
TORSDOF 5
ENDMDL
