MODEL 1
REMARK VINA RESULT:      -6.9      0.000      0.000
REMARK  Name = 
REMARK  9 active torsions:
REMARK  status: ('A' for Active; 'I' for Inactive)
REMARK    1  A    between atoms: C_1  and  C_2
REMARK    2  A    between atoms: C_2  and  C_3
REMARK    3  A    between atoms: C_4  and  C_5
REMARK    4  A    between atoms: C_4  and  N_11
REMARK    5  A    between atoms: N_11  and  C_12
REMARK    6  A    between atoms: C_12  and  C_13
REMARK    7  A    between atoms: C_13  and  C_14
REMARK    8  A    between atoms: C_13  and  C_15
REMARK    9  A    between atoms: C_16  and  C_18
REMARK                            x       y       z     vdW  Elec       q    Type
REMARK                         _______ _______ _______ _____ _____    ______ ____
ROOT
ATOM      1  C   UNL     1       1.620   2.777  18.481  0.00  0.00    +0.000 C 
ATOM      2  C   UNL     1       3.138   2.802  18.302  0.00  0.00    +0.000 C 
ATOM      3  C   UNL     1       3.638   1.382  18.363  0.00  0.00    +0.000 C 
ATOM      4  C   UNL     1       3.871   3.954  18.215  0.00  0.00    +0.000 C 
ENDROOT
BRANCH   4   5
ATOM      5  C   UNL     1       3.114   5.138  18.736  0.00  0.00    +0.000 A 
ATOM      6  C   UNL     1       3.032   6.302  17.945  0.00  0.00    +0.000 A 
ATOM      7  C   UNL     1       2.442   7.463  18.439  0.00  0.00    +0.000 A 
ATOM      8  C   UNL     1       1.968   7.495  19.751  0.00  0.00    +0.000 A 
ATOM      9  C   UNL     1       2.058   6.352  20.551  0.00  0.00    +0.000 A 
ATOM     10  C   UNL     1       2.607   5.170  20.042  0.00  0.00    +0.000 A 
ENDBRANCH   4   5
BRANCH   4  11
ATOM     11  N   UNL     1       5.232   4.148  17.816  0.00  0.00    +0.000 N 
ATOM     12  C   UNL     1       6.168   4.792  18.719  0.00  0.00    +0.000 C 
ATOM     13  O   UNL     1       5.926   5.073  19.892  0.00  0.00    +0.000 OA
BRANCH  12  14
ATOM     14  C   UNL     1       7.583   5.066  18.177  0.00  0.00    +0.000 C 
ATOM     15 CL   UNL     1       7.887   6.810  17.930  0.00  0.00    +0.000 Cl
ENDBRANCH  12  14
BRANCH  11  16
ATOM     16  C   UNL     1       5.736   3.940  16.435  0.00  0.00    +0.000 C 
BRANCH  16  17
ATOM     17  C   UNL     1       5.241   4.677  15.186  0.00  0.00    +0.000 C 
ATOM     18  C   UNL     1       5.384   6.193  15.282  0.00  0.00    +0.000 C 
ATOM     19  C   UNL     1       5.954   4.170  13.922  0.00  0.00    +0.000 C 
ENDBRANCH  16  17
ENDBRANCH  11  16
ENDBRANCH   4  11
TORSDOF 5
ENDMDL
MODEL 2
REMARK VINA RESULT:      -6.9      2.703      5.124
REMARK  Name = 
REMARK  9 active torsions:
REMARK  status: ('A' for Active; 'I' for Inactive)
REMARK    1  A    between atoms: C_1  and  C_2
REMARK    2  A    between atoms: C_2  and  C_3
REMARK    3  A    between atoms: C_4  and  C_5
REMARK    4  A    between atoms: C_4  and  N_11
REMARK    5  A    between atoms: N_11  and  C_12
REMARK    6  A    between atoms: C_12  and  C_13
REMARK    7  A    between atoms: C_13  and  C_14
REMARK    8  A    between atoms: C_13  and  C_15
REMARK    9  A    between atoms: C_16  and  C_18
REMARK                            x       y       z     vdW  Elec       q    Type
REMARK                         _______ _______ _______ _____ _____    ______ ____
ROOT
ATOM      1  C   UNL     1       4.670   3.679  16.770  0.00  0.00    +0.000 C 
ATOM      2  C   UNL     1       3.564   4.335  17.599  0.00  0.00    +0.000 C 
ATOM      3  C   UNL     1       2.237   3.893  17.038  0.00  0.00    +0.000 C 
ATOM      4  C   UNL     1       3.801   5.241  18.596  0.00  0.00    +0.000 C 
ENDROOT
BRANCH   4   5
ATOM      5  C   UNL     1       5.176   5.832  18.497  0.00  0.00    +0.000 A 
ATOM      6  C   UNL     1       5.453   6.757  17.470  0.00  0.00    +0.000 A 
ATOM      7  C   UNL     1       6.744   7.238  17.269  0.00  0.00    +0.000 A 
ATOM      8  C   UNL     1       7.791   6.764  18.060  0.00  0.00    +0.000 A 
ATOM      9  C   UNL     1       7.532   5.835  19.072  0.00  0.00    +0.000 A 
ATOM     10  C   UNL     1       6.228   5.385  19.307  0.00  0.00    +0.000 A 
ENDBRANCH   4   5
BRANCH   4  11
ATOM     11  N   UNL     1       2.921   5.752  19.600  0.00  0.00    +0.000 N 
ATOM     12  C   UNL     1       2.355   7.082  19.461  0.00  0.00    +0.000 C 
ATOM     13  O   UNL     1       2.457   7.783  18.456  0.00  0.00    +0.000 OA
BRANCH  12  14
ATOM     14  C   UNL     1       1.507   7.605  20.636  0.00  0.00    +0.000 C 
ATOM     15 CL   UNL     1       0.882   9.252  20.338  0.00  0.00    +0.000 Cl
ENDBRANCH  12  14
BRANCH  11  16
ATOM     16  C   UNL     1       2.697   5.112  20.921  0.00  0.00    +0.000 C 
BRANCH  16  17
ATOM     17  C   UNL     1       1.944   3.799  21.158  0.00  0.00    +0.000 C 
ATOM     18  C   UNL     1       0.781   3.587  20.194  0.00  0.00    +0.000 C 
ATOM     19  C   UNL     1       2.894   2.593  21.096  0.00  0.00    +0.000 C 
ENDBRANCH  16  17
ENDBRANCH  11  16
ENDBRANCH   4  11
TORSDOF 5
ENDMDL
MODEL 3
REMARK VINA RESULT:      -6.9      1.030      1.330
REMARK  Name = 
REMARK  9 active torsions:
REMARK  status: ('A' for Active; 'I' for Inactive)
REMARK    1  A    between atoms: C_1  and  C_2
REMARK    2  A    between atoms: C_2  and  C_3
REMARK    3  A    between atoms: C_4  and  C_5
REMARK    4  A    between atoms: C_4  and  N_11
REMARK    5  A    between atoms: N_11  and  C_12
REMARK    6  A    between atoms: C_12  and  C_13
REMARK    7  A    between atoms: C_13  and  C_14
REMARK    8  A    between atoms: C_13  and  C_15
REMARK    9  A    between atoms: C_16  and  C_18
REMARK                            x       y       z     vdW  Elec       q    Type
REMARK                         _______ _______ _______ _____ _____    ______ ____
ROOT
ATOM      1  C   UNL     1       1.574   3.928  17.874  0.00  0.00    +0.000 C 
ATOM      2  C   UNL     1       3.098   3.985  17.761  0.00  0.00    +0.000 C 
ATOM      3  C   UNL     1       3.622   2.573  17.800  0.00  0.00    +0.000 C 
ATOM      4  C   UNL     1       3.813   5.152  17.741  0.00  0.00    +0.000 C 
ENDROOT
BRANCH   4   5
ATOM      5  C   UNL     1       3.011   6.306  18.265  0.00  0.00    +0.000 A 
ATOM      6  C   UNL     1       2.800   7.426  17.437  0.00  0.00    +0.000 A 
ATOM      7  C   UNL     1       2.165   8.567  17.923  0.00  0.00    +0.000 A 
ATOM      8  C   UNL     1       1.775   8.624  19.261  0.00  0.00    +0.000 A 
ATOM      9  C   UNL     1       1.993   7.525  20.097  0.00  0.00    +0.000 A 
ATOM     10  C   UNL     1       2.588   6.361  19.599  0.00  0.00    +0.000 A 
ENDBRANCH   4   5
BRANCH   4  11
ATOM     11  N   UNL     1       5.185   5.382  17.407  0.00  0.00    +0.000 N 
ATOM     12  C   UNL     1       6.160   5.604  18.460  0.00  0.00    +0.000 C 
ATOM     13  O   UNL     1       5.934   5.470  19.661  0.00  0.00    +0.000 OA
BRANCH  12  14
ATOM     14  C   UNL     1       7.593   5.956  18.018  0.00  0.00    +0.000 C 
ATOM     15 CL   UNL     1       7.844   7.720  17.879  0.00  0.00    +0.000 Cl
ENDBRANCH  12  14
BRANCH  11  16
ATOM     16  C   UNL     1       5.678   5.640  16.031  0.00  0.00    +0.000 C 
BRANCH  16  17
ATOM     17  C   UNL     1       6.196   4.577  15.057  0.00  0.00    +0.000 C 
ATOM     18  C   UNL     1       5.130   4.071  14.091  0.00  0.00    +0.000 C 
ATOM     19  C   UNL     1       7.409   5.092  14.265  0.00  0.00    +0.000 C 
ENDBRANCH  16  17
ENDBRANCH  11  16
ENDBRANCH   4  11
TORSDOF 5
ENDMDL
MODEL 4
REMARK VINA RESULT:      -6.8      1.100      1.805
REMARK  Name = 
REMARK  9 active torsions:
REMARK  status: ('A' for Active; 'I' for Inactive)
REMARK    1  A    between atoms: C_1  and  C_2
REMARK    2  A    between atoms: C_2  and  C_3
REMARK    3  A    between atoms: C_4  and  C_5
REMARK    4  A    between atoms: C_4  and  N_11
REMARK    5  A    between atoms: N_11  and  C_12
REMARK    6  A    between atoms: C_12  and  C_13
REMARK    7  A    between atoms: C_13  and  C_14
REMARK    8  A    between atoms: C_13  and  C_15
REMARK    9  A    between atoms: C_16  and  C_18
REMARK                            x       y       z     vdW  Elec       q    Type
REMARK                         _______ _______ _______ _____ _____    ______ ____
ROOT
ATOM      1  C   UNL     1       1.460   4.389  17.658  0.00  0.00    +0.000 C 
ATOM      2  C   UNL     1       2.984   4.273  17.604  0.00  0.00    +0.000 C 
ATOM      3  C   UNL     1       3.337   2.810  17.538  0.00  0.00    +0.000 C 
ATOM      4  C   UNL     1       3.829   5.343  17.710  0.00  0.00    +0.000 C 
ENDROOT
BRANCH   4   5
ATOM      5  C   UNL     1       3.144   6.538  18.304  0.00  0.00    +0.000 A 
ATOM      6  C   UNL     1       2.670   6.469  19.629  0.00  0.00    +0.000 A 
ATOM      7  C   UNL     1       1.925   7.510  20.178  0.00  0.00    +0.000 A 
ATOM      8  C   UNL     1       1.599   8.616  19.394  0.00  0.00    +0.000 A 
ATOM      9  C   UNL     1       2.050   8.690  18.073  0.00  0.00    +0.000 A 
ATOM     10  C   UNL     1       2.838   7.668  17.533  0.00  0.00    +0.000 A 
ENDBRANCH   4   5
BRANCH   4  11
ATOM     11  N   UNL     1       5.232   5.435  17.446  0.00  0.00    +0.000 N 
ATOM     12  C   UNL     1       6.175   5.503  18.548  0.00  0.00    +0.000 C 
ATOM     13  O   UNL     1       5.880   5.345  19.731  0.00  0.00    +0.000 OA
BRANCH  12  14
ATOM     14  C   UNL     1       7.657   5.713  18.185  0.00  0.00    +0.000 C 
ATOM     15 CL   UNL     1       8.178   7.406  18.418  0.00  0.00    +0.000 Cl
ENDBRANCH  12  14
BRANCH  11  16
ATOM     16  C   UNL     1       5.816   5.694  16.105  0.00  0.00    +0.000 C 
BRANCH  16  17
ATOM     17  C   UNL     1       6.295   4.623  15.121  0.00  0.00    +0.000 C 
ATOM     18  C   UNL     1       5.207   4.155  14.160  0.00  0.00    +0.000 C 
ATOM     19  C   UNL     1       7.516   5.108  14.323  0.00  0.00    +0.000 C 
ENDBRANCH  16  17
ENDBRANCH  11  16
ENDBRANCH   4  11
TORSDOF 5
ENDMDL
MODEL 5
REMARK VINA RESULT:      -6.8      2.649      4.905
REMARK  Name = 
REMARK  9 active torsions:
REMARK  status: ('A' for Active; 'I' for Inactive)
REMARK    1  A    between atoms: C_1  and  C_2
REMARK    2  A    between atoms: C_2  and  C_3
REMARK    3  A    between atoms: C_4  and  C_5
REMARK    4  A    between atoms: C_4  and  N_11
REMARK    5  A    between atoms: N_11  and  C_12
REMARK    6  A    between atoms: C_12  and  C_13
REMARK    7  A    between atoms: C_13  and  C_14
REMARK    8  A    between atoms: C_13  and  C_15
REMARK    9  A    between atoms: C_16  and  C_18
REMARK                            x       y       z     vdW  Elec       q    Type
REMARK                         _______ _______ _______ _____ _____    ______ ____
ROOT
ATOM      1  C   UNL     1       5.315   3.716  16.187  0.00  0.00    +0.000 C 
ATOM      2  C   UNL     1       4.144   3.959  17.141  0.00  0.00    +0.000 C 
ATOM      3  C   UNL     1       2.908   3.361  16.524  0.00  0.00    +0.000 C 
ATOM      4  C   UNL     1       4.245   4.694  18.291  0.00  0.00    +0.000 C 
ENDROOT
BRANCH   4   5
ATOM      5  C   UNL     1       5.464   5.568  18.289  0.00  0.00    +0.000 A 
ATOM      6  C   UNL     1       5.535   6.644  17.381  0.00  0.00    +0.000 A 
ATOM      7  C   UNL     1       6.694   7.406  17.264  0.00  0.00    +0.000 A 
ATOM      8  C   UNL     1       7.820   7.074  18.018  0.00  0.00    +0.000 A 
ATOM      9  C   UNL     1       7.768   6.000  18.911  0.00  0.00    +0.000 A 
ATOM     10  C   UNL     1       6.589   5.261  19.065  0.00  0.00    +0.000 A 
ENDBRANCH   4   5
BRANCH   4  11
ATOM     11  N   UNL     1       3.334   4.813  19.387  0.00  0.00    +0.000 N 
ATOM     12  C   UNL     1       3.276   3.775  20.400  0.00  0.00    +0.000 C 
ATOM     13  O   UNL     1       4.063   2.833  20.481  0.00  0.00    +0.000 OA
BRANCH  12  14
ATOM     14  C   UNL     1       2.193   3.919  21.486  0.00  0.00    +0.000 C 
ATOM     15 CL   UNL     1       1.263   2.411  21.719  0.00  0.00    +0.000 Cl
ENDBRANCH  12  14
BRANCH  11  16
ATOM     16  C   UNL     1       2.254   5.829  19.469  0.00  0.00    +0.000 C 
BRANCH  16  17
ATOM     17  C   UNL     1       2.457   7.347  19.470  0.00  0.00    +0.000 C 
ATOM     18  C   UNL     1       2.224   7.989  18.106  0.00  0.00    +0.000 C 
ATOM     19  C   UNL     1       1.565   8.028  20.520  0.00  0.00    +0.000 C 
ENDBRANCH  16  17
ENDBRANCH  11  16
ENDBRANCH   4  11
TORSDOF 5
ENDMDL
MODEL 6
REMARK VINA RESULT:      -6.7      2.224      4.356
REMARK  Name = 
REMARK  9 active torsions:
REMARK  status: ('A' for Active; 'I' for Inactive)
REMARK    1  A    between atoms: C_1  and  C_2
REMARK    2  A    between atoms: C_2  and  C_3
REMARK    3  A    between atoms: C_4  and  C_5
REMARK    4  A    between atoms: C_4  and  N_11
REMARK    5  A    between atoms: N_11  and  C_12
REMARK    6  A    between atoms: C_12  and  C_13
REMARK    7  A    between atoms: C_13  and  C_14
REMARK    8  A    between atoms: C_13  and  C_15
REMARK    9  A    between atoms: C_16  and  C_18
REMARK                            x       y       z     vdW  Elec       q    Type
REMARK                         _______ _______ _______ _____ _____    ______ ____
ROOT
ATOM      1  C   UNL     1       2.819   6.397  18.867  0.00  0.00    +0.000 C 
ATOM      2  C   UNL     1       3.913   6.378  17.799  0.00  0.00    +0.000 C 
ATOM      3  C   UNL     1       3.915   7.718  17.111  0.00  0.00    +0.000 C 
ATOM      4  C   UNL     1       4.655   5.270  17.495  0.00  0.00    +0.000 C 
ENDROOT
BRANCH   4   5
ATOM      5  C   UNL     1       4.008   4.011  17.991  0.00  0.00    +0.000 A 
ATOM      6  C   UNL     1       4.506   3.397  19.157  0.00  0.00    +0.000 A 
ATOM      7  C   UNL     1       4.013   2.166  19.585  0.00  0.00    +0.000 A 
ATOM      8  C   UNL     1       3.048   1.506  18.826  0.00  0.00    +0.000 A 
ATOM      9  C   UNL     1       2.556   2.097  17.658  0.00  0.00    +0.000 A 
ATOM     10  C   UNL     1       3.016   3.354  17.251  0.00  0.00    +0.000 A 
ENDBRANCH   4   5
BRANCH   4  11
ATOM     11  N   UNL     1       5.848   5.149  16.713  0.00  0.00    +0.000 N 
ATOM     12  C   UNL     1       5.757   4.947  15.279  0.00  0.00    +0.000 C 
ATOM     13  O   UNL     1       4.715   5.010  14.629  0.00  0.00    +0.000 OA
BRANCH  12  14
ATOM     14  C   UNL     1       7.079   4.714  14.523  0.00  0.00    +0.000 C 
ATOM     15 CL   UNL     1       6.820   3.977  12.917  0.00  0.00    +0.000 Cl
ENDBRANCH  12  14
BRANCH  11  16
ATOM     16  C   UNL     1       7.209   4.989  17.284  0.00  0.00    +0.000 C 
BRANCH  16  17
ATOM     17  C   UNL     1       7.914   5.993  18.201  0.00  0.00    +0.000 C 
ATOM     18  C   UNL     1       7.613   7.447  17.850  0.00  0.00    +0.000 C 
ATOM     19  C   UNL     1       7.572   5.736  19.677  0.00  0.00    +0.000 C 
ENDBRANCH  16  17
ENDBRANCH  11  16
ENDBRANCH   4  11
TORSDOF 5
ENDMDL
MODEL 7
REMARK VINA RESULT:      -6.7      2.171      4.065
REMARK  Name = 
REMARK  9 active torsions:
REMARK  status: ('A' for Active; 'I' for Inactive)
REMARK    1  A    between atoms: C_1  and  C_2
REMARK    2  A    between atoms: C_2  and  C_3
REMARK    3  A    between atoms: C_4  and  C_5
REMARK    4  A    between atoms: C_4  and  N_11
REMARK    5  A    between atoms: N_11  and  C_12
REMARK    6  A    between atoms: C_12  and  C_13
REMARK    7  A    between atoms: C_13  and  C_14
REMARK    8  A    between atoms: C_13  and  C_15
REMARK    9  A    between atoms: C_16  and  C_18
REMARK                            x       y       z     vdW  Elec       q    Type
REMARK                         _______ _______ _______ _____ _____    ______ ____
ROOT
ATOM      1  C   UNL     1       2.704   6.517  19.039  0.00  0.00    +0.000 C 
ATOM      2  C   UNL     1       3.783   6.327  17.972  0.00  0.00    +0.000 C 
ATOM      3  C   UNL     1       3.908   7.615  17.201  0.00  0.00    +0.000 C 
ATOM      4  C   UNL     1       4.414   5.136  17.738  0.00  0.00    +0.000 C 
ENDROOT
BRANCH   4   5
ATOM      5  C   UNL     1       3.653   3.979  18.313  0.00  0.00    +0.000 A 
ATOM      6  C   UNL     1       2.490   3.528  17.656  0.00  0.00    +0.000 A 
ATOM      7  C   UNL     1       1.689   2.537  18.218  0.00  0.00    +0.000 A 
ATOM      8  C   UNL     1       2.011   2.015  19.471  0.00  0.00    +0.000 A 
ATOM      9  C   UNL     1       3.153   2.464  20.140  0.00  0.00    +0.000 A 
ATOM     10  C   UNL     1       3.985   3.426  19.557  0.00  0.00    +0.000 A 
ENDBRANCH   4   5
BRANCH   4  11
ATOM     11  N   UNL     1       5.584   4.853  16.964  0.00  0.00    +0.000 N 
ATOM     12  C   UNL     1       5.459   4.518  15.557  0.00  0.00    +0.000 C 
ATOM     13  O   UNL     1       4.415   4.591  14.911  0.00  0.00    +0.000 OA
BRANCH  12  14
ATOM     14  C   UNL     1       6.751   4.117  14.819  0.00  0.00    +0.000 C 
ATOM     15 CL   UNL     1       6.466   3.789  13.086  0.00  0.00    +0.000 Cl
ENDBRANCH  12  14
BRANCH  11  16
ATOM     16  C   UNL     1       6.938   4.653  17.538  0.00  0.00    +0.000 C 
BRANCH  16  17
ATOM     17  C   UNL     1       7.786   5.733  18.217  0.00  0.00    +0.000 C 
ATOM     18  C   UNL     1       7.540   7.132  17.662  0.00  0.00    +0.000 C 
ATOM     19  C   UNL     1       7.571   5.734  19.739  0.00  0.00    +0.000 C 
ENDBRANCH  16  17
ENDBRANCH  11  16
ENDBRANCH   4  11
TORSDOF 5
ENDMDL
MODEL 8
REMARK VINA RESULT:      -6.6      2.554      5.175
REMARK  Name = 
REMARK  9 active torsions:
REMARK  status: ('A' for Active; 'I' for Inactive)
REMARK    1  A    between atoms: C_1  and  C_2
REMARK    2  A    between atoms: C_2  and  C_3
REMARK    3  A    between atoms: C_4  and  C_5
REMARK    4  A    between atoms: C_4  and  N_11
REMARK    5  A    between atoms: N_11  and  C_12
REMARK    6  A    between atoms: C_12  and  C_13
REMARK    7  A    between atoms: C_13  and  C_14
REMARK    8  A    between atoms: C_13  and  C_15
REMARK    9  A    between atoms: C_16  and  C_18
REMARK                            x       y       z     vdW  Elec       q    Type
REMARK                         _______ _______ _______ _____ _____    ______ ____
ROOT
ATOM      1  C   UNL     1       5.122   3.557  16.365  0.00  0.00    +0.000 C 
ATOM      2  C   UNL     1       3.977   4.134  17.199  0.00  0.00    +0.000 C 
ATOM      3  C   UNL     1       2.680   3.652  16.605  0.00  0.00    +0.000 C 
ATOM      4  C   UNL     1       4.161   5.015  18.229  0.00  0.00    +0.000 C 
ENDROOT
BRANCH   4   5
ATOM      5  C   UNL     1       5.508   5.670  18.170  0.00  0.00    +0.000 A 
ATOM      6  C   UNL     1       6.477   5.336  19.137  0.00  0.00    +0.000 A 
ATOM      7  C   UNL     1       7.696   6.006  19.191  0.00  0.00    +0.000 A 
ATOM      8  C   UNL     1       7.948   7.057  18.308  0.00  0.00    +0.000 A 
ATOM      9  C   UNL     1       6.989   7.409  17.354  0.00  0.00    +0.000 A 
ATOM     10  C   UNL     1       5.782   6.707  17.268  0.00  0.00    +0.000 A 
ENDBRANCH   4   5
BRANCH   4  11
ATOM     11  N   UNL     1       3.244   5.452  19.237  0.00  0.00    +0.000 N 
ATOM     12  C   UNL     1       2.713   6.803  19.199  0.00  0.00    +0.000 C 
ATOM     13  O   UNL     1       2.877   7.592  18.270  0.00  0.00    +0.000 OA
BRANCH  12  14
ATOM     14  C   UNL     1       1.822   7.235  20.379  0.00  0.00    +0.000 C 
ATOM     15 CL   UNL     1       1.199   8.898  20.182  0.00  0.00    +0.000 Cl
ENDBRANCH  12  14
BRANCH  11  16
ATOM     16  C   UNL     1       2.947   4.697  20.480  0.00  0.00    +0.000 C 
BRANCH  16  17
ATOM     17  C   UNL     1       2.198   3.362  20.554  0.00  0.00    +0.000 C 
ATOM     18  C   UNL     1       2.005   2.855  21.979  0.00  0.00    +0.000 C 
ATOM     19  C   UNL     1       0.836   3.449  19.847  0.00  0.00    +0.000 C 
ENDBRANCH  16  17
ENDBRANCH  11  16
ENDBRANCH   4  11
TORSDOF 5
ENDMDL
MODEL 9
REMARK VINA RESULT:      -6.6      2.119      3.848
REMARK  Name = 
REMARK  9 active torsions:
REMARK  status: ('A' for Active; 'I' for Inactive)
REMARK    1  A    between atoms: C_1  and  C_2
REMARK    2  A    between atoms: C_2  and  C_3
REMARK    3  A    between atoms: C_4  and  C_5
REMARK    4  A    between atoms: C_4  and  N_11
REMARK    5  A    between atoms: N_11  and  C_12
REMARK    6  A    between atoms: C_12  and  C_13
REMARK    7  A    between atoms: C_13  and  C_14
REMARK    8  A    between atoms: C_13  and  C_15
REMARK    9  A    between atoms: C_16  and  C_18
REMARK                            x       y       z     vdW  Elec       q    Type
REMARK                         _______ _______ _______ _____ _____    ______ ____
ROOT
ATOM      1  C   UNL     1       2.012   7.054  19.857  0.00  0.00    +0.000 C 
ATOM      2  C   UNL     1       3.026   6.609  18.803  0.00  0.00    +0.000 C 
ATOM      3  C   UNL     1       3.190   7.731  17.811  0.00  0.00    +0.000 C 
ATOM      4  C   UNL     1       3.575   5.356  18.761  0.00  0.00    +0.000 C 
ENDROOT
BRANCH   4   5
ATOM      5  C   UNL     1       2.775   4.370  19.559  0.00  0.00    +0.000 A 
ATOM      6  C   UNL     1       1.536   3.926  19.057  0.00  0.00    +0.000 A 
ATOM      7  C   UNL     1       0.707   3.105  19.819  0.00  0.00    +0.000 A 
ATOM      8  C   UNL     1       1.083   2.755  21.116  0.00  0.00    +0.000 A 
ATOM      9  C   UNL     1       2.303   3.203  21.632  0.00  0.00    +0.000 A 
ATOM     10  C   UNL     1       3.158   3.989  20.852  0.00  0.00    +0.000 A 
ENDBRANCH   4   5
BRANCH   4  11
ATOM     11  N   UNL     1       4.687   4.866  18.007  0.00  0.00    +0.000 N 
ATOM     12  C   UNL     1       4.463   4.123  16.781  0.00  0.00    +0.000 C 
ATOM     13  O   UNL     1       3.368   3.988  16.236  0.00  0.00    +0.000 OA
BRANCH  12  14
ATOM     14  C   UNL     1       5.704   3.532  16.086  0.00  0.00    +0.000 C 
ATOM     15 CL   UNL     1       5.897   4.137  14.416  0.00  0.00    +0.000 Cl
ENDBRANCH  12  14
BRANCH  11  16
ATOM     16  C   UNL     1       6.090   4.860  18.495  0.00  0.00    +0.000 C 
BRANCH  16  17
ATOM     17  C   UNL     1       6.985   6.094  18.647  0.00  0.00    +0.000 C 
ATOM     18  C   UNL     1       8.274   5.815  19.413  0.00  0.00    +0.000 C 
ATOM     19  C   UNL     1       7.320   6.709  17.278  0.00  0.00    +0.000 C 
ENDBRANCH  16  17
ENDBRANCH  11  16
ENDBRANCH   4  11
TORSDOF 5
ENDMDL
