MODEL 1
REMARK VINA RESULT:      -8.8      0.000      0.000
REMARK  Name = 
REMARK  6 active torsions:
REMARK  status: ('A' for Active; 'I' for Inactive)
REMARK    1  A    between atoms: C_2  and  C_3
REMARK    2  A    between atoms: C_3  and  C_4
REMARK    3  A    between atoms: C_4  and  C_5
REMARK    4  A    between atoms: C_5  and  O_6
REMARK    5  A    between atoms: O_6  and  C_7
REMARK    6  A    between atoms: C_14  and  O_15
REMARK                            x       y       z     vdW  Elec       q    Type
REMARK                         _______ _______ _______ _____ _____    ______ ____
ROOT
ATOM      1  C   UNL     1       7.418   6.981  17.683  0.00  0.00    +0.000 A 
ATOM      2  C   UNL     1       7.893   6.350  18.835  0.00  0.00    +0.000 A 
ATOM      3  C   UNL     1       7.235   5.228  19.357  0.00  0.00    +0.000 A 
ATOM      4  C   UNL     1       6.088   4.735  18.734  0.00  0.00    +0.000 A 
ATOM      5  N   UNL     1       5.380   3.648  19.281  0.00  0.00    +0.000 N 
ATOM      6  C   UNL     1       4.204   3.268  18.703  0.00  0.00    +0.000 A 
ATOM      7  N   UNL     1       3.343   2.364  19.082  0.00  0.00    +0.000 NA
ATOM      8  C   UNL     1       2.382   2.454  18.103  0.00  0.00    +0.000 A 
ATOM      9  N   UNL     1       2.522   3.293  17.127  0.00  0.00    +0.000 NA
ATOM     10  C   UNL     1       3.699   3.888  17.458  0.00  0.00    +0.000 A 
ATOM     11  C   UNL     1       4.382   4.883  16.893  0.00  0.00    +0.000 A 
ATOM     12  C   UNL     1       5.610   5.370  17.556  0.00  0.00    +0.000 A 
ATOM     13  C   UNL     1       6.279   6.486  17.046  0.00  0.00    +0.000 A 
ATOM     14  H   UNL     1       5.702   3.196  20.122  0.00  0.00    +0.000 HD
ENDROOT
BRANCH   8  15
ATOM     15  O   UNL     1       1.347   1.635  18.274  0.00  0.00    +0.000 OA
ATOM     16  H   UNL     1       1.206   1.557  19.231  0.00  0.00    +0.000 HD
ENDBRANCH   8  15
BRANCH   1  17
ATOM     17  O   UNL     1       7.941   8.116  17.120  0.00  0.00    +0.000 OA
BRANCH  17  18
ATOM     18  C   UNL     1       7.707   9.339  17.817  0.00  0.00    +0.000 C 
BRANCH  18  19
ATOM     19  C   UNL     1       8.968   9.733  18.586  0.00  0.00    +0.000 C 
BRANCH  19  20
ATOM     20  C   UNL     1       9.660  10.992  18.052  0.00  0.00    +0.000 C 
BRANCH  20  22
ATOM     21  O   UNL     1      10.509  11.396  20.267  0.00  0.00    +0.000 OA
ATOM     22  C   UNL     1      10.542  11.697  19.073  0.00  0.00    +0.000 C 
ATOM     23  N   UNL     1      11.372  12.696  18.599  0.00  0.00    +0.000 N 
ATOM     24  C   UNL     1      11.562  13.075  17.195  0.00  0.00    +0.000 C 
ATOM     25  C   UNL     1      11.342  14.587  17.005  0.00  0.00    +0.000 C 
ATOM     26  N   UNL     1      12.171  15.402  17.911  0.00  0.00    +0.000 NA
ATOM     27  C   UNL     1      11.939  14.993  19.311  0.00  0.00    +0.000 C 
ATOM     28  C   UNL     1      12.170  13.488  19.538  0.00  0.00    +0.000 C 
ATOM     29  H   UNL     1      11.917  16.383  17.806  0.00  0.00    +0.000 HD
ENDBRANCH  20  22
ENDBRANCH  19  20
ENDBRANCH  18  19
ENDBRANCH  17  18
ENDBRANCH   1  17
TORSDOF 6
ENDMDL
MODEL 2
REMARK VINA RESULT:      -8.6      1.056      1.258
REMARK  Name = 
REMARK  6 active torsions:
REMARK  status: ('A' for Active; 'I' for Inactive)
REMARK    1  A    between atoms: C_2  and  C_3
REMARK    2  A    between atoms: C_3  and  C_4
REMARK    3  A    between atoms: C_4  and  C_5
REMARK    4  A    between atoms: C_5  and  O_6
REMARK    5  A    between atoms: O_6  and  C_7
REMARK    6  A    between atoms: C_14  and  O_15
REMARK                            x       y       z     vdW  Elec       q    Type
REMARK                         _______ _______ _______ _____ _____    ______ ____
ROOT
ATOM      1  C   UNL     1       7.217   7.319  17.786  0.00  0.00    +0.000 A 
ATOM      2  C   UNL     1       7.888   6.458  18.657  0.00  0.00    +0.000 A 
ATOM      3  C   UNL     1       7.345   5.209  18.984  0.00  0.00    +0.000 A 
ATOM      4  C   UNL     1       6.118   4.815  18.451  0.00  0.00    +0.000 A 
ATOM      5  N   UNL     1       5.530   3.590  18.819  0.00  0.00    +0.000 N 
ATOM      6  C   UNL     1       4.280   3.294  18.359  0.00  0.00    +0.000 A 
ATOM      7  N   UNL     1       3.509   2.278  18.637  0.00  0.00    +0.000 NA
ATOM      8  C   UNL     1       2.396   2.545  17.875  0.00  0.00    +0.000 A 
ATOM      9  N   UNL     1       2.356   3.600  17.126  0.00  0.00    +0.000 NA
ATOM     10  C   UNL     1       3.563   4.164  17.402  0.00  0.00    +0.000 A 
ATOM     11  C   UNL     1       4.126   5.303  16.997  0.00  0.00    +0.000 A 
ATOM     12  C   UNL     1       5.439   5.685  17.556  0.00  0.00    +0.000 A 
ATOM     13  C   UNL     1       5.995   6.927  17.235  0.00  0.00    +0.000 A 
ATOM     14  H   UNL     1       5.995   2.969  19.461  0.00  0.00    +0.000 HD
ENDROOT
BRANCH   8  15
ATOM     15  O   UNL     1       1.418   1.652  18.003  0.00  0.00    +0.000 OA
ATOM     16  H   UNL     1       0.797   1.809  17.274  0.00  0.00    +0.000 HD
ENDBRANCH   8  15
BRANCH   1  17
ATOM     17  O   UNL     1       7.619   8.583  17.442  0.00  0.00    +0.000 OA
BRANCH  17  18
ATOM     18  C   UNL     1       8.591   9.194  18.290  0.00  0.00    +0.000 C 
BRANCH  18  19
ATOM     19  C   UNL     1       8.628  10.698  18.017  0.00  0.00    +0.000 C 
BRANCH  19  20
ATOM     20  C   UNL     1       9.564  11.480  18.945  0.00  0.00    +0.000 C 
BRANCH  20  22
ATOM     21  O   UNL     1       8.301  13.518  19.154  0.00  0.00    +0.000 OA
ATOM     22  C   UNL     1       9.380  12.990  18.882  0.00  0.00    +0.000 C 
ATOM     23  N   UNL     1      10.477  13.738  18.494  0.00  0.00    +0.000 N 
ATOM     24  C   UNL     1      11.828  13.230  18.237  0.00  0.00    +0.000 C 
ATOM     25  C   UNL     1      12.325  13.682  16.850  0.00  0.00    +0.000 C 
ATOM     26  N   UNL     1      12.241  15.140  16.662  0.00  0.00    +0.000 NA
ATOM     27  C   UNL     1      10.863  15.604  16.921  0.00  0.00    +0.000 C 
ATOM     28  C   UNL     1      10.344  15.185  18.309  0.00  0.00    +0.000 C 
ATOM     29  H   UNL     1      12.492  15.370  15.702  0.00  0.00    +0.000 HD
ENDBRANCH  20  22
ENDBRANCH  19  20
ENDBRANCH  18  19
ENDBRANCH  17  18
ENDBRANCH   1  17
TORSDOF 6
ENDMDL
MODEL 3
REMARK VINA RESULT:      -8.6      1.444      1.533
REMARK  Name = 
REMARK  6 active torsions:
REMARK  status: ('A' for Active; 'I' for Inactive)
REMARK    1  A    between atoms: C_2  and  C_3
REMARK    2  A    between atoms: C_3  and  C_4
REMARK    3  A    between atoms: C_4  and  C_5
REMARK    4  A    between atoms: C_5  and  O_6
REMARK    5  A    between atoms: O_6  and  C_7
REMARK    6  A    between atoms: C_14  and  O_15
REMARK                            x       y       z     vdW  Elec       q    Type
REMARK                         _______ _______ _______ _____ _____    ______ ____
ROOT
ATOM      1  C   UNL     1       6.651   6.938  17.087  0.00  0.00    +0.000 A 
ATOM      2  C   UNL     1       7.371   5.776  16.798  0.00  0.00    +0.000 A 
ATOM      3  C   UNL     1       6.746   4.523  16.826  0.00  0.00    +0.000 A 
ATOM      4  C   UNL     1       5.394   4.420  17.155  0.00  0.00    +0.000 A 
ATOM      5  N   UNL     1       4.768   3.163  17.249  0.00  0.00    +0.000 N 
ATOM      6  C   UNL     1       3.475   3.101  17.680  0.00  0.00    +0.000 A 
ATOM      7  N   UNL     1       2.729   2.060  17.930  0.00  0.00    +0.000 NA
ATOM      8  C   UNL     1       1.548   2.641  18.327  0.00  0.00    +0.000 A 
ATOM      9  N   UNL     1       1.430   3.930  18.350  0.00  0.00    +0.000 NA
ATOM     10  C   UNL     1       2.673   4.314  17.951  0.00  0.00    +0.000 A 
ATOM     11  C   UNL     1       3.231   5.517  17.816  0.00  0.00    +0.000 A 
ATOM     12  C   UNL     1       4.657   5.601  17.438  0.00  0.00    +0.000 A 
ATOM     13  C   UNL     1       5.294   6.845  17.403  0.00  0.00    +0.000 A 
ATOM     14  H   UNL     1       5.281   2.317  17.061  0.00  0.00    +0.000 HD
ENDROOT
BRANCH   8  15
ATOM     15  O   UNL     1       0.601   1.774  18.677  0.00  0.00    +0.000 OA
ATOM     16  H   UNL     1      -0.214   2.051  18.229  0.00  0.00    +0.000 HD
ENDBRANCH   8  15
BRANCH   1  17
ATOM     17  O   UNL     1       7.168   8.205  17.150  0.00  0.00    +0.000 OA
BRANCH  17  18
ATOM     18  C   UNL     1       8.243   8.409  18.066  0.00  0.00    +0.000 C 
BRANCH  18  19
ATOM     19  C   UNL     1       8.514   9.908  18.203  0.00  0.00    +0.000 C 
BRANCH  19  20
ATOM     20  C   UNL     1       9.570  10.260  19.256  0.00  0.00    +0.000 C 
BRANCH  20  22
ATOM     21  O   UNL     1       8.806  12.065  20.652  0.00  0.00    +0.000 OA
ATOM     22  C   UNL     1       9.526  11.710  19.718  0.00  0.00    +0.000 C 
ATOM     23  N   UNL     1      10.323  12.609  19.033  0.00  0.00    +0.000 N 
ATOM     24  C   UNL     1      11.283  12.286  17.972  0.00  0.00    +0.000 C 
ATOM     25  C   UNL     1      11.019  13.144  16.720  0.00  0.00    +0.000 C 
ATOM     26  N   UNL     1      10.990  14.588  17.015  0.00  0.00    +0.000 NA
ATOM     27  C   UNL     1      10.004  14.866  18.079  0.00  0.00    +0.000 C 
ATOM     28  C   UNL     1      10.252  14.036  19.352  0.00  0.00    +0.000 C 
ATOM     29  H   UNL     1      10.721  15.096  16.174  0.00  0.00    +0.000 HD
ENDBRANCH  20  22
ENDBRANCH  19  20
ENDBRANCH  18  19
ENDBRANCH  17  18
ENDBRANCH   1  17
TORSDOF 6
ENDMDL
MODEL 4
REMARK VINA RESULT:      -8.5      1.015      1.133
REMARK  Name = 
REMARK  6 active torsions:
REMARK  status: ('A' for Active; 'I' for Inactive)
REMARK    1  A    between atoms: C_2  and  C_3
REMARK    2  A    between atoms: C_3  and  C_4
REMARK    3  A    between atoms: C_4  and  C_5
REMARK    4  A    between atoms: C_5  and  O_6
REMARK    5  A    between atoms: O_6  and  C_7
REMARK    6  A    between atoms: C_14  and  O_15
REMARK                            x       y       z     vdW  Elec       q    Type
REMARK                         _______ _______ _______ _____ _____    ______ ____
ROOT
ATOM      1  C   UNL     1       7.436   7.033  17.662  0.00  0.00    +0.000 A 
ATOM      2  C   UNL     1       7.912   6.362  18.791  0.00  0.00    +0.000 A 
ATOM      3  C   UNL     1       7.247   5.232  19.283  0.00  0.00    +0.000 A 
ATOM      4  C   UNL     1       6.091   4.769  18.655  0.00  0.00    +0.000 A 
ATOM      5  N   UNL     1       5.376   3.673  19.174  0.00  0.00    +0.000 N 
ATOM      6  C   UNL     1       4.193   3.322  18.593  0.00  0.00    +0.000 A 
ATOM      7  N   UNL     1       3.325   2.416  18.951  0.00  0.00    +0.000 NA
ATOM      8  C   UNL     1       2.359   2.544  17.982  0.00  0.00    +0.000 A 
ATOM      9  N   UNL     1       2.500   3.411  17.030  0.00  0.00    +0.000 NA
ATOM     10  C   UNL     1       3.685   3.984  17.371  0.00  0.00    +0.000 A 
ATOM     11  C   UNL     1       4.375   4.989  16.831  0.00  0.00    +0.000 A 
ATOM     12  C   UNL     1       5.612   5.444  17.500  0.00  0.00    +0.000 A 
ATOM     13  C   UNL     1       6.288   6.568  17.018  0.00  0.00    +0.000 A 
ATOM     14  H   UNL     1       5.699   3.193  19.998  0.00  0.00    +0.000 HD
ENDROOT
BRANCH   8  15
ATOM     15  O   UNL     1       1.316   1.731  18.136  0.00  0.00    +0.000 OA
ATOM     16  H   UNL     1       0.530   2.225  17.856  0.00  0.00    +0.000 HD
ENDBRANCH   8  15
BRANCH   1  17
ATOM     17  O   UNL     1       7.967   8.179  17.129  0.00  0.00    +0.000 OA
BRANCH  17  18
ATOM     18  C   UNL     1       7.699   9.391  17.833  0.00  0.00    +0.000 C 
BRANCH  18  19
ATOM     19  C   UNL     1       9.020  10.037  18.250  0.00  0.00    +0.000 C 
BRANCH  19  20
ATOM     20  C   UNL     1       9.051  11.561  18.091  0.00  0.00    +0.000 C 
BRANCH  20  22
ATOM     21  O   UNL     1      11.448  11.428  17.923  0.00  0.00    +0.000 OA
ATOM     22  C   UNL     1      10.453  12.149  18.015  0.00  0.00    +0.000 C 
ATOM     23  N   UNL     1      10.557  13.527  18.067  0.00  0.00    +0.000 N 
ATOM     24  C   UNL     1       9.445  14.482  18.084  0.00  0.00    +0.000 C 
ATOM     25  C   UNL     1       9.583  15.457  19.269  0.00  0.00    +0.000 C 
ATOM     26  N   UNL     1      10.890  16.136  19.298  0.00  0.00    +0.000 NA
ATOM     27  C   UNL     1      11.978  15.136  19.291  0.00  0.00    +0.000 C 
ATOM     28  C   UNL     1      11.878  14.157  18.106  0.00  0.00    +0.000 C 
ATOM     29  H   UNL     1      10.959  16.693  20.148  0.00  0.00    +0.000 HD
ENDBRANCH  20  22
ENDBRANCH  19  20
ENDBRANCH  18  19
ENDBRANCH  17  18
ENDBRANCH   1  17
TORSDOF 6
ENDMDL
MODEL 5
REMARK VINA RESULT:      -8.4      6.444      8.108
REMARK  Name = 
REMARK  6 active torsions:
REMARK  status: ('A' for Active; 'I' for Inactive)
REMARK    1  A    between atoms: C_2  and  C_3
REMARK    2  A    between atoms: C_3  and  C_4
REMARK    3  A    between atoms: C_4  and  C_5
REMARK    4  A    between atoms: C_5  and  O_6
REMARK    5  A    between atoms: O_6  and  C_7
REMARK    6  A    between atoms: C_14  and  O_15
REMARK                            x       y       z     vdW  Elec       q    Type
REMARK                         _______ _______ _______ _____ _____    ______ ____
ROOT
ATOM      1  C   UNL     1       2.139   5.926  20.182  0.00  0.00    +0.000 A 
ATOM      2  C   UNL     1       2.450   4.603  20.506  0.00  0.00    +0.000 A 
ATOM      3  C   UNL     1       3.366   3.876  19.735  0.00  0.00    +0.000 A 
ATOM      4  C   UNL     1       3.971   4.464  18.623  0.00  0.00    +0.000 A 
ATOM      5  N   UNL     1       4.845   3.726  17.802  0.00  0.00    +0.000 N 
ATOM      6  C   UNL     1       5.328   4.306  16.666  0.00  0.00    +0.000 A 
ATOM      7  N   UNL     1       6.066   3.795  15.719  0.00  0.00    +0.000 NA
ATOM      8  C   UNL     1       6.213   4.859  14.862  0.00  0.00    +0.000 A 
ATOM      9  N   UNL     1       5.676   6.003  15.144  0.00  0.00    +0.000 NA
ATOM     10  C   UNL     1       5.052   5.717  16.319  0.00  0.00    +0.000 A 
ATOM     11  C   UNL     1       4.271   6.450  17.112  0.00  0.00    +0.000 A 
ATOM     12  C   UNL     1       3.664   5.813  18.299  0.00  0.00    +0.000 A 
ATOM     13  C   UNL     1       2.751   6.527  19.080  0.00  0.00    +0.000 A 
ATOM     14  H   UNL     1       5.062   2.766  18.015  0.00  0.00    +0.000 HD
ENDROOT
BRANCH   8  15
ATOM     15  O   UNL     1       6.920   4.588  13.767  0.00  0.00    +0.000 OA
ATOM     16  H   UNL     1       7.759   5.069  13.848  0.00  0.00    +0.000 HD
ENDBRANCH   8  15
BRANCH   1  17
ATOM     17  O   UNL     1       1.218   6.711  20.823  0.00  0.00    +0.000 OA
BRANCH  17  18
ATOM     18  C   UNL     1       1.510   8.106  20.896  0.00  0.00    +0.000 C 
BRANCH  18  19
ATOM     19  C   UNL     1       0.688   8.738  22.019  0.00  0.00    +0.000 C 
BRANCH  19  20
ATOM     20  C   UNL     1      -0.237   9.870  21.558  0.00  0.00    +0.000 C 
BRANCH  20  22
ATOM     21  O   UNL     1       1.324  11.701  21.493  0.00  0.00    +0.000 OA
ATOM     22  C   UNL     1       0.488  11.030  20.887  0.00  0.00    +0.000 C 
ATOM     23  N   UNL     1       0.153  11.299  19.573  0.00  0.00    +0.000 N 
ATOM     24  C   UNL     1      -0.754  10.515  18.729  0.00  0.00    +0.000 C 
ATOM     25  C   UNL     1      -1.837  11.419  18.110  0.00  0.00    +0.000 C 
ATOM     26  N   UNL     1      -1.273  12.572  17.387  0.00  0.00    +0.000 NA
ATOM     27  C   UNL     1      -0.376  13.336  18.278  0.00  0.00    +0.000 C 
ATOM     28  C   UNL     1       0.731  12.464  18.898  0.00  0.00    +0.000 C 
ATOM     29  H   UNL     1      -2.031  13.180  17.081  0.00  0.00    +0.000 HD
ENDBRANCH  20  22
ENDBRANCH  19  20
ENDBRANCH  18  19
ENDBRANCH  17  18
ENDBRANCH   1  17
TORSDOF 6
ENDMDL
MODEL 6
REMARK VINA RESULT:      -8.4      1.549      1.822
REMARK  Name = 
REMARK  6 active torsions:
REMARK  status: ('A' for Active; 'I' for Inactive)
REMARK    1  A    between atoms: C_2  and  C_3
REMARK    2  A    between atoms: C_3  and  C_4
REMARK    3  A    between atoms: C_4  and  C_5
REMARK    4  A    between atoms: C_5  and  O_6
REMARK    5  A    between atoms: O_6  and  C_7
REMARK    6  A    between atoms: C_14  and  O_15
REMARK                            x       y       z     vdW  Elec       q    Type
REMARK                         _______ _______ _______ _____ _____    ______ ____
ROOT
ATOM      1  C   UNL     1       7.399   6.993  17.635  0.00  0.00    +0.000 A 
ATOM      2  C   UNL     1       7.905   6.348  18.767  0.00  0.00    +0.000 A 
ATOM      3  C   UNL     1       7.259   5.223  19.296  0.00  0.00    +0.000 A 
ATOM      4  C   UNL     1       6.092   4.740  18.702  0.00  0.00    +0.000 A 
ATOM      5  N   UNL     1       5.397   3.649  19.259  0.00  0.00    +0.000 N 
ATOM      6  C   UNL     1       4.204   3.279  18.710  0.00  0.00    +0.000 A 
ATOM      7  N   UNL     1       3.351   2.374  19.105  0.00  0.00    +0.000 NA
ATOM      8  C   UNL     1       2.363   2.477  18.155  0.00  0.00    +0.000 A 
ATOM      9  N   UNL     1       2.477   3.325  17.184  0.00  0.00    +0.000 NA
ATOM     10  C   UNL     1       3.665   3.913  17.487  0.00  0.00    +0.000 A 
ATOM     11  C   UNL     1       4.335   4.912  16.913  0.00  0.00    +0.000 A 
ATOM     12  C   UNL     1       5.583   5.388  17.545  0.00  0.00    +0.000 A 
ATOM     13  C   UNL     1       6.241   6.507  17.026  0.00  0.00    +0.000 A 
ATOM     14  H   UNL     1       5.741   3.188  20.085  0.00  0.00    +0.000 HD
ENDROOT
BRANCH   8  15
ATOM     15  O   UNL     1       1.330   1.659  18.349  0.00  0.00    +0.000 OA
ATOM     16  H   UNL     1       1.230   1.136  17.538  0.00  0.00    +0.000 HD
ENDBRANCH   8  15
BRANCH   1  17
ATOM     17  O   UNL     1       7.910   8.131  17.069  0.00  0.00    +0.000 OA
BRANCH  17  18
ATOM     18  C   UNL     1       7.639   9.357  17.748  0.00  0.00    +0.000 C 
BRANCH  18  19
ATOM     19  C   UNL     1       8.868   9.769  18.558  0.00  0.00    +0.000 C 
BRANCH  19  20
ATOM     20  C   UNL     1       9.600  10.996  18.005  0.00  0.00    +0.000 C 
BRANCH  20  22
ATOM     21  O   UNL     1       7.965  12.549  17.166  0.00  0.00    +0.000 OA
ATOM     22  C   UNL     1       8.781  12.279  18.048  0.00  0.00    +0.000 C 
ATOM     23  N   UNL     1       9.007  13.130  19.114  0.00  0.00    +0.000 N 
ATOM     24  C   UNL     1       9.881  12.872  20.262  0.00  0.00    +0.000 C 
ATOM     25  C   UNL     1      10.878  14.029  20.459  0.00  0.00    +0.000 C 
ATOM     26  N   UNL     1      10.215  15.341  20.558  0.00  0.00    +0.000 NA
ATOM     27  C   UNL     1       9.355  15.562  19.377  0.00  0.00    +0.000 C 
ATOM     28  C   UNL     1       8.333  14.430  19.164  0.00  0.00    +0.000 C 
ATOM     29  H   UNL     1      10.923  16.073  20.593  0.00  0.00    +0.000 HD
ENDBRANCH  20  22
ENDBRANCH  19  20
ENDBRANCH  18  19
ENDBRANCH  17  18
ENDBRANCH   1  17
TORSDOF 6
ENDMDL
MODEL 7
REMARK VINA RESULT:      -8.4      1.507      1.664
REMARK  Name = 
REMARK  6 active torsions:
REMARK  status: ('A' for Active; 'I' for Inactive)
REMARK    1  A    between atoms: C_2  and  C_3
REMARK    2  A    between atoms: C_3  and  C_4
REMARK    3  A    between atoms: C_4  and  C_5
REMARK    4  A    between atoms: C_5  and  O_6
REMARK    5  A    between atoms: O_6  and  C_7
REMARK    6  A    between atoms: C_14  and  O_15
REMARK                            x       y       z     vdW  Elec       q    Type
REMARK                         _______ _______ _______ _____ _____    ______ ____
ROOT
ATOM      1  C   UNL     1       6.728   6.800  17.566  0.00  0.00    +0.000 A 
ATOM      2  C   UNL     1       7.453   5.745  18.126  0.00  0.00    +0.000 A 
ATOM      3  C   UNL     1       6.821   4.537  18.450  0.00  0.00    +0.000 A 
ATOM      4  C   UNL     1       5.453   4.379  18.226  0.00  0.00    +0.000 A 
ATOM      5  N   UNL     1       4.792   3.195  18.604  0.00  0.00    +0.000 N 
ATOM      6  C   UNL     1       3.436   3.125  18.468  0.00  0.00    +0.000 A 
ATOM      7  N   UNL     1       2.611   2.182  18.830  0.00  0.00    +0.000 NA
ATOM      8  C   UNL     1       1.398   2.692  18.429  0.00  0.00    +0.000 A 
ATOM      9  N   UNL     1       1.337   3.841  17.838  0.00  0.00    +0.000 NA
ATOM     10  C   UNL     1       2.647   4.207  17.838  0.00  0.00    +0.000 A 
ATOM     11  C   UNL     1       3.262   5.314  17.424  0.00  0.00    +0.000 A 
ATOM     12  C   UNL     1       4.717   5.447  17.646  0.00  0.00    +0.000 A 
ATOM     13  C   UNL     1       5.362   6.645  17.325  0.00  0.00    +0.000 A 
ATOM     14  H   UNL     1       5.300   2.435  19.025  0.00  0.00    +0.000 HD
ENDROOT
BRANCH   8  15
ATOM     15  O   UNL     1       0.355   1.916  18.718  0.00  0.00    +0.000 OA
ATOM     16  H   UNL     1       0.202   1.352  17.943  0.00  0.00    +0.000 HD
ENDBRANCH   8  15
BRANCH   1  17
ATOM     17  O   UNL     1       7.225   8.041  17.267  0.00  0.00    +0.000 OA
BRANCH  17  18
ATOM     18  C   UNL     1       8.303   8.508  18.077  0.00  0.00    +0.000 C 
BRANCH  18  19
ATOM     19  C   UNL     1       8.525   9.998  17.815  0.00  0.00    +0.000 C 
BRANCH  19  20
ATOM     20  C   UNL     1       9.335  10.711  18.903  0.00  0.00    +0.000 C 
BRANCH  20  22
ATOM     21  O   UNL     1      11.554  11.536  18.474  0.00  0.00    +0.000 OA
ATOM     22  C   UNL     1      10.341  11.720  18.367  0.00  0.00    +0.000 C 
ATOM     23  N   UNL     1       9.829  12.856  17.768  0.00  0.00    +0.000 N 
ATOM     24  C   UNL     1       8.414  13.138  17.505  0.00  0.00    +0.000 C 
ATOM     25  C   UNL     1       8.016  14.511  18.079  0.00  0.00    +0.000 C 
ATOM     26  N   UNL     1       8.890  15.599  17.608  0.00  0.00    +0.000 NA
ATOM     27  C   UNL     1      10.301  15.278  17.903  0.00  0.00    +0.000 C 
ATOM     28  C   UNL     1      10.735  13.918  17.325  0.00  0.00    +0.000 C 
ATOM     29  H   UNL     1       8.640  16.462  18.089  0.00  0.00    +0.000 HD
ENDBRANCH  20  22
ENDBRANCH  19  20
ENDBRANCH  18  19
ENDBRANCH  17  18
ENDBRANCH   1  17
TORSDOF 6
ENDMDL
MODEL 8
REMARK VINA RESULT:      -8.4      1.195      1.245
REMARK  Name = 
REMARK  6 active torsions:
REMARK  status: ('A' for Active; 'I' for Inactive)
REMARK    1  A    between atoms: C_2  and  C_3
REMARK    2  A    between atoms: C_3  and  C_4
REMARK    3  A    between atoms: C_4  and  C_5
REMARK    4  A    between atoms: C_5  and  O_6
REMARK    5  A    between atoms: O_6  and  C_7
REMARK    6  A    between atoms: C_14  and  O_15
REMARK                            x       y       z     vdW  Elec       q    Type
REMARK                         _______ _______ _______ _____ _____    ______ ____
ROOT
ATOM      1  C   UNL     1       7.377   7.318  17.792  0.00  0.00    +0.000 A 
ATOM      2  C   UNL     1       7.994   6.471  18.715  0.00  0.00    +0.000 A 
ATOM      3  C   UNL     1       7.407   5.250  19.068  0.00  0.00    +0.000 A 
ATOM      4  C   UNL     1       6.188   4.868  18.505  0.00  0.00    +0.000 A 
ATOM      5  N   UNL     1       5.555   3.673  18.896  0.00  0.00    +0.000 N 
ATOM      6  C   UNL     1       4.314   3.393  18.404  0.00  0.00    +0.000 A 
ATOM      7  N   UNL     1       3.507   2.409  18.689  0.00  0.00    +0.000 NA
ATOM      8  C   UNL     1       2.428   2.677  17.880  0.00  0.00    +0.000 A 
ATOM      9  N   UNL     1       2.443   3.704  17.093  0.00  0.00    +0.000 NA
ATOM     10  C   UNL     1       3.654   4.247  17.391  0.00  0.00    +0.000 A 
ATOM     11  C   UNL     1       4.261   5.355  16.967  0.00  0.00    +0.000 A 
ATOM     12  C   UNL     1       5.565   5.723  17.557  0.00  0.00    +0.000 A 
ATOM     13  C   UNL     1       6.164   6.938  17.213  0.00  0.00    +0.000 A 
ATOM     14  H   UNL     1       5.981   3.064  19.575  0.00  0.00    +0.000 HD
ENDROOT
BRANCH   8  15
ATOM     15  O   UNL     1       1.422   1.814  18.005  0.00  0.00    +0.000 OA
ATOM     16  H   UNL     1       1.608   1.277  18.792  0.00  0.00    +0.000 HD
ENDBRANCH   8  15
BRANCH   1  17
ATOM     17  O   UNL     1       7.825   8.558  17.419  0.00  0.00    +0.000 OA
BRANCH  17  18
ATOM     18  C   UNL     1       8.561   9.290  18.398  0.00  0.00    +0.000 C 
BRANCH  18  19
ATOM     19  C   UNL     1       8.679  10.749  17.957  0.00  0.00    +0.000 C 
BRANCH  19  20
ATOM     20  C   UNL     1      10.115  11.282  17.931  0.00  0.00    +0.000 C 
BRANCH  20  22
ATOM     21  O   UNL     1      10.852  11.554  20.205  0.00  0.00    +0.000 OA
ATOM     22  C   UNL     1      10.497  12.098  19.159  0.00  0.00    +0.000 C 
ATOM     23  N   UNL     1      10.414  13.473  19.046  0.00  0.00    +0.000 N 
ATOM     24  C   UNL     1      10.094  14.228  17.830  0.00  0.00    +0.000 C 
ATOM     25  C   UNL     1       8.937  15.211  18.089  0.00  0.00    +0.000 C 
ATOM     26  N   UNL     1       9.190  16.100  19.237  0.00  0.00    +0.000 NA
ATOM     27  C   UNL     1       9.496  15.297  20.438  0.00  0.00    +0.000 C 
ATOM     28  C   UNL     1      10.663  14.317  20.217  0.00  0.00    +0.000 C 
ATOM     29  H   UNL     1       8.358  16.660  19.416  0.00  0.00    +0.000 HD
ENDBRANCH  20  22
ENDBRANCH  19  20
ENDBRANCH  18  19
ENDBRANCH  17  18
ENDBRANCH   1  17
TORSDOF 6
ENDMDL
MODEL 9
REMARK VINA RESULT:      -8.4      6.349      9.101
REMARK  Name = 
REMARK  6 active torsions:
REMARK  status: ('A' for Active; 'I' for Inactive)
REMARK    1  A    between atoms: C_2  and  C_3
REMARK    2  A    between atoms: C_3  and  C_4
REMARK    3  A    between atoms: C_4  and  C_5
REMARK    4  A    between atoms: C_5  and  O_6
REMARK    5  A    between atoms: O_6  and  C_7
REMARK    6  A    between atoms: C_14  and  O_15
REMARK                            x       y       z     vdW  Elec       q    Type
REMARK                         _______ _______ _______ _____ _____    ______ ____
ROOT
ATOM      1  C   UNL     1       2.295   7.706  18.850  0.00  0.00    +0.000 A 
ATOM      2  C   UNL     1       1.931   8.630  17.867  0.00  0.00    +0.000 A 
ATOM      3  C   UNL     1       1.141   9.741  18.190  0.00  0.00    +0.000 A 
ATOM      4  C   UNL     1       0.699   9.931  19.499  0.00  0.00    +0.000 A 
ATOM      5  N   UNL     1      -0.147  11.009  19.826  0.00  0.00    +0.000 N 
ATOM      6  C   UNL     1      -0.644  11.095  21.093  0.00  0.00    +0.000 A 
ATOM      7  N   UNL     1      -1.504  11.938  21.594  0.00  0.00    +0.000 NA
ATOM      8  C   UNL     1      -1.598  11.512  22.898  0.00  0.00    +0.000 A 
ATOM      9  N   UNL     1      -0.893  10.508  23.309  0.00  0.00    +0.000 NA
ATOM     10  C   UNL     1      -0.242  10.159  22.166  0.00  0.00    +0.000 A 
ATOM     11  C   UNL     1       0.601   9.164  21.891  0.00  0.00    +0.000 A 
ATOM     12  C   UNL     1       1.078   8.999  20.502  0.00  0.00    +0.000 A 
ATOM     13  C   UNL     1       1.869   7.897  20.166  0.00  0.00    +0.000 A 
ATOM     14  H   UNL     1      -0.432  11.670  19.122  0.00  0.00    +0.000 HD
ENDROOT
BRANCH   8  15
ATOM     15  O   UNL     1      -2.459  12.205  23.641  0.00  0.00    +0.000 OA
ATOM     16  H   UNL     1      -3.349  11.955  23.346  0.00  0.00    +0.000 HD
ENDBRANCH   8  15
BRANCH   1  17
ATOM     17  O   UNL     1       3.010   6.556  18.641  0.00  0.00    +0.000 OA
BRANCH  17  18
ATOM     18  C   UNL     1       2.366   5.536  17.878  0.00  0.00    +0.000 C 
BRANCH  18  19
ATOM     19  C   UNL     1       2.447   4.210  18.635  0.00  0.00    +0.000 C 
BRANCH  19  20
ATOM     20  C   UNL     1       3.544   3.267  18.130  0.00  0.00    +0.000 C 
BRANCH  20  22
ATOM     21  O   UNL     1       5.314   3.548  19.736  0.00  0.00    +0.000 OA
ATOM     22  C   UNL     1       4.950   3.660  18.565  0.00  0.00    +0.000 C 
ATOM     23  N   UNL     1       5.790   4.159  17.587  0.00  0.00    +0.000 N 
ATOM     24  C   UNL     1       5.497   4.251  16.153  0.00  0.00    +0.000 C 
ATOM     25  C   UNL     1       5.737   5.683  15.639  0.00  0.00    +0.000 C 
ATOM     26  N   UNL     1       7.086   6.183  15.957  0.00  0.00    +0.000 NA
ATOM     27  C   UNL     1       7.332   6.082  17.410  0.00  0.00    +0.000 C 
ATOM     28  C   UNL     1       7.119   4.656  17.952  0.00  0.00    +0.000 C 
ATOM     29  H   UNL     1       7.156   7.161  15.677  0.00  0.00    +0.000 HD
ENDBRANCH  20  22
ENDBRANCH  19  20
ENDBRANCH  18  19
ENDBRANCH  17  18
ENDBRANCH   1  17
TORSDOF 6
ENDMDL
