MODEL 1
REMARK VINA RESULT:      -6.8      0.000      0.000
REMARK  Name = 
REMARK  9 active torsions:
REMARK  status: ('A' for Active; 'I' for Inactive)
REMARK    1  A    between atoms: C_1  and  C_2
REMARK    2  A    between atoms: C_2  and  C_3
REMARK    3  A    between atoms: C_3  and  C_4
REMARK    4  A    between atoms: C_8  and  C_9
REMARK    5  A    between atoms: C_9  and  O_10
REMARK    6  A    between atoms: O_10  and  N_11
REMARK    7  A    between atoms: C_12  and  C_13
REMARK    8  A    between atoms: C_14  and  C_15
REMARK    9  A    between atoms: N_17  and  C_18
REMARK                            x       y       z     vdW  Elec       q    Type
REMARK                         _______ _______ _______ _____ _____    ______ ____
ROOT
ATOM      1  O   UNL     1       3.376   2.012  17.811  0.00  0.00    +0.000 OA
ENDROOT
BRANCH   1   2
ATOM      2  N   UNL     1       4.458   2.897  17.937  0.00  0.00    +0.000 NA
ATOM      3  C   UNL     1       4.586   3.564  16.836  0.00  0.00    +0.000 C 
BRANCH   3   4
ATOM      4  C   UNL     1       5.638   4.540  16.705  0.00  0.00    +0.000 A 
ATOM      5  C   UNL     1       6.454   4.910  15.595  0.00  0.00    +0.000 A 
ATOM      6  C   UNL     1       6.470   4.380  14.206  0.00  0.00    +0.000 C 
ATOM      7  N   UNL     1       7.316   5.892  15.907  0.00  0.00    +0.000 NA
ATOM      8  N   UNL     1       7.064   6.156  17.204  0.00  0.00    +0.000 N 
ATOM      9  C   UNL     1       7.809   7.199  17.870  0.00  0.00    +0.000 C 
ATOM     10  C   UNL     1       6.083   5.361  17.715  0.00  0.00    +0.000 A 
ATOM     11 CL   UNL     1       5.618   5.502  19.348  0.00  0.00    +0.000 Cl
ENDBRANCH   3   4
ENDBRANCH   1   2
BRANCH   1  12
ATOM     12  C   UNL     1       2.170   2.773  17.698  0.00  0.00    +0.000 C 
BRANCH  12  17
ATOM     13  C   UNL     1       2.063   4.911  19.207  0.00  0.00    +0.000 A 
ATOM     14  N   UNL     1       1.875   5.253  20.543  0.00  0.00    +0.000 NA
ATOM     15  N   UNL     1       1.720   4.190  21.312  0.00  0.00    +0.000 NA
ATOM     16  S   UNL     1       1.782   2.757  20.459  0.00  0.00    +0.000 S 
ATOM     17  C   UNL     1       2.044   3.546  18.957  0.00  0.00    +0.000 A 
BRANCH  13  18
ATOM     18  C   UNL     1       2.209   6.021  18.215  0.00  0.00    +0.000 C 
BRANCH  18  20
ATOM     19  C   UNL     1       2.182   8.512  17.868  0.00  0.00    +0.000 C 
ATOM     20  C   UNL     1       2.411   7.390  18.868  0.00  0.00    +0.000 C 
ENDBRANCH  18  20
ENDBRANCH  13  18
ENDBRANCH  12  17
ENDBRANCH   1  12
TORSDOF 6
ENDMDL
MODEL 2
REMARK VINA RESULT:      -6.6      2.733      5.985
REMARK  Name = 
REMARK  9 active torsions:
REMARK  status: ('A' for Active; 'I' for Inactive)
REMARK    1  A    between atoms: C_1  and  C_2
REMARK    2  A    between atoms: C_2  and  C_3
REMARK    3  A    between atoms: C_3  and  C_4
REMARK    4  A    between atoms: C_8  and  C_9
REMARK    5  A    between atoms: C_9  and  O_10
REMARK    6  A    between atoms: O_10  and  N_11
REMARK    7  A    between atoms: C_12  and  C_13
REMARK    8  A    between atoms: C_14  and  C_15
REMARK    9  A    between atoms: N_17  and  C_18
REMARK                            x       y       z     vdW  Elec       q    Type
REMARK                         _______ _______ _______ _____ _____    ______ ____
ROOT
ATOM      1  O   UNL     1       4.383   6.868  17.161  0.00  0.00    +0.000 OA
ENDROOT
BRANCH   1   2
ATOM      2  N   UNL     1       4.067   6.027  18.239  0.00  0.00    +0.000 NA
ATOM      3  C   UNL     1       3.324   5.057  17.813  0.00  0.00    +0.000 C 
BRANCH   3   4
ATOM      4  C   UNL     1       2.854   4.053  18.735  0.00  0.00    +0.000 A 
ATOM      5  C   UNL     1       2.930   2.629  18.703  0.00  0.00    +0.000 A 
ATOM      6  C   UNL     1       3.524   1.729  17.680  0.00  0.00    +0.000 C 
ATOM      7  N   UNL     1       2.369   2.070  19.788  0.00  0.00    +0.000 NA
ATOM      8  N   UNL     1       1.933   3.118  20.514  0.00  0.00    +0.000 N 
ATOM      9  C   UNL     1       1.288   2.876  21.784  0.00  0.00    +0.000 C 
ATOM     10  C   UNL     1       2.191   4.311  19.911  0.00  0.00    +0.000 A 
ATOM     11 CL   UNL     1       1.703   5.772  20.640  0.00  0.00    +0.000 Cl
ENDBRANCH   3   4
ENDBRANCH   1   2
BRANCH   1  12
ATOM     12  C   UNL     1       5.739   7.299  17.297  0.00  0.00    +0.000 C 
BRANCH  12  17
ATOM     13  C   UNL     1       6.756   5.153  16.191  0.00  0.00    +0.000 A 
ATOM     14  N   UNL     1       7.671   4.146  16.486  0.00  0.00    +0.000 NA
ATOM     15  N   UNL     1       8.184   4.277  17.695  0.00  0.00    +0.000 NA
ATOM     16  S   UNL     1       7.599   5.612  18.508  0.00  0.00    +0.000 S 
ATOM     17  C   UNL     1       6.577   6.079  17.210  0.00  0.00    +0.000 A 
BRANCH  13  18
ATOM     18  C   UNL     1       6.127   5.153  14.834  0.00  0.00    +0.000 C 
BRANCH  18  20
ATOM     19  C   UNL     1       6.086   3.583  12.869  0.00  0.00    +0.000 C 
ATOM     20  C   UNL     1       6.966   4.423  13.783  0.00  0.00    +0.000 C 
ENDBRANCH  18  20
ENDBRANCH  13  18
ENDBRANCH  12  17
ENDBRANCH   1  12
TORSDOF 6
ENDMDL
MODEL 3
REMARK VINA RESULT:      -6.6      1.003      1.186
REMARK  Name = 
REMARK  9 active torsions:
REMARK  status: ('A' for Active; 'I' for Inactive)
REMARK    1  A    between atoms: C_1  and  C_2
REMARK    2  A    between atoms: C_2  and  C_3
REMARK    3  A    between atoms: C_3  and  C_4
REMARK    4  A    between atoms: C_8  and  C_9
REMARK    5  A    between atoms: C_9  and  O_10
REMARK    6  A    between atoms: O_10  and  N_11
REMARK    7  A    between atoms: C_12  and  C_13
REMARK    8  A    between atoms: C_14  and  C_15
REMARK    9  A    between atoms: N_17  and  C_18
REMARK                            x       y       z     vdW  Elec       q    Type
REMARK                         _______ _______ _______ _____ _____    ______ ____
ROOT
ATOM      1  O   UNL     1       2.249   2.904  17.350  0.00  0.00    +0.000 OA
ENDROOT
BRANCH   1   2
ATOM      2  N   UNL     1       3.121   3.980  17.119  0.00  0.00    +0.000 NA
ATOM      3  C   UNL     1       4.332   3.531  17.044  0.00  0.00    +0.000 C 
BRANCH   3   4
ATOM      4  C   UNL     1       5.424   4.444  16.818  0.00  0.00    +0.000 A 
ATOM      5  C   UNL     1       6.187   4.737  15.648  0.00  0.00    +0.000 A 
ATOM      6  C   UNL     1       6.086   4.168  14.279  0.00  0.00    +0.000 C 
ATOM      7  N   UNL     1       7.117   5.679  15.876  0.00  0.00    +0.000 NA
ATOM      8  N   UNL     1       6.962   5.992  17.177  0.00  0.00    +0.000 N 
ATOM      9  C   UNL     1       7.802   7.011  17.762  0.00  0.00    +0.000 C 
ATOM     10  C   UNL     1       5.975   5.267  17.772  0.00  0.00    +0.000 A 
ATOM     11 CL   UNL     1       5.623   5.479  19.425  0.00  0.00    +0.000 Cl
ENDBRANCH   3   4
ENDBRANCH   1   2
BRANCH   1  12
ATOM     12  C   UNL     1       1.182   3.351  18.191  0.00  0.00    +0.000 C 
BRANCH  12  17
ATOM     13  C   UNL     1       1.800   4.378  20.520  0.00  0.00    +0.000 A 
ATOM     14  N   UNL     1       2.347   3.981  21.738  0.00  0.00    +0.000 NA
ATOM     15  N   UNL     1       2.684   2.705  21.740  0.00  0.00    +0.000 NA
ATOM     16  S   UNL     1       2.348   1.941  20.295  0.00  0.00    +0.000 S 
ATOM     17  C   UNL     1       1.717   3.365  19.574  0.00  0.00    +0.000 A 
BRANCH  13  18
ATOM     18  C   UNL     1       1.332   5.792  20.391  0.00  0.00    +0.000 C 
BRANCH  18  20
ATOM     19  C   UNL     1       2.388   7.002  18.455  0.00  0.00    +0.000 C 
ATOM     20  C   UNL     1       2.439   6.754  19.955  0.00  0.00    +0.000 C 
ENDBRANCH  18  20
ENDBRANCH  13  18
ENDBRANCH  12  17
ENDBRANCH   1  12
TORSDOF 6
ENDMDL
MODEL 4
REMARK VINA RESULT:      -6.6      1.648      1.810
REMARK  Name = 
REMARK  9 active torsions:
REMARK  status: ('A' for Active; 'I' for Inactive)
REMARK    1  A    between atoms: C_1  and  C_2
REMARK    2  A    between atoms: C_2  and  C_3
REMARK    3  A    between atoms: C_3  and  C_4
REMARK    4  A    between atoms: C_8  and  C_9
REMARK    5  A    between atoms: C_9  and  O_10
REMARK    6  A    between atoms: O_10  and  N_11
REMARK    7  A    between atoms: C_12  and  C_13
REMARK    8  A    between atoms: C_14  and  C_15
REMARK    9  A    between atoms: N_17  and  C_18
REMARK                            x       y       z     vdW  Elec       q    Type
REMARK                         _______ _______ _______ _____ _____    ______ ____
ROOT
ATOM      1  O   UNL     1       5.086   2.589  19.453  0.00  0.00    +0.000 OA
ENDROOT
BRANCH   1   2
ATOM      2  N   UNL     1       5.425   3.943  19.309  0.00  0.00    +0.000 NA
ATOM      3  C   UNL     1       6.052   4.103  18.189  0.00  0.00    +0.000 C 
BRANCH   3   4
ATOM      4  C   UNL     1       6.518   5.413  17.807  0.00  0.00    +0.000 A 
ATOM      5  C   UNL     1       6.194   6.246  16.695  0.00  0.00    +0.000 A 
ATOM      6  C   UNL     1       5.261   6.004  15.563  0.00  0.00    +0.000 C 
ATOM      7  N   UNL     1       6.857   7.414  16.730  0.00  0.00    +0.000 NA
ATOM      8  N   UNL     1       7.603   7.339  17.849  0.00  0.00    +0.000 N 
ATOM      9  C   UNL     1       8.439   8.459  18.215  0.00  0.00    +0.000 C 
ATOM     10  C   UNL     1       7.438   6.158  18.506  0.00  0.00    +0.000 A 
ATOM     11 CL   UNL     1       8.306   5.834  19.936  0.00  0.00    +0.000 Cl
ENDBRANCH   3   4
ENDBRANCH   1   2
BRANCH   1  12
ATOM     12  C   UNL     1       3.854   2.348  18.769  0.00  0.00    +0.000 C 
BRANCH  12  17
ATOM     13  C   UNL     1       1.805   3.854  19.398  0.00  0.00    +0.000 A 
ATOM     14  N   UNL     1       0.945   4.072  20.471  0.00  0.00    +0.000 NA
ATOM     15  N   UNL     1       1.242   3.314  21.510  0.00  0.00    +0.000 NA
ATOM     16  S   UNL     1       2.548   2.313  21.232  0.00  0.00    +0.000 S 
ATOM     17  C   UNL     1       2.782   2.895  19.634  0.00  0.00    +0.000 A 
BRANCH  13  18
ATOM     18  C   UNL     1       1.558   4.616  18.136  0.00  0.00    +0.000 C 
BRANCH  18  20
ATOM     19  C   UNL     1       2.437   6.879  18.793  0.00  0.00    +0.000 C 
ATOM     20  C   UNL     1       2.615   5.689  17.863  0.00  0.00    +0.000 C 
ENDBRANCH  18  20
ENDBRANCH  13  18
ENDBRANCH  12  17
ENDBRANCH   1  12
TORSDOF 6
ENDMDL
MODEL 5
REMARK VINA RESULT:      -6.5      2.719      6.180
REMARK  Name = 
REMARK  9 active torsions:
REMARK  status: ('A' for Active; 'I' for Inactive)
REMARK    1  A    between atoms: C_1  and  C_2
REMARK    2  A    between atoms: C_2  and  C_3
REMARK    3  A    between atoms: C_3  and  C_4
REMARK    4  A    between atoms: C_8  and  C_9
REMARK    5  A    between atoms: C_9  and  O_10
REMARK    6  A    between atoms: O_10  and  N_11
REMARK    7  A    between atoms: C_12  and  C_13
REMARK    8  A    between atoms: C_14  and  C_15
REMARK    9  A    between atoms: N_17  and  C_18
REMARK                            x       y       z     vdW  Elec       q    Type
REMARK                         _______ _______ _______ _____ _____    ______ ____
ROOT
ATOM      1  O   UNL     1       6.860   4.562  18.942  0.00  0.00    +0.000 OA
ENDROOT
BRANCH   1   2
ATOM      2  N   UNL     1       5.589   3.992  18.777  0.00  0.00    +0.000 NA
ATOM      3  C   UNL     1       4.738   4.644  19.501  0.00  0.00    +0.000 C 
BRANCH   3   4
ATOM      4  C   UNL     1       3.352   4.247  19.513  0.00  0.00    +0.000 A 
ATOM      5  C   UNL     1       2.176   4.928  19.947  0.00  0.00    +0.000 A 
ATOM      6  C   UNL     1       2.024   6.283  20.540  0.00  0.00    +0.000 C 
ATOM      7  N   UNL     1       1.069   4.189  19.764  0.00  0.00    +0.000 NA
ATOM      8  N   UNL     1       1.520   3.043  19.220  0.00  0.00    +0.000 N 
ATOM      9  C   UNL     1       0.575   2.010  18.865  0.00  0.00    +0.000 C 
ATOM     10  C   UNL     1       2.874   3.036  19.070  0.00  0.00    +0.000 A 
ATOM     11 CL   UNL     1       3.667   1.673  18.426  0.00  0.00    +0.000 Cl
ENDBRANCH   3   4
ENDBRANCH   1   2
BRANCH   1  12
ATOM     12  C   UNL     1       7.541   4.540  17.685  0.00  0.00    +0.000 C 
BRANCH  12  17
ATOM     13  C   UNL     1       6.167   5.079  15.521  0.00  0.00    +0.000 A 
ATOM     14  N   UNL     1       5.437   6.127  14.968  0.00  0.00    +0.000 NA
ATOM     15  N   UNL     1       5.437   7.197  15.742  0.00  0.00    +0.000 NA
ATOM     16  S   UNL     1       6.297   6.977  17.154  0.00  0.00    +0.000 S 
ATOM     17  C   UNL     1       6.733   5.366  16.757  0.00  0.00    +0.000 A 
BRANCH  13  18
ATOM     18  C   UNL     1       6.217   3.787  14.770  0.00  0.00    +0.000 C 
BRANCH  18  20
ATOM     19  C   UNL     1       5.456   3.331  12.417  0.00  0.00    +0.000 C 
ATOM     20  C   UNL     1       6.531   3.968  13.283  0.00  0.00    +0.000 C 
ENDBRANCH  18  20
ENDBRANCH  13  18
ENDBRANCH  12  17
ENDBRANCH   1  12
TORSDOF 6
ENDMDL
MODEL 6
REMARK VINA RESULT:      -6.4      2.390      3.499
REMARK  Name = 
REMARK  9 active torsions:
REMARK  status: ('A' for Active; 'I' for Inactive)
REMARK    1  A    between atoms: C_1  and  C_2
REMARK    2  A    between atoms: C_2  and  C_3
REMARK    3  A    between atoms: C_3  and  C_4
REMARK    4  A    between atoms: C_8  and  C_9
REMARK    5  A    between atoms: C_9  and  O_10
REMARK    6  A    between atoms: O_10  and  N_11
REMARK    7  A    between atoms: C_12  and  C_13
REMARK    8  A    between atoms: C_14  and  C_15
REMARK    9  A    between atoms: N_17  and  C_18
REMARK                            x       y       z     vdW  Elec       q    Type
REMARK                         _______ _______ _______ _____ _____    ______ ____
ROOT
ATOM      1  O   UNL     1       3.182   3.153  17.709  0.00  0.00    +0.000 OA
ENDROOT
BRANCH   1   2
ATOM      2  N   UNL     1       4.330   3.865  17.327  0.00  0.00    +0.000 NA
ATOM      3  C   UNL     1       4.581   3.622  16.082  0.00  0.00    +0.000 C 
BRANCH   3   4
ATOM      4  C   UNL     1       5.723   4.232  15.447  0.00  0.00    +0.000 A 
ATOM      5  C   UNL     1       6.847   4.926  15.986  0.00  0.00    +0.000 A 
ATOM      6  C   UNL     1       7.183   5.244  17.398  0.00  0.00    +0.000 C 
ATOM      7  N   UNL     1       7.699   5.325  15.027  0.00  0.00    +0.000 NA
ATOM      8  N   UNL     1       7.136   4.897  13.881  0.00  0.00    +0.000 N 
ATOM      9  C   UNL     1       7.812   5.139  12.629  0.00  0.00    +0.000 C 
ATOM     10  C   UNL     1       5.952   4.256  14.092  0.00  0.00    +0.000 A 
ATOM     11 CL   UNL     1       5.049   3.653  12.779  0.00  0.00    +0.000 Cl
ENDBRANCH   3   4
ENDBRANCH   1   2
BRANCH   1  12
ATOM     12  C   UNL     1       2.034   3.972  17.473  0.00  0.00    +0.000 C 
BRANCH  12  17
ATOM     13  C   UNL     1       1.567   4.908  19.875  0.00  0.00    +0.000 A 
ATOM     14  N   UNL     1       1.747   6.080  20.605  0.00  0.00    +0.000 NA
ATOM     15  N   UNL     1       2.304   7.036  19.883  0.00  0.00    +0.000 NA
ATOM     16  S   UNL     1       2.639   6.558  18.320  0.00  0.00    +0.000 S 
ATOM     17  C   UNL     1       2.008   4.980  18.560  0.00  0.00    +0.000 A 
BRANCH  13  18
ATOM     18  C   UNL     1       0.984   3.726  20.581  0.00  0.00    +0.000 C 
BRANCH  18  20
ATOM     19  C   UNL     1       3.106   2.510  21.169  0.00  0.00    +0.000 C 
ATOM     20  C   UNL     1       1.869   3.206  21.716  0.00  0.00    +0.000 C 
ENDBRANCH  18  20
ENDBRANCH  13  18
ENDBRANCH  12  17
ENDBRANCH   1  12
TORSDOF 6
ENDMDL
MODEL 7
REMARK VINA RESULT:      -6.4      2.529      5.875
REMARK  Name = 
REMARK  9 active torsions:
REMARK  status: ('A' for Active; 'I' for Inactive)
REMARK    1  A    between atoms: C_1  and  C_2
REMARK    2  A    between atoms: C_2  and  C_3
REMARK    3  A    between atoms: C_3  and  C_4
REMARK    4  A    between atoms: C_8  and  C_9
REMARK    5  A    between atoms: C_9  and  O_10
REMARK    6  A    between atoms: O_10  and  N_11
REMARK    7  A    between atoms: C_12  and  C_13
REMARK    8  A    between atoms: C_14  and  C_15
REMARK    9  A    between atoms: N_17  and  C_18
REMARK                            x       y       z     vdW  Elec       q    Type
REMARK                         _______ _______ _______ _____ _____    ______ ____
ROOT
ATOM      1  O   UNL     1       4.923   3.630  17.675  0.00  0.00    +0.000 OA
ENDROOT
BRANCH   1   2
ATOM      2  N   UNL     1       4.151   4.143  18.729  0.00  0.00    +0.000 NA
ATOM      3  C   UNL     1       3.596   5.247  18.346  0.00  0.00    +0.000 C 
BRANCH   3   4
ATOM      4  C   UNL     1       2.752   5.981  19.256  0.00  0.00    +0.000 A 
ATOM      5  C   UNL     1       2.082   5.586  20.452  0.00  0.00    +0.000 A 
ATOM      6  C   UNL     1       2.046   4.265  21.133  0.00  0.00    +0.000 C 
ATOM      7  N   UNL     1       1.402   6.603  21.008  0.00  0.00    +0.000 NA
ATOM      8  N   UNL     1       1.626   7.643  20.182  0.00  0.00    +0.000 N 
ATOM      9  C   UNL     1       1.052   8.930  20.497  0.00  0.00    +0.000 C 
ATOM     10  C   UNL     1       2.412   7.306  19.122  0.00  0.00    +0.000 A 
ATOM     11 CL   UNL     1       2.803   8.461  17.932  0.00  0.00    +0.000 Cl
ENDBRANCH   3   4
ENDBRANCH   1   2
BRANCH   1  12
ATOM     12  C   UNL     1       4.465   4.205  16.448  0.00  0.00    +0.000 C 
BRANCH  12  17
ATOM     13  C   UNL     1       6.734   5.471  16.116  0.00  0.00    +0.000 A 
ATOM     14  N   UNL     1       7.714   5.644  15.142  0.00  0.00    +0.000 NA
ATOM     15  N   UNL     1       7.427   4.998  14.027  0.00  0.00    +0.000 NA
ATOM     16  S   UNL     1       5.988   4.158  14.114  0.00  0.00    +0.000 S 
ATOM     17  C   UNL     1       5.675   4.663  15.724  0.00  0.00    +0.000 A 
BRANCH  13  18
ATOM     18  C   UNL     1       6.951   6.113  17.449  0.00  0.00    +0.000 C 
BRANCH  18  20
ATOM     19  C   UNL     1       8.049   8.342  17.838  0.00  0.00    +0.000 C 
ATOM     20  C   UNL     1       6.770   7.633  17.421  0.00  0.00    +0.000 C 
ENDBRANCH  18  20
ENDBRANCH  13  18
ENDBRANCH  12  17
ENDBRANCH   1  12
TORSDOF 6
ENDMDL
MODEL 8
REMARK VINA RESULT:      -6.4      1.852      2.514
REMARK  Name = 
REMARK  9 active torsions:
REMARK  status: ('A' for Active; 'I' for Inactive)
REMARK    1  A    between atoms: C_1  and  C_2
REMARK    2  A    between atoms: C_2  and  C_3
REMARK    3  A    between atoms: C_3  and  C_4
REMARK    4  A    between atoms: C_8  and  C_9
REMARK    5  A    between atoms: C_9  and  O_10
REMARK    6  A    between atoms: O_10  and  N_11
REMARK    7  A    between atoms: C_12  and  C_13
REMARK    8  A    between atoms: C_14  and  C_15
REMARK    9  A    between atoms: N_17  and  C_18
REMARK                            x       y       z     vdW  Elec       q    Type
REMARK                         _______ _______ _______ _____ _____    ______ ____
ROOT
ATOM      1  O   UNL     1       2.781   3.215  17.333  0.00  0.00    +0.000 OA
ENDROOT
BRANCH   1   2
ATOM      2  N   UNL     1       3.644   4.134  16.717  0.00  0.00    +0.000 NA
ATOM      3  C   UNL     1       4.740   3.529  16.390  0.00  0.00    +0.000 C 
BRANCH   3   4
ATOM      4  C   UNL     1       5.800   4.262  15.744  0.00  0.00    +0.000 A 
ATOM      5  C   UNL     1       6.799   5.137  16.265  0.00  0.00    +0.000 A 
ATOM      6  C   UNL     1       7.049   5.573  17.664  0.00  0.00    +0.000 C 
ATOM      7  N   UNL     1       7.612   5.603  15.302  0.00  0.00    +0.000 NA
ATOM      8  N   UNL     1       7.146   5.040  14.171  0.00  0.00    +0.000 N 
ATOM      9  C   UNL     1       7.814   5.311  12.920  0.00  0.00    +0.000 C 
ATOM     10  C   UNL     1       6.060   4.249  14.394  0.00  0.00    +0.000 A 
ATOM     11 CL   UNL     1       5.287   3.455  13.100  0.00  0.00    +0.000 Cl
ENDBRANCH   3   4
ENDBRANCH   1   2
BRANCH   1  12
ATOM     12  C   UNL     1       1.676   3.927  17.896  0.00  0.00    +0.000 C 
BRANCH  12  17
ATOM     13  C   UNL     1       2.058   4.975  20.266  0.00  0.00    +0.000 A 
ATOM     14  N   UNL     1       2.195   4.568  21.591  0.00  0.00    +0.000 NA
ATOM     15  N   UNL     1       2.137   3.255  21.718  0.00  0.00    +0.000 NA
ATOM     16  S   UNL     1       1.907   2.472  20.263  0.00  0.00    +0.000 S 
ATOM     17  C   UNL     1       1.887   3.934  19.363  0.00  0.00    +0.000 A 
BRANCH  13  18
ATOM     18  C   UNL     1       2.061   6.442  19.981  0.00  0.00    +0.000 C 
BRANCH  18  20
ATOM     19  C   UNL     1       2.479   7.996  18.048  0.00  0.00    +0.000 C 
ATOM     20  C   UNL     1       3.029   6.836  18.863  0.00  0.00    +0.000 C 
ENDBRANCH  18  20
ENDBRANCH  13  18
ENDBRANCH  12  17
ENDBRANCH   1  12
TORSDOF 6
ENDMDL
MODEL 9
REMARK VINA RESULT:      -6.3      2.069      2.306
REMARK  Name = 
REMARK  9 active torsions:
REMARK  status: ('A' for Active; 'I' for Inactive)
REMARK    1  A    between atoms: C_1  and  C_2
REMARK    2  A    between atoms: C_2  and  C_3
REMARK    3  A    between atoms: C_3  and  C_4
REMARK    4  A    between atoms: C_8  and  C_9
REMARK    5  A    between atoms: C_9  and  O_10
REMARK    6  A    between atoms: O_10  and  N_11
REMARK    7  A    between atoms: C_12  and  C_13
REMARK    8  A    between atoms: C_14  and  C_15
REMARK    9  A    between atoms: N_17  and  C_18
REMARK                            x       y       z     vdW  Elec       q    Type
REMARK                         _______ _______ _______ _____ _____    ______ ____
ROOT
ATOM      1  O   UNL     1       5.127   2.692  19.613  0.00  0.00    +0.000 OA
ENDROOT
BRANCH   1   2
ATOM      2  N   UNL     1       5.393   4.053  19.394  0.00  0.00    +0.000 NA
ATOM      3  C   UNL     1       6.115   4.174  18.328  0.00  0.00    +0.000 C 
BRANCH   3   4
ATOM      4  C   UNL     1       6.533   5.481  17.888  0.00  0.00    +0.000 A 
ATOM      5  C   UNL     1       6.141   6.274  16.768  0.00  0.00    +0.000 A 
ATOM      6  C   UNL     1       5.164   5.978  15.687  0.00  0.00    +0.000 C 
ATOM      7  N   UNL     1       6.778   7.457  16.740  0.00  0.00    +0.000 NA
ATOM      8  N   UNL     1       7.574   7.432  17.826  0.00  0.00    +0.000 N 
ATOM      9  C   UNL     1       8.400   8.579  18.122  0.00  0.00    +0.000 C 
ATOM     10  C   UNL     1       7.466   6.267  18.523  0.00  0.00    +0.000 A 
ATOM     11 CL   UNL     1       8.404   6.004  19.921  0.00  0.00    +0.000 Cl
ENDBRANCH   3   4
ENDBRANCH   1   2
BRANCH   1  12
ATOM     12  C   UNL     1       3.834   2.567  20.211  0.00  0.00    +0.000 C 
BRANCH  12  17
ATOM     13  C   UNL     1       2.081   4.278  19.282  0.00  0.00    +0.000 A 
ATOM     14  N   UNL     1       1.316   4.491  18.139  0.00  0.00    +0.000 NA
ATOM     15  N   UNL     1       1.495   3.543  17.237  0.00  0.00    +0.000 NA
ATOM     16  S   UNL     1       2.588   2.381  17.724  0.00  0.00    +0.000 S 
ATOM     17  C   UNL     1       2.868   3.135  19.240  0.00  0.00    +0.000 A 
BRANCH  13  18
ATOM     18  C   UNL     1       2.010   5.300  20.372  0.00  0.00    +0.000 C 
BRANCH  18  20
ATOM     19  C   UNL     1       1.631   7.774  20.616  0.00  0.00    +0.000 C 
ATOM     20  C   UNL     1       2.445   6.695  19.918  0.00  0.00    +0.000 C 
ENDBRANCH  18  20
ENDBRANCH  13  18
ENDBRANCH  12  17
ENDBRANCH   1  12
TORSDOF 6
ENDMDL
