MODEL 1
REMARK VINA RESULT:      -6.8      0.000      0.000
REMARK  Name = 
REMARK  4 active torsions:
REMARK  status: ('A' for Active; 'I' for Inactive)
REMARK    1  A    between atoms: C_1  and  O_2
REMARK    2  A    between atoms: O_2  and  C_3
REMARK    3  A    between atoms: C_8  and  N_9
REMARK    4  A    between atoms: N_12  and  C_13
REMARK                            x       y       z     vdW  Elec       q    Type
REMARK                         _______ _______ _______ _____ _____    ______ ____
ROOT
ATOM      1  N   UNL     1       1.016  10.045  18.889  0.00  0.00    +0.000 N 
ATOM      2  C   UNL     1       1.286   9.316  17.638  0.00  0.00    +0.000 C 
ATOM      3  C   UNL     1       2.517   8.406  17.836  0.00  0.00    +0.000 C 
ATOM      4  N   UNL     1       2.242   7.467  18.946  0.00  0.00    +0.000 N 
ATOM      5  C   UNL     1       1.898   8.128  20.224  0.00  0.00    +0.000 C 
ATOM      6  C   UNL     1       0.750   9.154  20.037  0.00  0.00    +0.000 C 
ENDROOT
BRANCH   4   7
ATOM      7  C   UNL     1       2.678   6.161  18.922  0.00  0.00    +0.000 A 
ATOM      8  C   UNL     1       2.065   5.172  18.149  0.00  0.00    +0.000 A 
ATOM      9  C   UNL     1       2.480   3.839  18.217  0.00  0.00    +0.000 A 
ATOM     10  C   UNL     1       3.530   3.500  19.069  0.00  0.00    +0.000 A 
ATOM     11  N   UNL     1       3.923   2.066  19.117  0.00  0.00    +0.000 N 
ATOM     12  O   UNL     1       3.311   1.266  18.391  0.00  0.00    +0.000 OA
ATOM     13  O   UNL     1       4.842   1.751  19.886  0.00  0.00    +0.000 OA
ATOM     14  N   UNL     1       4.164   4.434  19.828  0.00  0.00    +0.000 NA
ATOM     15  C   UNL     1       3.723   5.712  19.734  0.00  0.00    +0.000 A 
ENDBRANCH   4   7
BRANCH   1  21
ATOM     16  C   UNL     1      -0.535  11.984  18.807  0.00  0.00    +0.000 A 
ATOM     17  C   UNL     1      -0.695  13.381  18.777  0.00  0.00    +0.000 A 
ATOM     18  C   UNL     1       0.397  14.235  18.858  0.00  0.00    +0.000 A 
ATOM     19  C   UNL     1       1.668  13.705  18.968  0.00  0.00    +0.000 A 
ATOM     20  C   UNL     1       1.842  12.317  18.996  0.00  0.00    +0.000 A 
ATOM     21  C   UNL     1       0.760  11.409  18.911  0.00  0.00    +0.000 A 
BRANCH  16  23
ATOM     22  C   UNL     1      -2.194  11.135  17.334  0.00  0.00    +0.000 C 
ATOM     23  O   UNL     1      -1.625  11.151  18.644  0.00  0.00    +0.000 OA
ENDBRANCH  16  23
ENDBRANCH   1  21
TORSDOF 3
ENDMDL
MODEL 2
REMARK VINA RESULT:      -6.7      2.795      8.102
REMARK  Name = 
REMARK  4 active torsions:
REMARK  status: ('A' for Active; 'I' for Inactive)
REMARK    1  A    between atoms: C_1  and  O_2
REMARK    2  A    between atoms: O_2  and  C_3
REMARK    3  A    between atoms: C_8  and  N_9
REMARK    4  A    between atoms: N_12  and  C_13
REMARK                            x       y       z     vdW  Elec       q    Type
REMARK                         _______ _______ _______ _____ _____    ______ ____
ROOT
ATOM      1  N   UNL     1       4.155   6.341  17.815  0.00  0.00    +0.000 N 
ATOM      2  C   UNL     1       3.902   7.753  17.482  0.00  0.00    +0.000 C 
ATOM      3  C   UNL     1       2.439   8.102  17.829  0.00  0.00    +0.000 C 
ATOM      4  N   UNL     1       2.217   7.850  19.270  0.00  0.00    +0.000 N 
ATOM      5  C   UNL     1       2.515   6.464  19.692  0.00  0.00    +0.000 C 
ATOM      6  C   UNL     1       3.933   6.028  19.242  0.00  0.00    +0.000 C 
ENDROOT
BRANCH   4   7
ATOM      7  C   UNL     1       1.419   8.667  20.039  0.00  0.00    +0.000 A 
ATOM      8  C   UNL     1       1.059   8.356  21.351  0.00  0.00    +0.000 A 
ATOM      9  C   UNL     1       0.175   9.165  22.072  0.00  0.00    +0.000 A 
ATOM     10  C   UNL     1      -0.345  10.306  21.463  0.00  0.00    +0.000 A 
ATOM     11  N   UNL     1      -1.293  11.125  22.266  0.00  0.00    +0.000 N 
ATOM     12  O   UNL     1      -1.549  10.759  23.424  0.00  0.00    +0.000 OA
ATOM     13  O   UNL     1      -1.776  12.131  21.727  0.00  0.00    +0.000 OA
ATOM     14  N   UNL     1      -0.009  10.655  20.192  0.00  0.00    +0.000 NA
ATOM     15  C   UNL     1       0.846   9.835  19.531  0.00  0.00    +0.000 A 
ENDBRANCH   4   7
BRANCH   1  21
ATOM     16  C   UNL     1       4.340   4.180  16.604  0.00  0.00    +0.000 A 
ATOM     17  C   UNL     1       5.094   3.350  15.754  0.00  0.00    +0.000 A 
ATOM     18  C   UNL     1       6.300   3.776  15.214  0.00  0.00    +0.000 A 
ATOM     19  C   UNL     1       6.773   5.038  15.518  0.00  0.00    +0.000 A 
ATOM     20  C   UNL     1       6.034   5.872  16.363  0.00  0.00    +0.000 A 
ATOM     21  C   UNL     1       4.804   5.479  16.941  0.00  0.00    +0.000 A 
BRANCH  16  23
ATOM     22  C   UNL     1       3.335   2.529  17.986  0.00  0.00    +0.000 C 
ATOM     23  O   UNL     1       3.183   3.709  17.195  0.00  0.00    +0.000 OA
ENDBRANCH  16  23
ENDBRANCH   1  21
TORSDOF 3
ENDMDL
MODEL 3
REMARK VINA RESULT:      -6.6      3.140      8.235
REMARK  Name = 
REMARK  4 active torsions:
REMARK  status: ('A' for Active; 'I' for Inactive)
REMARK    1  A    between atoms: C_1  and  O_2
REMARK    2  A    between atoms: O_2  and  C_3
REMARK    3  A    between atoms: C_8  and  N_9
REMARK    4  A    between atoms: N_12  and  C_13
REMARK                            x       y       z     vdW  Elec       q    Type
REMARK                         _______ _______ _______ _____ _____    ______ ____
ROOT
ATOM      1  N   UNL     1       4.416   6.330  17.962  0.00  0.00    +0.000 N 
ATOM      2  C   UNL     1       4.169   7.747  17.646  0.00  0.00    +0.000 C 
ATOM      3  C   UNL     1       2.670   8.058  17.845  0.00  0.00    +0.000 C 
ATOM      4  N   UNL     1       2.303   7.757  19.246  0.00  0.00    +0.000 N 
ATOM      5  C   UNL     1       2.584   6.364  19.657  0.00  0.00    +0.000 C 
ATOM      6  C   UNL     1       4.051   5.968  19.347  0.00  0.00    +0.000 C 
ENDROOT
BRANCH   4   7
ATOM      7  C   UNL     1       1.410   8.534  19.950  0.00  0.00    +0.000 A 
ATOM      8  C   UNL     1       0.696   9.583  19.368  0.00  0.00    +0.000 A 
ATOM      9  C   UNL     1      -0.135  10.406  20.133  0.00  0.00    +0.000 A 
ATOM     10  C   UNL     1      -0.254  10.164  21.501  0.00  0.00    +0.000 A 
ATOM     11  N   UNL     1      -1.138  11.077  22.273  0.00  0.00    +0.000 N 
ATOM     12  O   UNL     1      -1.727  11.981  21.658  0.00  0.00    +0.000 OA
ATOM     13  O   UNL     1      -1.235  10.882  23.493  0.00  0.00    +0.000 OA
ATOM     14  N   UNL     1       0.412   9.143  22.106  0.00  0.00    +0.000 NA
ATOM     15  C   UNL     1       1.212   8.376  21.324  0.00  0.00    +0.000 A 
ENDBRANCH   4   7
BRANCH   1  21
ATOM     16  C   UNL     1       6.591   5.488  17.107  0.00  0.00    +0.000 A 
ATOM     17  C   UNL     1       7.275   4.665  16.195  0.00  0.00    +0.000 A 
ATOM     18  C   UNL     1       6.590   3.845  15.309  0.00  0.00    +0.000 A 
ATOM     19  C   UNL     1       5.208   3.836  15.320  0.00  0.00    +0.000 A 
ATOM     20  C   UNL     1       4.516   4.652  16.220  0.00  0.00    +0.000 A 
ATOM     21  C   UNL     1       5.171   5.508  17.137  0.00  0.00    +0.000 A 
BRANCH  16  23
ATOM     22  C   UNL     1       7.774   5.794  19.145  0.00  0.00    +0.000 C 
ATOM     23  O   UNL     1       7.289   6.357  17.925  0.00  0.00    +0.000 OA
ENDBRANCH  16  23
ENDBRANCH   1  21
TORSDOF 3
ENDMDL
MODEL 4
REMARK VINA RESULT:      -6.6      3.016      3.745
REMARK  Name = 
REMARK  4 active torsions:
REMARK  status: ('A' for Active; 'I' for Inactive)
REMARK    1  A    between atoms: C_1  and  O_2
REMARK    2  A    between atoms: O_2  and  C_3
REMARK    3  A    between atoms: C_8  and  N_9
REMARK    4  A    between atoms: N_12  and  C_13
REMARK                            x       y       z     vdW  Elec       q    Type
REMARK                         _______ _______ _______ _____ _____    ______ ____
ROOT
ATOM      1  N   UNL     1      -0.500  10.713  21.774  0.00  0.00    +0.000 N 
ATOM      2  C   UNL     1      -0.612  10.420  20.335  0.00  0.00    +0.000 C 
ATOM      3  C   UNL     1       0.760   9.955  19.803  0.00  0.00    +0.000 C 
ATOM      4  N   UNL     1       1.181   8.753  20.556  0.00  0.00    +0.000 N 
ATOM      5  C   UNL     1       1.254   8.953  22.020  0.00  0.00    +0.000 C 
ATOM      6  C   UNL     1      -0.066   9.549  22.574  0.00  0.00    +0.000 C 
ENDROOT
BRANCH   4   7
ATOM      7  C   UNL     1       1.847   7.709  19.952  0.00  0.00    +0.000 A 
ATOM      8  C   UNL     1       2.417   7.808  18.682  0.00  0.00    +0.000 A 
ATOM      9  C   UNL     1       3.008   6.702  18.065  0.00  0.00    +0.000 A 
ATOM     10  C   UNL     1       3.032   5.482  18.741  0.00  0.00    +0.000 A 
ATOM     11  N   UNL     1       3.658   4.332  18.035  0.00  0.00    +0.000 N 
ATOM     12  O   UNL     1       4.134   4.527  16.905  0.00  0.00    +0.000 OA
ATOM     13  O   UNL     1       3.666   3.240  18.620  0.00  0.00    +0.000 OA
ATOM     14  N   UNL     1       2.502   5.346  19.986  0.00  0.00    +0.000 NA
ATOM     15  C   UNL     1       1.933   6.445  20.541  0.00  0.00    +0.000 A 
ENDBRANCH   4   7
BRANCH   1  21
ATOM     16  C   UNL     1      -0.381  13.138  22.299  0.00  0.00    +0.000 A 
ATOM     17  C   UNL     1      -0.954  14.246  22.949  0.00  0.00    +0.000 A 
ATOM     18  C   UNL     1      -2.158  14.138  23.633  0.00  0.00    +0.000 A 
ATOM     19  C   UNL     1      -2.807  12.919  23.680  0.00  0.00    +0.000 A 
ATOM     20  C   UNL     1      -2.247  11.809  23.040  0.00  0.00    +0.000 A 
ATOM     21  C   UNL     1      -1.020  11.870  22.336  0.00  0.00    +0.000 A 
BRANCH  16  23
ATOM     22  C   UNL     1       1.413  14.560  21.666  0.00  0.00    +0.000 C 
ATOM     23  O   UNL     1       0.856  13.246  21.693  0.00  0.00    +0.000 OA
ENDBRANCH  16  23
ENDBRANCH   1  21
TORSDOF 3
ENDMDL
MODEL 5
REMARK VINA RESULT:      -6.5      2.205      8.735
REMARK  Name = 
REMARK  4 active torsions:
REMARK  status: ('A' for Active; 'I' for Inactive)
REMARK    1  A    between atoms: C_1  and  O_2
REMARK    2  A    between atoms: O_2  and  C_3
REMARK    3  A    between atoms: C_8  and  N_9
REMARK    4  A    between atoms: N_12  and  C_13
REMARK                            x       y       z     vdW  Elec       q    Type
REMARK                         _______ _______ _______ _____ _____    ______ ____
ROOT
ATOM      1  N   UNL     1       2.556   6.804  18.888  0.00  0.00    +0.000 N 
ATOM      2  C   UNL     1       2.945   7.863  17.942  0.00  0.00    +0.000 C 
ATOM      3  C   UNL     1       1.765   8.840  17.759  0.00  0.00    +0.000 C 
ATOM      4  N   UNL     1       1.411   9.413  19.076  0.00  0.00    +0.000 N 
ATOM      5  C   UNL     1       1.069   8.402  20.101  0.00  0.00    +0.000 C 
ATOM      6  C   UNL     1       2.176   7.322  20.219  0.00  0.00    +0.000 C 
ENDROOT
BRANCH   4   7
ATOM      7  C   UNL     1       1.017  10.725  19.220  0.00  0.00    +0.000 A 
ATOM      8  C   UNL     1      -0.125  11.100  19.929  0.00  0.00    +0.000 A 
ATOM      9  C   UNL     1      -0.541  12.433  19.980  0.00  0.00    +0.000 A 
ATOM     10  C   UNL     1       0.208  13.402  19.314  0.00  0.00    +0.000 A 
ATOM     11  N   UNL     1      -0.285  14.803  19.385  0.00  0.00    +0.000 N 
ATOM     12  O   UNL     1      -1.315  15.029  20.041  0.00  0.00    +0.000 OA
ATOM     13  O   UNL     1       0.363  15.668  18.780  0.00  0.00    +0.000 OA
ATOM     14  N   UNL     1       1.336  13.082  18.624  0.00  0.00    +0.000 NA
ATOM     15  C   UNL     1       1.697  11.775  18.597  0.00  0.00    +0.000 A 
ENDBRANCH   4   7
BRANCH   1  21
ATOM     16  C   UNL     1       3.971   4.768  19.037  0.00  0.00    +0.000 A 
ATOM     17  C   UNL     1       4.159   3.420  18.686  0.00  0.00    +0.000 A 
ATOM     18  C   UNL     1       3.206   2.725  17.952  0.00  0.00    +0.000 A 
ATOM     19  C   UNL     1       2.050   3.369  17.557  0.00  0.00    +0.000 A 
ATOM     20  C   UNL     1       1.852   4.712  17.897  0.00  0.00    +0.000 A 
ATOM     21  C   UNL     1       2.797   5.461  18.637  0.00  0.00    +0.000 A 
BRANCH  16  23
ATOM     22  C   UNL     1       6.264   5.384  19.107  0.00  0.00    +0.000 C 
ATOM     23  O   UNL     1       4.966   5.465  19.696  0.00  0.00    +0.000 OA
ENDBRANCH  16  23
ENDBRANCH   1  21
TORSDOF 3
ENDMDL
MODEL 6
REMARK VINA RESULT:      -6.5      2.876      3.540
REMARK  Name = 
REMARK  4 active torsions:
REMARK  status: ('A' for Active; 'I' for Inactive)
REMARK    1  A    between atoms: C_1  and  O_2
REMARK    2  A    between atoms: O_2  and  C_3
REMARK    3  A    between atoms: C_8  and  N_9
REMARK    4  A    between atoms: N_12  and  C_13
REMARK                            x       y       z     vdW  Elec       q    Type
REMARK                         _______ _______ _______ _____ _____    ______ ____
ROOT
ATOM      1  N   UNL     1      -0.368  10.602  21.718  0.00  0.00    +0.000 N 
ATOM      2  C   UNL     1      -0.537  10.237  20.302  0.00  0.00    +0.000 C 
ATOM      3  C   UNL     1       0.808   9.727  19.744  0.00  0.00    +0.000 C 
ATOM      4  N   UNL     1       1.243   8.559  20.542  0.00  0.00    +0.000 N 
ATOM      5  C   UNL     1       1.373   8.833  21.990  0.00  0.00    +0.000 C 
ATOM      6  C   UNL     1       0.082   9.475  22.561  0.00  0.00    +0.000 C 
ENDROOT
BRANCH   4   7
ATOM      7  C   UNL     1       1.874   7.477  19.969  0.00  0.00    +0.000 A 
ATOM      8  C   UNL     1       1.973   6.237  20.601  0.00  0.00    +0.000 A 
ATOM      9  C   UNL     1       2.696   5.187  20.026  0.00  0.00    +0.000 A 
ATOM     10  C   UNL     1       3.320   5.389  18.796  0.00  0.00    +0.000 A 
ATOM     11  N   UNL     1       4.090   4.247  18.235  0.00  0.00    +0.000 N 
ATOM     12  O   UNL     1       4.117   3.186  18.879  0.00  0.00    +0.000 OA
ATOM     13  O   UNL     1       4.665   4.423  17.152  0.00  0.00    +0.000 OA
ATOM     14  N   UNL     1       3.236   6.577  18.139  0.00  0.00    +0.000 NA
ATOM     15  C   UNL     1       2.530   7.568  18.739  0.00  0.00    +0.000 A 
ENDBRANCH   4   7
BRANCH   1  21
ATOM     16  C   UNL     1      -0.187  13.043  22.140  0.00  0.00    +0.000 A 
ATOM     17  C   UNL     1      -0.725  14.190  22.752  0.00  0.00    +0.000 A 
ATOM     18  C   UNL     1      -1.919  14.139  23.457  0.00  0.00    +0.000 A 
ATOM     19  C   UNL     1      -2.595  12.938  23.564  0.00  0.00    +0.000 A 
ATOM     20  C   UNL     1      -2.070  11.790  22.963  0.00  0.00    +0.000 A 
ATOM     21  C   UNL     1      -0.854  11.793  22.240  0.00  0.00    +0.000 A 
BRANCH  16  23
ATOM     22  C   UNL     1       1.036  13.654  20.197  0.00  0.00    +0.000 C 
ATOM     23  O   UNL     1       1.043  13.097  21.512  0.00  0.00    +0.000 OA
ENDBRANCH  16  23
ENDBRANCH   1  21
TORSDOF 3
ENDMDL
MODEL 7
REMARK VINA RESULT:      -6.5      2.218      8.760
REMARK  Name = 
REMARK  4 active torsions:
REMARK  status: ('A' for Active; 'I' for Inactive)
REMARK    1  A    between atoms: C_1  and  O_2
REMARK    2  A    between atoms: O_2  and  C_3
REMARK    3  A    between atoms: C_8  and  N_9
REMARK    4  A    between atoms: N_12  and  C_13
REMARK                            x       y       z     vdW  Elec       q    Type
REMARK                         _______ _______ _______ _____ _____    ______ ____
ROOT
ATOM      1  N   UNL     1       2.573   6.801  18.859  0.00  0.00    +0.000 N 
ATOM      2  C   UNL     1       3.068   7.767  17.863  0.00  0.00    +0.000 C 
ATOM      3  C   UNL     1       1.953   8.785  17.546  0.00  0.00    +0.000 C 
ATOM      4  N   UNL     1       1.562   9.470  18.797  0.00  0.00    +0.000 N 
ATOM      5  C   UNL     1       1.113   8.555  19.870  0.00  0.00    +0.000 C 
ATOM      6  C   UNL     1       2.153   7.433  20.126  0.00  0.00    +0.000 C 
ENDROOT
BRANCH   4   7
ATOM      7  C   UNL     1       1.232  10.807  18.826  0.00  0.00    +0.000 A 
ATOM      8  C   UNL     1       2.078  11.806  18.341  0.00  0.00    +0.000 A 
ATOM      9  C   UNL     1       1.748  13.158  18.466  0.00  0.00    +0.000 A 
ATOM     10  C   UNL     1       0.547  13.507  19.082  0.00  0.00    +0.000 A 
ATOM     11  N   UNL     1       0.250  14.960  19.206  0.00  0.00    +0.000 N 
ATOM     12  O   UNL     1       1.071  15.767  18.742  0.00  0.00    +0.000 OA
ATOM     13  O   UNL     1      -0.806  15.281  19.769  0.00  0.00    +0.000 OA
ATOM     14  N   UNL     1      -0.313  12.566  19.556  0.00  0.00    +0.000 NA
ATOM     15  C   UNL     1       0.053  11.267  19.417  0.00  0.00    +0.000 A 
ENDBRANCH   4   7
BRANCH   1  21
ATOM     16  C   UNL     1       3.908   4.727  19.155  0.00  0.00    +0.000 A 
ATOM     17  C   UNL     1       4.034   3.347  18.915  0.00  0.00    +0.000 A 
ATOM     18  C   UNL     1       3.040   2.634  18.257  0.00  0.00    +0.000 A 
ATOM     19  C   UNL     1       1.904   3.292  17.826  0.00  0.00    +0.000 A 
ATOM     20  C   UNL     1       1.767   4.665  18.056  0.00  0.00    +0.000 A 
ATOM     21  C   UNL     1       2.756   5.432  18.716  0.00  0.00    +0.000 A 
BRANCH  16  23
ATOM     22  C   UNL     1       6.202   5.338  19.073  0.00  0.00    +0.000 C 
ATOM     23  O   UNL     1       4.942   5.433  19.739  0.00  0.00    +0.000 OA
ENDBRANCH  16  23
ENDBRANCH   1  21
TORSDOF 3
ENDMDL
MODEL 8
REMARK VINA RESULT:      -6.4      3.210      8.196
REMARK  Name = 
REMARK  4 active torsions:
REMARK  status: ('A' for Active; 'I' for Inactive)
REMARK    1  A    between atoms: C_1  and  O_2
REMARK    2  A    between atoms: O_2  and  C_3
REMARK    3  A    between atoms: C_8  and  N_9
REMARK    4  A    between atoms: N_12  and  C_13
REMARK                            x       y       z     vdW  Elec       q    Type
REMARK                         _______ _______ _______ _____ _____    ______ ____
ROOT
ATOM      1  N   UNL     1       4.161   6.392  17.918  0.00  0.00    +0.000 N 
ATOM      2  C   UNL     1       3.933   7.809  17.590  0.00  0.00    +0.000 C 
ATOM      3  C   UNL     1       2.460   8.167  17.880  0.00  0.00    +0.000 C 
ATOM      4  N   UNL     1       2.177   7.903  19.308  0.00  0.00    +0.000 N 
ATOM      5  C   UNL     1       2.446   6.511  19.728  0.00  0.00    +0.000 C 
ATOM      6  C   UNL     1       3.878   6.067  19.332  0.00  0.00    +0.000 C 
ENDROOT
BRANCH   4   7
ATOM      7  C   UNL     1       1.354   8.719  20.052  0.00  0.00    +0.000 A 
ATOM      8  C   UNL     1       1.048   8.468  21.390  0.00  0.00    +0.000 A 
ATOM      9  C   UNL     1       0.140   9.269  22.088  0.00  0.00    +0.000 A 
ATOM     10  C   UNL     1      -0.463  10.340  21.430  0.00  0.00    +0.000 A 
ATOM     11  N   UNL     1      -1.434  11.152  22.211  0.00  0.00    +0.000 N 
ATOM     12  O   UNL     1      -1.636  10.843  23.397  0.00  0.00    +0.000 OA
ATOM     13  O   UNL     1      -1.989  12.094  21.629  0.00  0.00    +0.000 OA
ATOM     14  N   UNL     1      -0.182  10.629  20.130  0.00  0.00    +0.000 NA
ATOM     15  C   UNL     1       0.700   9.820  19.493  0.00  0.00    +0.000 A 
ENDBRANCH   4   7
BRANCH   1  21
ATOM     16  C   UNL     1       6.065   5.846  16.419  0.00  0.00    +0.000 A 
ATOM     17  C   UNL     1       6.651   4.937  15.519  0.00  0.00    +0.000 A 
ATOM     18  C   UNL     1       6.059   3.712  15.243  0.00  0.00    +0.000 A 
ATOM     19  C   UNL     1       4.870   3.376  15.861  0.00  0.00    +0.000 A 
ATOM     20  C   UNL     1       4.275   4.272  16.756  0.00  0.00    +0.000 A 
ATOM     21  C   UNL     1       4.838   5.534  17.063  0.00  0.00    +0.000 A 
BRANCH  16  23
ATOM     22  C   UNL     1       7.599   7.167  17.661  0.00  0.00    +0.000 C 
ATOM     23  O   UNL     1       6.627   7.093  16.618  0.00  0.00    +0.000 OA
ENDBRANCH  16  23
ENDBRANCH   1  21
TORSDOF 3
ENDMDL
MODEL 9
REMARK VINA RESULT:      -6.4      2.813      8.062
REMARK  Name = 
REMARK  4 active torsions:
REMARK  status: ('A' for Active; 'I' for Inactive)
REMARK    1  A    between atoms: C_1  and  O_2
REMARK    2  A    between atoms: O_2  and  C_3
REMARK    3  A    between atoms: C_8  and  N_9
REMARK    4  A    between atoms: N_12  and  C_13
REMARK                            x       y       z     vdW  Elec       q    Type
REMARK                         _______ _______ _______ _____ _____    ______ ____
ROOT
ATOM      1  N   UNL     1       3.952   6.437  17.789  0.00  0.00    +0.000 N 
ATOM      2  C   UNL     1       3.706   7.841  17.421  0.00  0.00    +0.000 C 
ATOM      3  C   UNL     1       2.239   8.200  17.739  0.00  0.00    +0.000 C 
ATOM      4  N   UNL     1       1.997   7.982  19.183  0.00  0.00    +0.000 N 
ATOM      5  C   UNL     1       2.287   6.606  19.642  0.00  0.00    +0.000 C 
ATOM      6  C   UNL     1       3.711   6.158  19.220  0.00  0.00    +0.000 C 
ENDROOT
BRANCH   4   7
ATOM      7  C   UNL     1       1.190   8.817  19.922  0.00  0.00    +0.000 A 
ATOM      8  C   UNL     1       0.447   9.852  19.352  0.00  0.00    +0.000 A 
ATOM      9  C   UNL     1      -0.293  10.735  20.144  0.00  0.00    +0.000 A 
ATOM     10  C   UNL     1      -0.289  10.567  21.528  0.00  0.00    +0.000 A 
ATOM     11  N   UNL     1      -1.079  11.542  22.327  0.00  0.00    +0.000 N 
ATOM     12  O   UNL     1      -1.703  12.428  21.721  0.00  0.00    +0.000 OA
ATOM     13  O   UNL     1      -1.067  11.412  23.560  0.00  0.00    +0.000 OA
ATOM     14  N   UNL     1       0.408   9.563  22.124  0.00  0.00    +0.000 NA
ATOM     15  C   UNL     1       1.116   8.736  21.315  0.00  0.00    +0.000 A 
ENDBRANCH   4   7
BRANCH   1  21
ATOM     16  C   UNL     1       4.492   4.140  17.010  0.00  0.00    +0.000 A 
ATOM     17  C   UNL     1       5.244   3.319  16.152  0.00  0.00    +0.000 A 
ATOM     18  C   UNL     1       6.113   3.861  15.214  0.00  0.00    +0.000 A 
ATOM     19  C   UNL     1       6.245   5.233  15.120  0.00  0.00    +0.000 A 
ATOM     20  C   UNL     1       5.504   6.060  15.970  0.00  0.00    +0.000 A 
ATOM     21  C   UNL     1       4.611   5.554  16.945  0.00  0.00    +0.000 A 
BRANCH  16  23
ATOM     22  C   UNL     1       2.508   2.938  17.524  0.00  0.00    +0.000 C 
ATOM     23  O   UNL     1       3.694   3.582  17.991  0.00  0.00    +0.000 OA
ENDBRANCH  16  23
ENDBRANCH   1  21
TORSDOF 3
ENDMDL
