MODEL 1
REMARK VINA RESULT:      -6.8      0.000      0.000
REMARK  Name = 
REMARK  14 active torsions:
REMARK  status: ('A' for Active; 'I' for Inactive)
REMARK    1  A    between atoms: C_1  and  C_2
REMARK    2  A    between atoms: C_2  and  C_3
REMARK    3  A    between atoms: C_3  and  C_4
REMARK    4  A    between atoms: C_4  and  O_6
REMARK    5  A    between atoms: O_6  and  C_7
REMARK    6  A    between atoms: C_7  and  S_8
REMARK    7  A    between atoms: S_8  and  C_9
REMARK    8  A    between atoms: C_14  and  C_15
REMARK    9  A    between atoms: N_17  and  C_18
REMARK   10  A    between atoms: C_18  and  C_19
REMARK   11  A    between atoms: N_21  and  C_22
REMARK   12  A    between atoms: C_22  and  C_23
REMARK   13  A    between atoms: C_23  and  O_25
REMARK   14  A    between atoms: O_25  and  C_26
REMARK                            x       y       z     vdW  Elec       q    Type
REMARK                         _______ _______ _______ _____ _____    ______ ____
ROOT
ATOM      1  C   UNL     1       4.672   4.367  18.654  0.00  0.00    +0.000 A 
ATOM      2  C   UNL     1       4.536   3.029  19.066  0.00  0.00    +0.000 A 
ATOM      3  C   UNL     1       3.415   2.269  18.725  0.00  0.00    +0.000 A 
ATOM      4  C   UNL     1       2.403   2.834  17.965  0.00  0.00    +0.000 A 
ATOM      5  C   UNL     1       2.494   4.180  17.587  0.00  0.00    +0.000 A 
ATOM      6  C   UNL     1       3.606   4.975  17.954  0.00  0.00    +0.000 A 
ENDROOT
BRANCH   6   7
ATOM      7  C   UNL     1       3.529   6.421  17.546  0.00  0.00    +0.000 C 
ATOM      8  O   UNL     1       4.361   6.880  16.763  0.00  0.00    +0.000 OA
ATOM      9  N   UNL     1       2.485   7.174  18.022  0.00  0.00    +0.000 N 
ATOM     10  H   UNL     1       1.930   6.824  18.805  0.00  0.00    +0.000 HD
BRANCH   9  11
ATOM     11  C   UNL     1       2.325   8.583  17.687  0.00  0.00    +0.000 C 
BRANCH  11  12
ATOM     12  C   UNL     1       1.542   9.355  18.767  0.00  0.00    +0.000 C 
ATOM     13  O   UNL     1       1.210   8.846  19.843  0.00  0.00    +0.000 OA
ATOM     14  N   UNL     1       1.244  10.666  18.453  0.00  0.00    +0.000 N 
ATOM     15  H   UNL     1       1.660  11.105  17.639  0.00  0.00    +0.000 HD
BRANCH  14  16
ATOM     16  C   UNL     1       0.529  11.530  19.394  0.00  0.00    +0.000 C 
BRANCH  16  17
ATOM     17  C   UNL     1       1.389  12.687  19.892  0.00  0.00    +0.000 C 
ATOM     18  O   UNL     1       1.742  12.837  21.057  0.00  0.00    +0.000 OA
BRANCH  17  19
ATOM     19  O   UNL     1       1.683  13.536  18.865  0.00  0.00    +0.000 OA
ATOM     20  C   UNL     1       3.074  13.846  18.725  0.00  0.00    +0.000 C 
ENDBRANCH  17  19
ENDBRANCH  16  17
ENDBRANCH  14  16
ENDBRANCH  11  12
ENDBRANCH   9  11
ENDBRANCH   6   7
BRANCH   1  21
ATOM     21  S   UNL     1       6.211   5.182  19.107  0.00  0.00    +0.000 S 
BRANCH  21  22
ATOM     22  C   UNL     1       7.296   4.752  17.681  0.00  0.00    +0.000 C 
BRANCH  22  23
ATOM     23  O   UNL     1       6.545   4.138  16.613  0.00  0.00    +0.000 OA
BRANCH  23  24
ATOM     24  C   UNL     1       6.792   4.642  15.382  0.00  0.00    +0.000 C 
ATOM     25  O   UNL     1       7.733   5.378  15.092  0.00  0.00    +0.000 OA
BRANCH  24  26
ATOM     26  C   UNL     1       5.773   4.169  14.375  0.00  0.00    +0.000 C 
BRANCH  26  28
ATOM     27  C   UNL     1       5.523   3.093  12.090  0.00  0.00    +0.000 C 
ATOM     28  C   UNL     1       6.393   3.954  12.995  0.00  0.00    +0.000 C 
ENDBRANCH  26  28
ENDBRANCH  24  26
ENDBRANCH  23  24
ENDBRANCH  22  23
ENDBRANCH  21  22
ENDBRANCH   1  21
TORSDOF 12
ENDMDL
MODEL 2
REMARK VINA RESULT:      -6.7      4.197      4.856
REMARK  Name = 
REMARK  14 active torsions:
REMARK  status: ('A' for Active; 'I' for Inactive)
REMARK    1  A    between atoms: C_1  and  C_2
REMARK    2  A    between atoms: C_2  and  C_3
REMARK    3  A    between atoms: C_3  and  C_4
REMARK    4  A    between atoms: C_4  and  O_6
REMARK    5  A    between atoms: O_6  and  C_7
REMARK    6  A    between atoms: C_7  and  S_8
REMARK    7  A    between atoms: S_8  and  C_9
REMARK    8  A    between atoms: C_14  and  C_15
REMARK    9  A    between atoms: N_17  and  C_18
REMARK   10  A    between atoms: C_18  and  C_19
REMARK   11  A    between atoms: N_21  and  C_22
REMARK   12  A    between atoms: C_22  and  C_23
REMARK   13  A    between atoms: C_23  and  O_25
REMARK   14  A    between atoms: O_25  and  C_26
REMARK                            x       y       z     vdW  Elec       q    Type
REMARK                         _______ _______ _______ _____ _____    ______ ____
ROOT
ATOM      1  C   UNL     1       4.158   5.226  17.888  0.00  0.00    +0.000 A 
ATOM      2  C   UNL     1       3.046   4.459  17.495  0.00  0.00    +0.000 A 
ATOM      3  C   UNL     1       2.793   3.201  18.046  0.00  0.00    +0.000 A 
ATOM      4  C   UNL     1       3.651   2.682  19.003  0.00  0.00    +0.000 A 
ATOM      5  C   UNL     1       4.792   3.407  19.372  0.00  0.00    +0.000 A 
ATOM      6  C   UNL     1       5.083   4.667  18.797  0.00  0.00    +0.000 A 
ENDROOT
BRANCH   6   7
ATOM      7  C   UNL     1       6.381   5.291  19.231  0.00  0.00    +0.000 C 
ATOM      8  O   UNL     1       6.912   4.929  20.281  0.00  0.00    +0.000 OA
ATOM      9  N   UNL     1       6.967   6.214  18.400  0.00  0.00    +0.000 N 
ATOM     10  H   UNL     1       6.419   6.626  17.643  0.00  0.00    +0.000 HD
BRANCH   9  11
ATOM     11  C   UNL     1       8.221   6.876  18.733  0.00  0.00    +0.000 C 
BRANCH  11  12
ATOM     12  C   UNL     1       8.260   8.335  18.241  0.00  0.00    +0.000 C 
ATOM     13  O   UNL     1       7.596   8.733  17.278  0.00  0.00    +0.000 OA
ATOM     14  N   UNL     1       9.086   9.177  18.960  0.00  0.00    +0.000 N 
ATOM     15  H   UNL     1       9.495   8.867  19.835  0.00  0.00    +0.000 HD
BRANCH  14  16
ATOM     16  C   UNL     1       9.203  10.597  18.626  0.00  0.00    +0.000 C 
BRANCH  16  17
ATOM     17  C   UNL     1       9.227  11.487  19.864  0.00  0.00    +0.000 C 
ATOM     18  O   UNL     1       9.475  11.091  20.999  0.00  0.00    +0.000 OA
BRANCH  17  19
ATOM     19  O   UNL     1       8.908  12.772  19.531  0.00  0.00    +0.000 OA
ATOM     20  C   UNL     1      10.012  13.684  19.546  0.00  0.00    +0.000 C 
ENDBRANCH  17  19
ENDBRANCH  16  17
ENDBRANCH  14  16
ENDBRANCH  11  12
ENDBRANCH   9  11
ENDBRANCH   6   7
BRANCH   1  21
ATOM     21  S   UNL     1       4.296   6.858  17.141  0.00  0.00    +0.000 S 
BRANCH  21  22
ATOM     22  C   UNL     1       4.948   6.449  15.467  0.00  0.00    +0.000 C 
BRANCH  22  23
ATOM     23  O   UNL     1       6.378   6.258  15.490  0.00  0.00    +0.000 OA
BRANCH  23  24
ATOM     24  C   UNL     1       6.780   4.969  15.402  0.00  0.00    +0.000 C 
ATOM     25  O   UNL     1       7.798   4.507  15.911  0.00  0.00    +0.000 OA
BRANCH  24  26
ATOM     26  C   UNL     1       5.804   4.136  14.608  0.00  0.00    +0.000 C 
BRANCH  26  28
ATOM     27  C   UNL     1       5.259   3.367  12.251  0.00  0.00    +0.000 C 
ATOM     28  C   UNL     1       6.353   3.774  13.229  0.00  0.00    +0.000 C 
ENDBRANCH  26  28
ENDBRANCH  24  26
ENDBRANCH  23  24
ENDBRANCH  22  23
ENDBRANCH  21  22
ENDBRANCH   1  21
TORSDOF 12
ENDMDL
MODEL 3
REMARK VINA RESULT:      -6.6      3.870      8.296
REMARK  Name = 
REMARK  14 active torsions:
REMARK  status: ('A' for Active; 'I' for Inactive)
REMARK    1  A    between atoms: C_1  and  C_2
REMARK    2  A    between atoms: C_2  and  C_3
REMARK    3  A    between atoms: C_3  and  C_4
REMARK    4  A    between atoms: C_4  and  O_6
REMARK    5  A    between atoms: O_6  and  C_7
REMARK    6  A    between atoms: C_7  and  S_8
REMARK    7  A    between atoms: S_8  and  C_9
REMARK    8  A    between atoms: C_14  and  C_15
REMARK    9  A    between atoms: N_17  and  C_18
REMARK   10  A    between atoms: C_18  and  C_19
REMARK   11  A    between atoms: N_21  and  C_22
REMARK   12  A    between atoms: C_22  and  C_23
REMARK   13  A    between atoms: C_23  and  O_25
REMARK   14  A    between atoms: O_25  and  C_26
REMARK                            x       y       z     vdW  Elec       q    Type
REMARK                         _______ _______ _______ _____ _____    ______ ____
ROOT
ATOM      1  C   UNL     1       3.920   5.838  18.766  0.00  0.00    +0.000 A 
ATOM      2  C   UNL     1       2.724   6.370  19.280  0.00  0.00    +0.000 A 
ATOM      3  C   UNL     1       2.135   7.511  18.730  0.00  0.00    +0.000 A 
ATOM      4  C   UNL     1       2.734   8.147  17.655  0.00  0.00    +0.000 A 
ATOM      5  C   UNL     1       3.952   7.664  17.159  0.00  0.00    +0.000 A 
ATOM      6  C   UNL     1       4.581   6.530  17.727  0.00  0.00    +0.000 A 
ENDROOT
BRANCH   6   7
ATOM      7  C   UNL     1       5.922   6.175  17.143  0.00  0.00    +0.000 C 
ATOM      8  O   UNL     1       6.929   6.775  17.518  0.00  0.00    +0.000 OA
ATOM      9  N   UNL     1       5.984   5.141  16.242  0.00  0.00    +0.000 N 
ATOM     10  H   UNL     1       5.123   4.795  15.817  0.00  0.00    +0.000 HD
BRANCH   9  11
ATOM     11  C   UNL     1       7.233   4.725  15.620  0.00  0.00    +0.000 C 
BRANCH  11  12
ATOM     12  C   UNL     1       7.134   4.680  14.083  0.00  0.00    +0.000 C 
ATOM     13  O   UNL     1       7.372   5.660  13.370  0.00  0.00    +0.000 OA
ATOM     14  N   UNL     1       6.767   3.459  13.553  0.00  0.00    +0.000 N 
ATOM     15  H   UNL     1       6.730   2.635  14.143  0.00  0.00    +0.000 HD
BRANCH  14  16
ATOM     16  C   UNL     1       6.658   3.259  12.107  0.00  0.00    +0.000 C 
BRANCH  16  17
ATOM     17  C   UNL     1       5.242   2.891  11.674  0.00  0.00    +0.000 C 
ATOM     18  O   UNL     1       4.255   3.595  11.861  0.00  0.00    +0.000 OA
BRANCH  17  19
ATOM     19  O   UNL     1       5.232   1.663  11.079  0.00  0.00    +0.000 OA
ATOM     20  C   UNL     1       6.505   1.008  11.040  0.00  0.00    +0.000 C 
ENDBRANCH  17  19
ENDBRANCH  16  17
ENDBRANCH  14  16
ENDBRANCH  11  12
ENDBRANCH   9  11
ENDBRANCH   6   7
BRANCH   1  21
ATOM     21  S   UNL     1       4.505   4.319  19.534  0.00  0.00    +0.000 S 
BRANCH  21  22
ATOM     22  C   UNL     1       3.947   3.048  18.322  0.00  0.00    +0.000 C 
BRANCH  22  23
ATOM     23  O   UNL     1       2.744   2.386  18.769  0.00  0.00    +0.000 OA
BRANCH  23  24
ATOM     24  C   UNL     1       1.594   3.026  18.455  0.00  0.00    +0.000 C 
ATOM     25  O   UNL     1       1.313   3.478  17.348  0.00  0.00    +0.000 OA
BRANCH  24  26
ATOM     26  C   UNL     1       0.663   3.104  19.639  0.00  0.00    +0.000 C 
BRANCH  26  28
ATOM     27  C   UNL     1       1.482   2.343  21.918  0.00  0.00    +0.000 C 
ATOM     28  C   UNL     1       1.400   3.490  20.920  0.00  0.00    +0.000 C 
ENDBRANCH  26  28
ENDBRANCH  24  26
ENDBRANCH  23  24
ENDBRANCH  22  23
ENDBRANCH  21  22
ENDBRANCH   1  21
TORSDOF 12
ENDMDL
MODEL 4
REMARK VINA RESULT:      -6.6      2.964      3.861
REMARK  Name = 
REMARK  14 active torsions:
REMARK  status: ('A' for Active; 'I' for Inactive)
REMARK    1  A    between atoms: C_1  and  C_2
REMARK    2  A    between atoms: C_2  and  C_3
REMARK    3  A    between atoms: C_3  and  C_4
REMARK    4  A    between atoms: C_4  and  O_6
REMARK    5  A    between atoms: O_6  and  C_7
REMARK    6  A    between atoms: C_7  and  S_8
REMARK    7  A    between atoms: S_8  and  C_9
REMARK    8  A    between atoms: C_14  and  C_15
REMARK    9  A    between atoms: N_17  and  C_18
REMARK   10  A    between atoms: C_18  and  C_19
REMARK   11  A    between atoms: N_21  and  C_22
REMARK   12  A    between atoms: C_22  and  C_23
REMARK   13  A    between atoms: C_23  and  O_25
REMARK   14  A    between atoms: O_25  and  C_26
REMARK                            x       y       z     vdW  Elec       q    Type
REMARK                         _______ _______ _______ _____ _____    ______ ____
ROOT
ATOM      1  C   UNL     1       3.374   4.122  19.823  0.00  0.00    +0.000 A 
ATOM      2  C   UNL     1       3.364   2.774  20.225  0.00  0.00    +0.000 A 
ATOM      3  C   UNL     1       2.230   2.189  20.793  0.00  0.00    +0.000 A 
ATOM      4  C   UNL     1       1.082   2.943  20.974  0.00  0.00    +0.000 A 
ATOM      5  C   UNL     1       1.086   4.300  20.627  0.00  0.00    +0.000 A 
ATOM      6  C   UNL     1       2.237   4.919  20.083  0.00  0.00    +0.000 A 
ENDROOT
BRANCH   6   7
ATOM      7  C   UNL     1       2.119   6.398  19.834  0.00  0.00    +0.000 C 
ATOM      8  O   UNL     1       2.384   6.853  18.722  0.00  0.00    +0.000 OA
ATOM      9  N   UNL     1       1.657   7.192  20.855  0.00  0.00    +0.000 N 
ATOM     10  H   UNL     1       1.626   6.820  21.805  0.00  0.00    +0.000 HD
BRANCH   9  11
ATOM     11  C   UNL     1       1.511   8.634  20.713  0.00  0.00    +0.000 C 
BRANCH  11  12
ATOM     12  C   UNL     1       1.038   9.305  22.017  0.00  0.00    +0.000 C 
ATOM     13  O   UNL     1       1.801   9.546  22.958  0.00  0.00    +0.000 OA
ATOM     14  N   UNL     1      -0.304   9.628  22.059  0.00  0.00    +0.000 N 
ATOM     15  H   UNL     1      -0.872   9.564  21.222  0.00  0.00    +0.000 HD
BRANCH  14  16
ATOM     16  C   UNL     1      -0.890  10.294  23.223  0.00  0.00    +0.000 C 
BRANCH  16  17
ATOM     17  C   UNL     1      -1.324  11.724  22.919  0.00  0.00    +0.000 C 
ATOM     18  O   UNL     1      -0.611  12.568  22.384  0.00  0.00    +0.000 OA
BRANCH  17  19
ATOM     19  O   UNL     1      -2.603  11.933  23.348  0.00  0.00    +0.000 OA
ATOM     20  C   UNL     1      -3.438  12.631  22.418  0.00  0.00    +0.000 C 
ENDBRANCH  17  19
ENDBRANCH  16  17
ENDBRANCH  14  16
ENDBRANCH  11  12
ENDBRANCH   9  11
ENDBRANCH   6   7
BRANCH   1  21
ATOM     21  S   UNL     1       4.885   4.701  19.035  0.00  0.00    +0.000 S 
BRANCH  21  22
ATOM     22  C   UNL     1       4.519   4.398  17.254  0.00  0.00    +0.000 C 
BRANCH  22  23
ATOM     23  O   UNL     1       5.690   4.594  16.434  0.00  0.00    +0.000 OA
BRANCH  23  24
ATOM     24  C   UNL     1       6.045   5.886  16.250  0.00  0.00    +0.000 C 
ATOM     25  O   UNL     1       5.319   6.763  15.787  0.00  0.00    +0.000 OA
BRANCH  24  26
ATOM     26  C   UNL     1       7.459   6.144  16.708  0.00  0.00    +0.000 C 
BRANCH  26  28
ATOM     27  C   UNL     1       7.870   8.473  17.631  0.00  0.00    +0.000 C 
ATOM     28  C   UNL     1       7.503   7.030  17.951  0.00  0.00    +0.000 C 
ENDBRANCH  26  28
ENDBRANCH  24  26
ENDBRANCH  23  24
ENDBRANCH  22  23
ENDBRANCH  21  22
ENDBRANCH   1  21
TORSDOF 12
ENDMDL
MODEL 5
REMARK VINA RESULT:      -6.5      3.422      5.095
REMARK  Name = 
REMARK  14 active torsions:
REMARK  status: ('A' for Active; 'I' for Inactive)
REMARK    1  A    between atoms: C_1  and  C_2
REMARK    2  A    between atoms: C_2  and  C_3
REMARK    3  A    between atoms: C_3  and  C_4
REMARK    4  A    between atoms: C_4  and  O_6
REMARK    5  A    between atoms: O_6  and  C_7
REMARK    6  A    between atoms: C_7  and  S_8
REMARK    7  A    between atoms: S_8  and  C_9
REMARK    8  A    between atoms: C_14  and  C_15
REMARK    9  A    between atoms: N_17  and  C_18
REMARK   10  A    between atoms: C_18  and  C_19
REMARK   11  A    between atoms: N_21  and  C_22
REMARK   12  A    between atoms: C_22  and  C_23
REMARK   13  A    between atoms: C_23  and  O_25
REMARK   14  A    between atoms: O_25  and  C_26
REMARK                            x       y       z     vdW  Elec       q    Type
REMARK                         _______ _______ _______ _____ _____    ______ ____
ROOT
ATOM      1  C   UNL     1       6.339   5.916  16.974  0.00  0.00    +0.000 A 
ATOM      2  C   UNL     1       7.315   6.928  16.954  0.00  0.00    +0.000 A 
ATOM      3  C   UNL     1       8.152   7.158  18.049  0.00  0.00    +0.000 A 
ATOM      4  C   UNL     1       8.028   6.381  19.189  0.00  0.00    +0.000 A 
ATOM      5  C   UNL     1       7.029   5.400  19.249  0.00  0.00    +0.000 A 
ATOM      6  C   UNL     1       6.148   5.177  18.163  0.00  0.00    +0.000 A 
ENDROOT
BRANCH   6   7
ATOM      7  C   UNL     1       5.077   4.148  18.402  0.00  0.00    +0.000 C 
ATOM      8  O   UNL     1       4.186   3.990  17.568  0.00  0.00    +0.000 OA
ATOM      9  N   UNL     1       5.165   3.370  19.529  0.00  0.00    +0.000 N 
ATOM     10  H   UNL     1       5.797   3.648  20.282  0.00  0.00    +0.000 HD
BRANCH   9  11
ATOM     11  C   UNL     1       4.175   2.350  19.850  0.00  0.00    +0.000 C 
BRANCH  11  12
ATOM     12  C   UNL     1       2.898   2.949  20.469  0.00  0.00    +0.000 C 
ATOM     13  O   UNL     1       2.171   2.317  21.242  0.00  0.00    +0.000 OA
ATOM     14  N   UNL     1       2.624   4.253  20.106  0.00  0.00    +0.000 N 
ATOM     15  H   UNL     1       3.313   4.799  19.600  0.00  0.00    +0.000 HD
BRANCH  14  16
ATOM     16  C   UNL     1       1.459   4.962  20.637  0.00  0.00    +0.000 C 
BRANCH  16  17
ATOM     17  C   UNL     1       1.630   6.478  20.595  0.00  0.00    +0.000 C 
ATOM     18  O   UNL     1       0.885   7.276  21.155  0.00  0.00    +0.000 OA
BRANCH  17  19
ATOM     19  O   UNL     1       2.709   6.813  19.830  0.00  0.00    +0.000 OA
ATOM     20  C   UNL     1       2.388   7.479  18.604  0.00  0.00    +0.000 C 
ENDBRANCH  17  19
ENDBRANCH  16  17
ENDBRANCH  14  16
ENDBRANCH  11  12
ENDBRANCH   9  11
ENDBRANCH   6   7
BRANCH   1  21
ATOM     21  S   UNL     1       5.397   5.696  15.457  0.00  0.00    +0.000 S 
BRANCH  21  22
ATOM     22  C   UNL     1       6.454   4.506  14.529  0.00  0.00    +0.000 C 
BRANCH  22  23
ATOM     23  O   UNL     1       5.668   3.676  13.648  0.00  0.00    +0.000 OA
BRANCH  23  24
ATOM     24  C   UNL     1       6.140   3.582  12.384  0.00  0.00    +0.000 C 
ATOM     25  O   UNL     1       7.187   4.083  11.978  0.00  0.00    +0.000 OA
BRANCH  24  26
ATOM     26  C   UNL     1       5.228   2.756  11.511  0.00  0.00    +0.000 C 
BRANCH  26  28
ATOM     27  C   UNL     1       3.427   3.784  10.048  0.00  0.00    +0.000 C 
ATOM     28  C   UNL     1       3.817   3.337  11.450  0.00  0.00    +0.000 C 
ENDBRANCH  26  28
ENDBRANCH  24  26
ENDBRANCH  23  24
ENDBRANCH  22  23
ENDBRANCH  21  22
ENDBRANCH   1  21
TORSDOF 12
ENDMDL
MODEL 6
REMARK VINA RESULT:      -6.5      2.336      3.262
REMARK  Name = 
REMARK  14 active torsions:
REMARK  status: ('A' for Active; 'I' for Inactive)
REMARK    1  A    between atoms: C_1  and  C_2
REMARK    2  A    between atoms: C_2  and  C_3
REMARK    3  A    between atoms: C_3  and  C_4
REMARK    4  A    between atoms: C_4  and  O_6
REMARK    5  A    between atoms: O_6  and  C_7
REMARK    6  A    between atoms: C_7  and  S_8
REMARK    7  A    between atoms: S_8  and  C_9
REMARK    8  A    between atoms: C_14  and  C_15
REMARK    9  A    between atoms: N_17  and  C_18
REMARK   10  A    between atoms: C_18  and  C_19
REMARK   11  A    between atoms: N_21  and  C_22
REMARK   12  A    between atoms: C_22  and  C_23
REMARK   13  A    between atoms: C_23  and  O_25
REMARK   14  A    between atoms: O_25  and  C_26
REMARK                            x       y       z     vdW  Elec       q    Type
REMARK                         _______ _______ _______ _____ _____    ______ ____
ROOT
ATOM      1  C   UNL     1       2.443   3.411  18.877  0.00  0.00    +0.000 A 
ATOM      2  C   UNL     1       1.997   2.253  19.539  0.00  0.00    +0.000 A 
ATOM      3  C   UNL     1       1.661   2.269  20.895  0.00  0.00    +0.000 A 
ATOM      4  C   UNL     1       1.769   3.445  21.619  0.00  0.00    +0.000 A 
ATOM      5  C   UNL     1       2.260   4.598  20.992  0.00  0.00    +0.000 A 
ATOM      6  C   UNL     1       2.638   4.591  19.628  0.00  0.00    +0.000 A 
ENDROOT
BRANCH   6   7
ATOM      7  C   UNL     1       3.222   5.879  19.114  0.00  0.00    +0.000 C 
ATOM      8  O   UNL     1       4.398   6.154  19.350  0.00  0.00    +0.000 OA
ATOM      9  N   UNL     1       2.427   6.687  18.339  0.00  0.00    +0.000 N 
ATOM     10  H   UNL     1       1.418   6.528  18.319  0.00  0.00    +0.000 HD
BRANCH   9  11
ATOM     11  C   UNL     1       2.899   7.954  17.797  0.00  0.00    +0.000 C 
BRANCH  11  12
ATOM     12  C   UNL     1       2.023   9.142  18.242  0.00  0.00    +0.000 C 
ATOM     13  O   UNL     1       1.857  10.147  17.543  0.00  0.00    +0.000 OA
ATOM     14  N   UNL     1       1.424   9.001  19.479  0.00  0.00    +0.000 N 
ATOM     15  H   UNL     1       1.448   8.109  19.959  0.00  0.00    +0.000 HD
BRANCH  14  16
ATOM     16  C   UNL     1       0.543  10.036  20.020  0.00  0.00    +0.000 C 
BRANCH  16  17
ATOM     17  C   UNL     1       0.864  10.374  21.472  0.00  0.00    +0.000 C 
ATOM     18  O   UNL     1       1.407   9.606  22.260  0.00  0.00    +0.000 OA
BRANCH  17  19
ATOM     19  O   UNL     1       0.438  11.636  21.771  0.00  0.00    +0.000 OA
ATOM     20  C   UNL     1      -0.836  11.697  22.422  0.00  0.00    +0.000 C 
ENDBRANCH  17  19
ENDBRANCH  16  17
ENDBRANCH  14  16
ENDBRANCH  11  12
ENDBRANCH   9  11
ENDBRANCH   6   7
BRANCH   1  21
ATOM     21  S   UNL     1       2.757   3.243  17.113  0.00  0.00    +0.000 S 
BRANCH  21  22
ATOM     22  C   UNL     1       4.575   3.535  17.027  0.00  0.00    +0.000 C 
BRANCH  22  23
ATOM     23  O   UNL     1       4.948   4.175  15.788  0.00  0.00    +0.000 OA
BRANCH  23  24
ATOM     24  C   UNL     1       6.131   4.831  15.821  0.00  0.00    +0.000 C 
ATOM     25  O   UNL     1       6.601   5.493  14.899  0.00  0.00    +0.000 OA
BRANCH  24  26
ATOM     26  C   UNL     1       6.814   4.674  17.157  0.00  0.00    +0.000 C 
BRANCH  26  28
ATOM     27  C   UNL     1       7.882   5.906  19.102  0.00  0.00    +0.000 C 
ATOM     28  C   UNL     1       7.372   6.000  17.671  0.00  0.00    +0.000 C 
ENDBRANCH  26  28
ENDBRANCH  24  26
ENDBRANCH  23  24
ENDBRANCH  22  23
ENDBRANCH  21  22
ENDBRANCH   1  21
TORSDOF 12
ENDMDL
MODEL 7
REMARK VINA RESULT:      -6.5      1.812      1.993
REMARK  Name = 
REMARK  14 active torsions:
REMARK  status: ('A' for Active; 'I' for Inactive)
REMARK    1  A    between atoms: C_1  and  C_2
REMARK    2  A    between atoms: C_2  and  C_3
REMARK    3  A    between atoms: C_3  and  C_4
REMARK    4  A    between atoms: C_4  and  O_6
REMARK    5  A    between atoms: O_6  and  C_7
REMARK    6  A    between atoms: C_7  and  S_8
REMARK    7  A    between atoms: S_8  and  C_9
REMARK    8  A    between atoms: C_14  and  C_15
REMARK    9  A    between atoms: N_17  and  C_18
REMARK   10  A    between atoms: C_18  and  C_19
REMARK   11  A    between atoms: N_21  and  C_22
REMARK   12  A    between atoms: C_22  and  C_23
REMARK   13  A    between atoms: C_23  and  O_25
REMARK   14  A    between atoms: O_25  and  C_26
REMARK                            x       y       z     vdW  Elec       q    Type
REMARK                         _______ _______ _______ _____ _____    ______ ____
ROOT
ATOM      1  C   UNL     1       3.995   4.664  18.676  0.00  0.00    +0.000 A 
ATOM      2  C   UNL     1       3.994   3.326  18.244  0.00  0.00    +0.000 A 
ATOM      3  C   UNL     1       2.852   2.734  17.699  0.00  0.00    +0.000 A 
ATOM      4  C   UNL     1       1.684   3.470  17.578  0.00  0.00    +0.000 A 
ATOM      5  C   UNL     1       1.648   4.789  18.049  0.00  0.00    +0.000 A 
ATOM      6  C   UNL     1       2.785   5.393  18.636  0.00  0.00    +0.000 A 
ENDROOT
BRANCH   6   7
ATOM      7  C   UNL     1       2.575   6.785  19.167  0.00  0.00    +0.000 C 
ATOM      8  O   UNL     1       2.784   7.754  18.439  0.00  0.00    +0.000 OA
ATOM      9  N   UNL     1       2.095   6.925  20.446  0.00  0.00    +0.000 N 
ATOM     10  H   UNL     1       2.111   6.124  21.079  0.00  0.00    +0.000 HD
BRANCH   9  11
ATOM     11  C   UNL     1       1.862   8.230  21.051  0.00  0.00    +0.000 C 
BRANCH  11  12
ATOM     12  C   UNL     1       0.437   8.751  20.785  0.00  0.00    +0.000 C 
ATOM     13  O   UNL     1      -0.531   8.432  21.483  0.00  0.00    +0.000 OA
ATOM     14  N   UNL     1       0.316   9.612  19.712  0.00  0.00    +0.000 N 
ATOM     15  H   UNL     1       1.143   9.979  19.256  0.00  0.00    +0.000 HD
BRANCH  14  16
ATOM     16  C   UNL     1      -0.972  10.208  19.356  0.00  0.00    +0.000 C 
BRANCH  16  17
ATOM     17  C   UNL     1      -1.142  11.613  19.926  0.00  0.00    +0.000 C 
ATOM     18  O   UNL     1      -1.215  11.872  21.123  0.00  0.00    +0.000 OA
BRANCH  17  19
ATOM     19  O   UNL     1      -1.225  12.527  18.917  0.00  0.00    +0.000 OA
ATOM     20  C   UNL     1      -0.004  13.222  18.639  0.00  0.00    +0.000 C 
ENDBRANCH  17  19
ENDBRANCH  16  17
ENDBRANCH  14  16
ENDBRANCH  11  12
ENDBRANCH   9  11
ENDBRANCH   6   7
BRANCH   1  21
ATOM     21  S   UNL     1       5.567   5.300  19.279  0.00  0.00    +0.000 S 
BRANCH  21  22
ATOM     22  C   UNL     1       6.195   6.205  17.802  0.00  0.00    +0.000 C 
BRANCH  22  23
ATOM     23  O   UNL     1       5.877   5.506  16.580  0.00  0.00    +0.000 OA
BRANCH  23  24
ATOM     24  C   UNL     1       6.931   4.912  15.974  0.00  0.00    +0.000 C 
ATOM     25  O   UNL     1       7.886   4.400  16.553  0.00  0.00    +0.000 OA
BRANCH  24  26
ATOM     26  C   UNL     1       6.789   4.929  14.472  0.00  0.00    +0.000 C 
BRANCH  26  28
ATOM     27  C   UNL     1       6.174   3.493  12.472  0.00  0.00    +0.000 C 
ATOM     28  C   UNL     1       5.981   3.737  13.962  0.00  0.00    +0.000 C 
ENDBRANCH  26  28
ENDBRANCH  24  26
ENDBRANCH  23  24
ENDBRANCH  22  23
ENDBRANCH  21  22
ENDBRANCH   1  21
TORSDOF 12
ENDMDL
MODEL 8
REMARK VINA RESULT:      -6.4      2.949      8.754
REMARK  Name = 
REMARK  14 active torsions:
REMARK  status: ('A' for Active; 'I' for Inactive)
REMARK    1  A    between atoms: C_1  and  C_2
REMARK    2  A    between atoms: C_2  and  C_3
REMARK    3  A    between atoms: C_3  and  C_4
REMARK    4  A    between atoms: C_4  and  O_6
REMARK    5  A    between atoms: O_6  and  C_7
REMARK    6  A    between atoms: C_7  and  S_8
REMARK    7  A    between atoms: S_8  and  C_9
REMARK    8  A    between atoms: C_14  and  C_15
REMARK    9  A    between atoms: N_17  and  C_18
REMARK   10  A    between atoms: C_18  and  C_19
REMARK   11  A    between atoms: N_21  and  C_22
REMARK   12  A    between atoms: C_22  and  C_23
REMARK   13  A    between atoms: C_23  and  O_25
REMARK   14  A    between atoms: O_25  and  C_26
REMARK                            x       y       z     vdW  Elec       q    Type
REMARK                         _______ _______ _______ _____ _____    ______ ____
ROOT
ATOM      1  C   UNL     1       2.471   5.718  19.929  0.00  0.00    +0.000 A 
ATOM      2  C   UNL     1       1.456   5.035  20.623  0.00  0.00    +0.000 A 
ATOM      3  C   UNL     1       1.537   3.663  20.874  0.00  0.00    +0.000 A 
ATOM      4  C   UNL     1       2.636   2.944  20.432  0.00  0.00    +0.000 A 
ATOM      5  C   UNL     1       3.635   3.595  19.695  0.00  0.00    +0.000 A 
ATOM      6  C   UNL     1       3.552   4.977  19.401  0.00  0.00    +0.000 A 
ENDROOT
BRANCH   6   7
ATOM      7  C   UNL     1       4.655   5.520  18.535  0.00  0.00    +0.000 C 
ATOM      8  O   UNL     1       4.410   5.866  17.379  0.00  0.00    +0.000 OA
ATOM      9  N   UNL     1       5.902   5.668  19.090  0.00  0.00    +0.000 N 
ATOM     10  H   UNL     1       6.115   5.205  19.975  0.00  0.00    +0.000 HD
BRANCH   9  11
ATOM     11  C   UNL     1       7.036   6.181  18.332  0.00  0.00    +0.000 C 
BRANCH  11  12
ATOM     12  C   UNL     1       7.457   5.231  17.195  0.00  0.00    +0.000 C 
ATOM     13  O   UNL     1       8.094   4.191  17.397  0.00  0.00    +0.000 OA
ATOM     14  N   UNL     1       7.064   5.617  15.929  0.00  0.00    +0.000 N 
ATOM     15  H   UNL     1       6.413   6.384  15.807  0.00  0.00    +0.000 HD
BRANCH  14  16
ATOM     16  C   UNL     1       7.370   4.798  14.755  0.00  0.00    +0.000 C 
BRANCH  16  17
ATOM     17  C   UNL     1       6.115   4.244  14.088  0.00  0.00    +0.000 C 
ATOM     18  O   UNL     1       4.990   4.295  14.576  0.00  0.00    +0.000 OA
BRANCH  17  19
ATOM     19  O   UNL     1       6.428   3.666  12.892  0.00  0.00    +0.000 OA
ATOM     20  C   UNL     1       5.301   3.221  12.130  0.00  0.00    +0.000 C 
ENDBRANCH  17  19
ENDBRANCH  16  17
ENDBRANCH  14  16
ENDBRANCH  11  12
ENDBRANCH   9  11
ENDBRANCH   6   7
BRANCH   1  21
ATOM     21  S   UNL     1       2.254   7.496  19.758  0.00  0.00    +0.000 S 
BRANCH  21  22
ATOM     22  C   UNL     1       1.285   7.902  21.273  0.00  0.00    +0.000 C 
BRANCH  22  23
ATOM     23  O   UNL     1       0.416   9.033  21.056  0.00  0.00    +0.000 OA
BRANCH  23  24
ATOM     24  C   UNL     1       0.258   9.843  22.128  0.00  0.00    +0.000 C 
ATOM     25  O   UNL     1       0.958   9.827  23.138  0.00  0.00    +0.000 OA
BRANCH  24  26
ATOM     26  C   UNL     1      -0.887  10.805  21.932  0.00  0.00    +0.000 C 
BRANCH  26  28
ATOM     27  C   UNL     1      -1.263  13.017  23.120  0.00  0.00    +0.000 C 
ATOM     28  C   UNL     1      -0.442  12.259  22.086  0.00  0.00    +0.000 C 
ENDBRANCH  26  28
ENDBRANCH  24  26
ENDBRANCH  23  24
ENDBRANCH  22  23
ENDBRANCH  21  22
ENDBRANCH   1  21
TORSDOF 12
ENDMDL
MODEL 9
REMARK VINA RESULT:      -6.4      2.168      2.420
REMARK  Name = 
REMARK  14 active torsions:
REMARK  status: ('A' for Active; 'I' for Inactive)
REMARK    1  A    between atoms: C_1  and  C_2
REMARK    2  A    between atoms: C_2  and  C_3
REMARK    3  A    between atoms: C_3  and  C_4
REMARK    4  A    between atoms: C_4  and  O_6
REMARK    5  A    between atoms: O_6  and  C_7
REMARK    6  A    between atoms: C_7  and  S_8
REMARK    7  A    between atoms: S_8  and  C_9
REMARK    8  A    between atoms: C_14  and  C_15
REMARK    9  A    between atoms: N_17  and  C_18
REMARK   10  A    between atoms: C_18  and  C_19
REMARK   11  A    between atoms: N_21  and  C_22
REMARK   12  A    between atoms: C_22  and  C_23
REMARK   13  A    between atoms: C_23  and  O_25
REMARK   14  A    between atoms: O_25  and  C_26
REMARK                            x       y       z     vdW  Elec       q    Type
REMARK                         _______ _______ _______ _____ _____    ______ ____
ROOT
ATOM      1  C   UNL     1       3.450   4.514  19.786  0.00  0.00    +0.000 A 
ATOM      2  C   UNL     1       3.426   3.125  20.002  0.00  0.00    +0.000 A 
ATOM      3  C   UNL     1       2.268   2.471  20.430  0.00  0.00    +0.000 A 
ATOM      4  C   UNL     1       1.108   3.195  20.653  0.00  0.00    +0.000 A 
ATOM      5  C   UNL     1       1.123   4.587  20.491  0.00  0.00    +0.000 A 
ATOM      6  C   UNL     1       2.297   5.271  20.094  0.00  0.00    +0.000 A 
ENDROOT
BRANCH   6   7
ATOM      7  C   UNL     1       2.185   6.770  20.040  0.00  0.00    +0.000 C 
ATOM      8  O   UNL     1       2.392   7.360  18.980  0.00  0.00    +0.000 OA
ATOM      9  N   UNL     1       1.791   7.432  21.176  0.00  0.00    +0.000 N 
ATOM     10  H   UNL     1       1.809   6.943  22.073  0.00  0.00    +0.000 HD
BRANCH   9  11
ATOM     11  C   UNL     1       1.656   8.881  21.225  0.00  0.00    +0.000 C 
BRANCH  11  12
ATOM     12  C   UNL     1       0.281   9.357  20.721  0.00  0.00    +0.000 C 
ATOM     13  O   UNL     1      -0.727   9.364  21.436  0.00  0.00    +0.000 OA
ATOM     14  N   UNL     1       0.252   9.788  19.409  0.00  0.00    +0.000 N 
ATOM     15  H   UNL     1       1.116   9.921  18.895  0.00  0.00    +0.000 HD
BRANCH  14  16
ATOM     16  C   UNL     1      -0.979  10.294  18.801  0.00  0.00    +0.000 C 
BRANCH  16  17
ATOM     17  C   UNL     1      -1.181  11.786  19.048  0.00  0.00    +0.000 C 
ATOM     18  O   UNL     1      -2.210  12.283  19.497  0.00  0.00    +0.000 OA
BRANCH  17  19
ATOM     19  O   UNL     1      -0.068  12.483  18.676  0.00  0.00    +0.000 OA
ATOM     20  C   UNL     1      -0.244  13.903  18.622  0.00  0.00    +0.000 C 
ENDBRANCH  17  19
ENDBRANCH  16  17
ENDBRANCH  14  16
ENDBRANCH  11  12
ENDBRANCH   9  11
ENDBRANCH   6   7
BRANCH   1  21
ATOM     21  S   UNL     1       4.995   5.191  19.159  0.00  0.00    +0.000 S 
BRANCH  21  22
ATOM     22  C   UNL     1       4.915   4.720  17.379  0.00  0.00    +0.000 C 
BRANCH  22  23
ATOM     23  O   UNL     1       6.222   4.392  16.862  0.00  0.00    +0.000 OA
BRANCH  23  24
ATOM     24  C   UNL     1       6.754   5.319  16.032  0.00  0.00    +0.000 C 
ATOM     25  O   UNL     1       6.997   6.485  16.334  0.00  0.00    +0.000 OA
BRANCH  24  26
ATOM     26  C   UNL     1       7.043   4.743  14.668  0.00  0.00    +0.000 C 
BRANCH  26  28
ATOM     27  C   UNL     1       6.079   3.501  12.675  0.00  0.00    +0.000 C 
ATOM     28  C   UNL     1       5.797   4.129  14.033  0.00  0.00    +0.000 C 
ENDBRANCH  26  28
ENDBRANCH  24  26
ENDBRANCH  23  24
ENDBRANCH  22  23
ENDBRANCH  21  22
ENDBRANCH   1  21
TORSDOF 12
ENDMDL
