MODEL 1
REMARK VINA RESULT:      -7.0      0.000      0.000
REMARK  Name = 
REMARK  11 active torsions:
REMARK  status: ('A' for Active; 'I' for Inactive)
REMARK    1  A    between atoms: N_1  and  CA_2
REMARK    2  A    between atoms: CA_2  and  C_3
REMARK    3  A    between atoms: CA_2  and  C_19
REMARK    4  A    between atoms: C_3  and  C_4
REMARK    5  A    between atoms: C_4  and  P_5
REMARK    6  A    between atoms: P_5  and  O_7
REMARK    7  A    between atoms: P_5  and  C_8
REMARK    8  A    between atoms: C_8  and  O_9
REMARK    9  A    between atoms: C_8  and  C_10
REMARK   10  A    between atoms: C_14  and  N_15
REMARK   11  A    between atoms: C_19  and  OXT_21
REMARK                            x       y       z     vdW  Elec       q    Type
REMARK                         _______ _______ _______ _____ _____    ______ ____
ROOT
ATOM      1  P   UNL     1       5.060   4.277  16.584  0.00  0.00    +0.000 P 
ATOM      2  O   UNL     1       4.605   5.737  16.720  0.00  0.00    +0.000 OA
ENDROOT
BRANCH   1   3
ATOM      3  O   UNL     1       5.586   3.943  18.133  0.00  0.00    +0.000 OA
ATOM      4  H   UNL     1       6.557   4.115  18.191  0.00  0.00    +0.000 HD
ENDBRANCH   1   3
BRANCH   1   5
ATOM      5  C   UNL     1       3.399   3.687  17.078  0.00  0.00    +0.000 C 
BRANCH   5   6
ATOM      6  C   UNL     1       3.141   3.793  18.597  0.00  0.00    +0.000 C 
BRANCH   6   7
ATOM      7  CA  UNL     1       2.579   2.543  19.272  0.00  0.00    +0.000 C 
BRANCH   7   8
ATOM      8  N   UNL     1       2.962   1.291  18.572  0.00  0.00    +0.000 NA
ATOM      9  H1  UNL     1       3.493   1.534  17.733  0.00  0.00    +0.000 HD
ATOM     10  H2  UNL     1       2.108   0.843  18.221  0.00  0.00    +0.000 HD
ENDBRANCH   7   8
BRANCH   7  11
ATOM     11  C   UNL     1       1.035   2.608  19.332  0.00  0.00    +0.000 C 
ATOM     12  O   UNL     1       0.264   2.188  18.484  0.00  0.00    +0.000 OA
BRANCH  11  13
ATOM     13  OXT UNL     1       0.619   3.224  20.471  0.00  0.00    +0.000 OA
ATOM     14  HXT UNL     1       0.559   4.188  20.260  0.00  0.00    +0.000 HD
ENDBRANCH  11  13
ENDBRANCH   7  11
ENDBRANCH   6   7
ENDBRANCH   5   6
ENDBRANCH   1   5
BRANCH   1  15
ATOM     15  C   UNL     1       6.720   4.865  16.090  0.00  0.00    +0.000 C 
BRANCH  15  16
ATOM     16  C   UNL     1       6.906   4.665  14.594  0.00  0.00    +0.000 A 
ATOM     17  C   UNL     1       7.837   5.423  13.872  0.00  0.00    +0.000 A 
ATOM     18  C   UNL     1       7.949   5.288  12.488  0.00  0.00    +0.000 A 
ATOM     19  C   UNL     1       7.124   4.395  11.793  0.00  0.00    +0.000 A 
ATOM     20  C   UNL     1       6.202   3.626  12.504  0.00  0.00    +0.000 A 
ATOM     21  C   UNL     1       6.096   3.744  13.896  0.00  0.00    +0.000 A 
BRANCH  20  22
ATOM     22  N   UNL     1       5.303   2.713  11.783  0.00  0.00    +0.000 N 
ATOM     23  O   UNL     1       4.152   3.104  11.546  0.00  0.00    +0.000 OA
ATOM     24  O   UNL     1       5.741   1.594  11.487  0.00  0.00    +0.000 OA
ENDBRANCH  20  22
ENDBRANCH  15  16
BRANCH  15  25
ATOM     25  O   UNL     1       7.754   4.086  16.719  0.00  0.00    +0.000 OA
ATOM     26  H   UNL     1       7.478   4.018  17.657  0.00  0.00    +0.000 HD
ENDBRANCH  15  25
ENDBRANCH   1  15
TORSDOF 11
ENDMDL
MODEL 2
REMARK VINA RESULT:      -6.9      1.600      7.248
REMARK  Name = 
REMARK  11 active torsions:
REMARK  status: ('A' for Active; 'I' for Inactive)
REMARK    1  A    between atoms: N_1  and  CA_2
REMARK    2  A    between atoms: CA_2  and  C_3
REMARK    3  A    between atoms: CA_2  and  C_19
REMARK    4  A    between atoms: C_3  and  C_4
REMARK    5  A    between atoms: C_4  and  P_5
REMARK    6  A    between atoms: P_5  and  O_7
REMARK    7  A    between atoms: P_5  and  C_8
REMARK    8  A    between atoms: C_8  and  O_9
REMARK    9  A    between atoms: C_8  and  C_10
REMARK   10  A    between atoms: C_14  and  N_15
REMARK   11  A    between atoms: C_19  and  OXT_21
REMARK                            x       y       z     vdW  Elec       q    Type
REMARK                         _______ _______ _______ _____ _____    ______ ____
ROOT
ATOM      1  P   UNL     1       6.266   4.762  16.600  0.00  0.00    +0.000 P 
ATOM      2  O   UNL     1       7.737   4.433  16.892  0.00  0.00    +0.000 OA
ENDROOT
BRANCH   1   3
ATOM      3  O   UNL     1       6.248   6.421  16.790  0.00  0.00    +0.000 OA
ATOM      4  H   UNL     1       5.508   6.802  16.258  0.00  0.00    +0.000 HD
ENDBRANCH   1   3
BRANCH   1   5
ATOM      5  C   UNL     1       6.650   5.022  14.829  0.00  0.00    +0.000 C 
BRANCH   5   6
ATOM      6  C   UNL     1       5.765   4.179  13.883  0.00  0.00    +0.000 C 
BRANCH   6   7
ATOM      7  CA  UNL     1       6.484   3.498  12.721  0.00  0.00    +0.000 C 
BRANCH   7   8
ATOM      8  N   UNL     1       7.232   4.455  11.867  0.00  0.00    +0.000 NA
ATOM      9  H1  UNL     1       7.746   5.100  12.471  0.00  0.00    +0.000 HD
ATOM     10  H2  UNL     1       6.554   5.044  11.371  0.00  0.00    +0.000 HD
ENDBRANCH   7   8
BRANCH   7  11
ATOM     11  C   UNL     1       5.472   2.744  11.826  0.00  0.00    +0.000 C 
ATOM     12  O   UNL     1       4.380   3.157  11.469  0.00  0.00    +0.000 OA
BRANCH  11  13
ATOM     13  OXT UNL     1       5.947   1.517  11.484  0.00  0.00    +0.000 OA
ATOM     14  HXT UNL     1       6.594   1.263  12.187  0.00  0.00    +0.000 HD
ENDBRANCH  11  13
ENDBRANCH   7  11
ENDBRANCH   6   7
ENDBRANCH   5   6
ENDBRANCH   1   5
BRANCH   1  15
ATOM     15  C   UNL     1       5.882   4.502  18.370  0.00  0.00    +0.000 C 
BRANCH  15  16
ATOM     16  C   UNL     1       4.411   4.146  18.525  0.00  0.00    +0.000 A 
ATOM     17  C   UNL     1       3.486   4.432  17.513  0.00  0.00    +0.000 A 
ATOM     18  C   UNL     1       2.127   4.171  17.693  0.00  0.00    +0.000 A 
ATOM     19  C   UNL     1       1.663   3.625  18.896  0.00  0.00    +0.000 A 
ATOM     20  C   UNL     1       2.578   3.325  19.905  0.00  0.00    +0.000 A 
ATOM     21  C   UNL     1       3.946   3.568  19.725  0.00  0.00    +0.000 A 
BRANCH  20  22
ATOM     22  N   UNL     1       2.099   2.787  21.187  0.00  0.00    +0.000 N 
ATOM     23  O   UNL     1       0.878   2.793  21.396  0.00  0.00    +0.000 OA
ATOM     24  O   UNL     1       2.949   2.391  21.995  0.00  0.00    +0.000 OA
ENDBRANCH  20  22
ENDBRANCH  15  16
BRANCH  15  25
ATOM     25  O   UNL     1       6.071   5.714  19.124  0.00  0.00    +0.000 OA
ATOM     26  H   UNL     1       5.244   5.816  19.642  0.00  0.00    +0.000 HD
ENDBRANCH  15  25
ENDBRANCH   1  15
TORSDOF 11
ENDMDL
MODEL 3
REMARK VINA RESULT:      -6.8      2.808      3.951
REMARK  Name = 
REMARK  11 active torsions:
REMARK  status: ('A' for Active; 'I' for Inactive)
REMARK    1  A    between atoms: N_1  and  CA_2
REMARK    2  A    between atoms: CA_2  and  C_3
REMARK    3  A    between atoms: CA_2  and  C_19
REMARK    4  A    between atoms: C_3  and  C_4
REMARK    5  A    between atoms: C_4  and  P_5
REMARK    6  A    between atoms: P_5  and  O_7
REMARK    7  A    between atoms: P_5  and  C_8
REMARK    8  A    between atoms: C_8  and  O_9
REMARK    9  A    between atoms: C_8  and  C_10
REMARK   10  A    between atoms: C_14  and  N_15
REMARK   11  A    between atoms: C_19  and  OXT_21
REMARK                            x       y       z     vdW  Elec       q    Type
REMARK                         _______ _______ _______ _____ _____    ______ ____
ROOT
ATOM      1  P   UNL     1       2.808   5.860  19.120  0.00  0.00    +0.000 P 
ATOM      2  O   UNL     1       1.734   5.136  18.294  0.00  0.00    +0.000 OA
ENDROOT
BRANCH   1   3
ATOM      3  O   UNL     1       2.070   7.328  19.419  0.00  0.00    +0.000 OA
ATOM      4  H   UNL     1       2.523   8.032  18.895  0.00  0.00    +0.000 HD
ENDBRANCH   1   3
BRANCH   1   5
ATOM      5  C   UNL     1       2.070   5.232  20.673  0.00  0.00    +0.000 C 
BRANCH   5   6
ATOM      6  C   UNL     1       1.010   4.131  20.444  0.00  0.00    +0.000 C 
BRANCH   6   7
ATOM      7  CA  UNL     1       1.462   2.698  20.717  0.00  0.00    +0.000 C 
BRANCH   7   8
ATOM      8  N   UNL     1       2.244   2.570  21.972  0.00  0.00    +0.000 NA
ATOM      9  H1  UNL     1       3.240   2.601  21.742  0.00  0.00    +0.000 HD
ATOM     10  H2  UNL     1       2.093   1.629  22.353  0.00  0.00    +0.000 HD
ENDBRANCH   7   8
BRANCH   7  11
ATOM     11  C   UNL     1       2.333   2.174  19.551  0.00  0.00    +0.000 C 
ATOM     12  O   UNL     1       3.546   2.033  19.567  0.00  0.00    +0.000 OA
BRANCH  11  13
ATOM     13  OXT UNL     1       1.570   1.895  18.461  0.00  0.00    +0.000 OA
ATOM     14  HXT UNL     1       0.628   1.957  18.758  0.00  0.00    +0.000 HD
ENDBRANCH  11  13
ENDBRANCH   7  11
ENDBRANCH   6   7
ENDBRANCH   5   6
ENDBRANCH   1   5
BRANCH   1  15
ATOM     15  C   UNL     1       3.546   6.487  17.568  0.00  0.00    +0.000 C 
BRANCH  15  16
ATOM     16  C   UNL     1       4.879   5.797  17.324  0.00  0.00    +0.000 A 
ATOM     17  C   UNL     1       5.724   5.455  18.387  0.00  0.00    +0.000 A 
ATOM     18  C   UNL     1       6.978   4.892  18.151  0.00  0.00    +0.000 A 
ATOM     19  C   UNL     1       7.420   4.667  16.842  0.00  0.00    +0.000 A 
ATOM     20  C   UNL     1       6.581   4.993  15.775  0.00  0.00    +0.000 A 
ATOM     21  C   UNL     1       5.313   5.543  16.005  0.00  0.00    +0.000 A 
BRANCH  20  22
ATOM     22  N   UNL     1       7.047   4.797  14.394  0.00  0.00    +0.000 N 
ATOM     23  O   UNL     1       7.935   5.552  13.973  0.00  0.00    +0.000 OA
ATOM     24  O   UNL     1       6.500   3.913  13.725  0.00  0.00    +0.000 OA
ENDBRANCH  20  22
ENDBRANCH  15  16
BRANCH  15  25
ATOM     25  O   UNL     1       3.846   7.892  17.667  0.00  0.00    +0.000 OA
ATOM     26  H   UNL     1       3.416   8.293  16.883  0.00  0.00    +0.000 HD
ENDBRANCH  15  25
ENDBRANCH   1  15
TORSDOF 11
ENDMDL
MODEL 4
REMARK VINA RESULT:      -6.8      2.868      4.059
REMARK  Name = 
REMARK  11 active torsions:
REMARK  status: ('A' for Active; 'I' for Inactive)
REMARK    1  A    between atoms: N_1  and  CA_2
REMARK    2  A    between atoms: CA_2  and  C_3
REMARK    3  A    between atoms: CA_2  and  C_19
REMARK    4  A    between atoms: C_3  and  C_4
REMARK    5  A    between atoms: C_4  and  P_5
REMARK    6  A    between atoms: P_5  and  O_7
REMARK    7  A    between atoms: P_5  and  C_8
REMARK    8  A    between atoms: C_8  and  O_9
REMARK    9  A    between atoms: C_8  and  C_10
REMARK   10  A    between atoms: C_14  and  N_15
REMARK   11  A    between atoms: C_19  and  OXT_21
REMARK                            x       y       z     vdW  Elec       q    Type
REMARK                         _______ _______ _______ _____ _____    ______ ____
ROOT
ATOM      1  P   UNL     1       2.229   4.367  18.186  0.00  0.00    +0.000 P 
ATOM      2  O   UNL     1       1.056   4.974  17.402  0.00  0.00    +0.000 OA
ENDROOT
BRANCH   1   3
ATOM      3  O   UNL     1       1.901   4.885  19.739  0.00  0.00    +0.000 OA
ATOM      4  H   UNL     1       1.043   5.374  19.744  0.00  0.00    +0.000 HD
ENDBRANCH   1   3
BRANCH   1   5
ATOM      5  C   UNL     1       1.247   2.862  18.537  0.00  0.00    +0.000 C 
BRANCH   5   6
ATOM      6  C   UNL     1       2.062   1.752  19.238  0.00  0.00    +0.000 C 
BRANCH   6   7
ATOM      7  CA  UNL     1       3.580   1.915  19.211  0.00  0.00    +0.000 C 
BRANCH   7   8
ATOM      8  N   UNL     1       4.269   0.776  18.552  0.00  0.00    +0.000 NA
ATOM      9  H1  UNL     1       4.044   0.790  17.555  0.00  0.00    +0.000 HD
ATOM     10  H2  UNL     1       3.857  -0.096  18.901  0.00  0.00    +0.000 HD
ENDBRANCH   7   8
BRANCH   7  11
ATOM     11  C   UNL     1       4.136   2.046  20.649  0.00  0.00    +0.000 C 
ATOM     12  O   UNL     1       5.241   1.693  21.028  0.00  0.00    +0.000 OA
BRANCH  11  13
ATOM     13  OXT UNL     1       3.213   2.604  21.477  0.00  0.00    +0.000 OA
ATOM     14  HXT UNL     1       3.262   3.581  21.331  0.00  0.00    +0.000 HD
ENDBRANCH  11  13
ENDBRANCH   7  11
ENDBRANCH   6   7
ENDBRANCH   5   6
ENDBRANCH   1   5
BRANCH   1  15
ATOM     15  C   UNL     1       3.210   5.870  17.835  0.00  0.00    +0.000 C 
BRANCH  15  16
ATOM     16  C   UNL     1       4.666   5.488  17.615  0.00  0.00    +0.000 A 
ATOM     17  C   UNL     1       5.574   5.454  18.680  0.00  0.00    +0.000 A 
ATOM     18  C   UNL     1       6.924   5.177  18.460  0.00  0.00    +0.000 A 
ATOM     19  C   UNL     1       7.396   4.936  17.164  0.00  0.00    +0.000 A 
ATOM     20  C   UNL     1       6.497   4.954  16.098  0.00  0.00    +0.000 A 
ATOM     21  C   UNL     1       5.137   5.215  16.313  0.00  0.00    +0.000 A 
BRANCH  20  22
ATOM     22  N   UNL     1       6.985   4.740  14.727  0.00  0.00    +0.000 N 
ATOM     23  O   UNL     1       7.862   5.505  14.301  0.00  0.00    +0.000 OA
ATOM     24  O   UNL     1       6.466   3.830  14.069  0.00  0.00    +0.000 OA
ENDBRANCH  20  22
ENDBRANCH  15  16
BRANCH  15  25
ATOM     25  O   UNL     1       3.208   6.766  18.962  0.00  0.00    +0.000 OA
ATOM     26  H   UNL     1       2.279   6.767  19.277  0.00  0.00    +0.000 HD
ENDBRANCH  15  25
ENDBRANCH   1  15
TORSDOF 11
ENDMDL
MODEL 5
REMARK VINA RESULT:      -6.7      3.066      7.081
REMARK  Name = 
REMARK  11 active torsions:
REMARK  status: ('A' for Active; 'I' for Inactive)
REMARK    1  A    between atoms: N_1  and  CA_2
REMARK    2  A    between atoms: CA_2  and  C_3
REMARK    3  A    between atoms: CA_2  and  C_19
REMARK    4  A    between atoms: C_3  and  C_4
REMARK    5  A    between atoms: C_4  and  P_5
REMARK    6  A    between atoms: P_5  and  O_7
REMARK    7  A    between atoms: P_5  and  C_8
REMARK    8  A    between atoms: C_8  and  O_9
REMARK    9  A    between atoms: C_8  and  C_10
REMARK   10  A    between atoms: C_14  and  N_15
REMARK   11  A    between atoms: C_19  and  OXT_21
REMARK                            x       y       z     vdW  Elec       q    Type
REMARK                         _______ _______ _______ _____ _____    ______ ____
ROOT
ATOM      1  P   UNL     1       4.839   4.772  16.475  0.00  0.00    +0.000 P 
ATOM      2  O   UNL     1       4.713   4.268  15.030  0.00  0.00    +0.000 OA
ENDROOT
BRANCH   1   3
ATOM      3  O   UNL     1       5.616   3.490  17.212  0.00  0.00    +0.000 OA
ATOM      4  H   UNL     1       5.363   2.651  16.756  0.00  0.00    +0.000 HD
ENDBRANCH   1   3
BRANCH   1   5
ATOM      5  C   UNL     1       6.483   5.488  16.108  0.00  0.00    +0.000 C 
BRANCH   5   6
ATOM      6  C   UNL     1       7.058   6.325  17.273  0.00  0.00    +0.000 C 
BRANCH   6   7
ATOM      7  CA  UNL     1       7.913   5.566  18.286  0.00  0.00    +0.000 C 
BRANCH   7   8
ATOM      8  N   UNL     1       8.284   4.206  17.822  0.00  0.00    +0.000 NA
ATOM      9  H1  UNL     1       9.285   4.192  17.614  0.00  0.00    +0.000 HD
ATOM     10  H2  UNL     1       7.827   4.037  16.918  0.00  0.00    +0.000 HD
ENDBRANCH   7   8
BRANCH   7  11
ATOM     11  C   UNL     1       7.163   5.428  19.632  0.00  0.00    +0.000 C 
ATOM     12  O   UNL     1       5.955   5.322  19.774  0.00  0.00    +0.000 OA
BRANCH  11  13
ATOM     13  OXT UNL     1       8.032   5.457  20.677  0.00  0.00    +0.000 OA
ATOM     14  HXT UNL     1       7.555   5.058  21.446  0.00  0.00    +0.000 HD
ENDBRANCH  11  13
ENDBRANCH   7  11
ENDBRANCH   6   7
ENDBRANCH   5   6
ENDBRANCH   1   5
BRANCH   1  15
ATOM     15  C   UNL     1       3.196   4.056  16.843  0.00  0.00    +0.000 C 
BRANCH  15  16
ATOM     16  C   UNL     1       2.773   4.449  18.249  0.00  0.00    +0.000 A 
ATOM     17  C   UNL     1       2.524   5.786  18.584  0.00  0.00    +0.000 A 
ATOM     18  C   UNL     1       2.209   6.148  19.895  0.00  0.00    +0.000 A 
ATOM     19  C   UNL     1       2.147   5.178  20.903  0.00  0.00    +0.000 A 
ATOM     20  C   UNL     1       2.381   3.842  20.578  0.00  0.00    +0.000 A 
ATOM     21  C   UNL     1       2.680   3.469  19.261  0.00  0.00    +0.000 A 
BRANCH  20  22
ATOM     22  N   UNL     1       2.356   2.819  21.634  0.00  0.00    +0.000 N 
ATOM     23  O   UNL     1       3.372   2.127  21.790  0.00  0.00    +0.000 OA
ATOM     24  O   UNL     1       1.309   2.687  22.279  0.00  0.00    +0.000 OA
ENDBRANCH  20  22
ENDBRANCH  15  16
BRANCH  15  25
ATOM     25  O   UNL     1       3.245   2.617  16.838  0.00  0.00    +0.000 OA
ATOM     26  H   UNL     1       2.390   2.338  17.227  0.00  0.00    +0.000 HD
ENDBRANCH  15  25
ENDBRANCH   1  15
TORSDOF 11
ENDMDL
MODEL 6
REMARK VINA RESULT:      -6.6      1.041      1.271
REMARK  Name = 
REMARK  11 active torsions:
REMARK  status: ('A' for Active; 'I' for Inactive)
REMARK    1  A    between atoms: N_1  and  CA_2
REMARK    2  A    between atoms: CA_2  and  C_3
REMARK    3  A    between atoms: CA_2  and  C_19
REMARK    4  A    between atoms: C_3  and  C_4
REMARK    5  A    between atoms: C_4  and  P_5
REMARK    6  A    between atoms: P_5  and  O_7
REMARK    7  A    between atoms: P_5  and  C_8
REMARK    8  A    between atoms: C_8  and  O_9
REMARK    9  A    between atoms: C_8  and  C_10
REMARK   10  A    between atoms: C_14  and  N_15
REMARK   11  A    between atoms: C_19  and  OXT_21
REMARK                            x       y       z     vdW  Elec       q    Type
REMARK                         _______ _______ _______ _____ _____    ______ ____
ROOT
ATOM      1  P   UNL     1       5.065   4.395  16.637  0.00  0.00    +0.000 P 
ATOM      2  O   UNL     1       4.786   5.832  17.103  0.00  0.00    +0.000 OA
ENDROOT
BRANCH   1   3
ATOM      3  O   UNL     1       5.641   3.692  18.038  0.00  0.00    +0.000 OA
ATOM      4  H   UNL     1       5.629   4.360  18.766  0.00  0.00    +0.000 HD
ENDBRANCH   1   3
BRANCH   1   5
ATOM      5  C   UNL     1       3.380   3.881  17.134  0.00  0.00    +0.000 C 
BRANCH   5   6
ATOM      6  C   UNL     1       3.301   2.405  17.586  0.00  0.00    +0.000 C 
BRANCH   6   7
ATOM      7  CA  UNL     1       2.321   2.101  18.717  0.00  0.00    +0.000 C 
BRANCH   7   8
ATOM      8  N   UNL     1       0.917   2.431  18.366  0.00  0.00    +0.000 NA
ATOM      9  H1  UNL     1       0.865   3.422  18.121  0.00  0.00    +0.000 HD
ATOM     10  H2  UNL     1       0.342   2.340  19.212  0.00  0.00    +0.000 HD
ENDBRANCH   7   8
BRANCH   7  11
ATOM     11  C   UNL     1       2.699   2.896  19.989  0.00  0.00    +0.000 C 
ATOM     12  O   UNL     1       1.995   3.712  20.563  0.00  0.00    +0.000 OA
BRANCH  11  13
ATOM     13  OXT UNL     1       3.957   2.586  20.400  0.00  0.00    +0.000 OA
ATOM     14  HXT UNL     1       3.882   1.746  20.916  0.00  0.00    +0.000 HD
ENDBRANCH  11  13
ENDBRANCH   7  11
ENDBRANCH   6   7
ENDBRANCH   5   6
ENDBRANCH   1   5
BRANCH   1  15
ATOM     15  C   UNL     1       6.749   4.909  16.140  0.00  0.00    +0.000 C 
BRANCH  15  16
ATOM     16  C   UNL     1       6.921   4.707  14.642  0.00  0.00    +0.000 A 
ATOM     17  C   UNL     1       7.853   5.456  13.913  0.00  0.00    +0.000 A 
ATOM     18  C   UNL     1       7.953   5.319  12.527  0.00  0.00    +0.000 A 
ATOM     19  C   UNL     1       7.112   4.434  11.840  0.00  0.00    +0.000 A 
ATOM     20  C   UNL     1       6.189   3.675  12.559  0.00  0.00    +0.000 A 
ATOM     21  C   UNL     1       6.095   3.794  13.952  0.00  0.00    +0.000 A 
BRANCH  20  22
ATOM     22  N   UNL     1       5.275   2.770  11.845  0.00  0.00    +0.000 N 
ATOM     23  O   UNL     1       4.124   3.171  11.622  0.00  0.00    +0.000 OA
ATOM     24  O   UNL     1       5.701   1.649  11.541  0.00  0.00    +0.000 OA
ENDBRANCH  20  22
ENDBRANCH  15  16
BRANCH  15  25
ATOM     25  O   UNL     1       7.749   4.081  16.762  0.00  0.00    +0.000 OA
ATOM     26  H   UNL     1       7.450   3.162  16.594  0.00  0.00    +0.000 HD
ENDBRANCH  15  25
ENDBRANCH   1  15
TORSDOF 11
ENDMDL
MODEL 7
REMARK VINA RESULT:      -6.6      1.404      1.498
REMARK  Name = 
REMARK  11 active torsions:
REMARK  status: ('A' for Active; 'I' for Inactive)
REMARK    1  A    between atoms: N_1  and  CA_2
REMARK    2  A    between atoms: CA_2  and  C_3
REMARK    3  A    between atoms: CA_2  and  C_19
REMARK    4  A    between atoms: C_3  and  C_4
REMARK    5  A    between atoms: C_4  and  P_5
REMARK    6  A    between atoms: P_5  and  O_7
REMARK    7  A    between atoms: P_5  and  C_8
REMARK    8  A    between atoms: C_8  and  O_9
REMARK    9  A    between atoms: C_8  and  C_10
REMARK   10  A    between atoms: C_14  and  N_15
REMARK   11  A    between atoms: C_19  and  OXT_21
REMARK                            x       y       z     vdW  Elec       q    Type
REMARK                         _______ _______ _______ _____ _____    ______ ____
ROOT
ATOM      1  P   UNL     1       5.130   4.015  16.763  0.00  0.00    +0.000 P 
ATOM      2  O   UNL     1       4.376   5.321  17.056  0.00  0.00    +0.000 OA
ENDROOT
BRANCH   1   3
ATOM      3  O   UNL     1       5.853   3.706  18.236  0.00  0.00    +0.000 OA
ATOM      4  H   UNL     1       6.529   2.995  18.124  0.00  0.00    +0.000 HD
ENDBRANCH   1   3
BRANCH   1   5
ATOM      5  C   UNL     1       3.692   3.030  17.320  0.00  0.00    +0.000 C 
BRANCH   5   6
ATOM      6  C   UNL     1       3.561   2.957  18.857  0.00  0.00    +0.000 C 
BRANCH   6   7
ATOM      7  CA  UNL     1       2.263   3.504  19.447  0.00  0.00    +0.000 C 
BRANCH   7   8
ATOM      8  N   UNL     1       1.838   4.781  18.819  0.00  0.00    +0.000 NA
ATOM      9  H1  UNL     1       1.957   4.703  17.807  0.00  0.00    +0.000 HD
ATOM     10  H2  UNL     1       2.496   5.515  19.104  0.00  0.00    +0.000 HD
ENDBRANCH   7   8
BRANCH   7  11
ATOM     11  C   UNL     1       2.418   3.745  20.967  0.00  0.00    +0.000 C 
ATOM     12  O   UNL     1       2.461   2.883  21.831  0.00  0.00    +0.000 OA
BRANCH  11  13
ATOM     13  OXT UNL     1       2.486   5.074  21.245  0.00  0.00    +0.000 OA
ATOM     14  HXT UNL     1       3.443   5.281  21.382  0.00  0.00    +0.000 HD
ENDBRANCH  11  13
ENDBRANCH   7  11
ENDBRANCH   6   7
ENDBRANCH   5   6
ENDBRANCH   1   5
BRANCH   1  15
ATOM     15  C   UNL     1       6.568   5.000  16.206  0.00  0.00    +0.000 C 
BRANCH  15  16
ATOM     16  C   UNL     1       6.813   4.751  14.725  0.00  0.00    +0.000 A 
ATOM     17  C   UNL     1       7.805   5.450  14.028  0.00  0.00    +0.000 A 
ATOM     18  C   UNL     1       7.974   5.272  12.654  0.00  0.00    +0.000 A 
ATOM     19  C   UNL     1       7.143   4.394  11.946  0.00  0.00    +0.000 A 
ATOM     20  C   UNL     1       6.160   3.684  12.633  0.00  0.00    +0.000 A 
ATOM     21  C   UNL     1       5.996   3.845  14.016  0.00  0.00    +0.000 A 
BRANCH  20  22
ATOM     22  N   UNL     1       5.256   2.788  11.896  0.00  0.00    +0.000 N 
ATOM     23  O   UNL     1       4.105   3.187  11.672  0.00  0.00    +0.000 OA
ATOM     24  O   UNL     1       5.690   1.675  11.574  0.00  0.00    +0.000 OA
ENDBRANCH  20  22
ENDBRANCH  15  16
BRANCH  15  25
ATOM     25  O   UNL     1       7.773   4.583  16.875  0.00  0.00    +0.000 OA
ATOM     26  H   UNL     1       7.463   4.159  17.703  0.00  0.00    +0.000 HD
ENDBRANCH  15  25
ENDBRANCH   1  15
TORSDOF 11
ENDMDL
MODEL 8
REMARK VINA RESULT:      -6.5      1.846      7.260
REMARK  Name = 
REMARK  11 active torsions:
REMARK  status: ('A' for Active; 'I' for Inactive)
REMARK    1  A    between atoms: N_1  and  CA_2
REMARK    2  A    between atoms: CA_2  and  C_3
REMARK    3  A    between atoms: CA_2  and  C_19
REMARK    4  A    between atoms: C_3  and  C_4
REMARK    5  A    between atoms: C_4  and  P_5
REMARK    6  A    between atoms: P_5  and  O_7
REMARK    7  A    between atoms: P_5  and  C_8
REMARK    8  A    between atoms: C_8  and  O_9
REMARK    9  A    between atoms: C_8  and  C_10
REMARK   10  A    between atoms: C_14  and  N_15
REMARK   11  A    between atoms: C_19  and  OXT_21
REMARK                            x       y       z     vdW  Elec       q    Type
REMARK                         _______ _______ _______ _____ _____    ______ ____
ROOT
ATOM      1  P   UNL     1       6.223   4.822  16.656  0.00  0.00    +0.000 P 
ATOM      2  O   UNL     1       5.493   3.514  16.316  0.00  0.00    +0.000 OA
ENDROOT
BRANCH   1   3
ATOM      3  O   UNL     1       7.818   4.329  16.647  0.00  0.00    +0.000 OA
ATOM      4  H   UNL     1       7.940   3.633  15.956  0.00  0.00    +0.000 HD
ENDBRANCH   1   3
BRANCH   1   5
ATOM      5  C   UNL     1       6.390   5.220  14.877  0.00  0.00    +0.000 C 
BRANCH   5   6
ATOM      6  C   UNL     1       5.612   4.251  13.959  0.00  0.00    +0.000 C 
BRANCH   6   7
ATOM      7  CA  UNL     1       6.428   3.552  12.874  0.00  0.00    +0.000 C 
BRANCH   7   8
ATOM      8  N   UNL     1       7.238   4.497  12.065  0.00  0.00    +0.000 NA
ATOM      9  H1  UNL     1       6.605   5.134  11.575  0.00  0.00    +0.000 HD
ATOM     10  H2  UNL     1       7.704   3.968  11.320  0.00  0.00    +0.000 HD
ENDBRANCH   7   8
BRANCH   7  11
ATOM     11  C   UNL     1       5.498   2.772  11.915  0.00  0.00    +0.000 C 
ATOM     12  O   UNL     1       5.754   1.709  11.372  0.00  0.00    +0.000 OA
BRANCH  11  13
ATOM     13  OXT UNL     1       4.328   3.438  11.725  0.00  0.00    +0.000 OA
ATOM     14  HXT UNL     1       3.606   2.779  11.876  0.00  0.00    +0.000 HD
ENDBRANCH  11  13
ENDBRANCH   7  11
ENDBRANCH   6   7
ENDBRANCH   5   6
ENDBRANCH   1   5
BRANCH   1  15
ATOM     15  C   UNL     1       6.056   4.425  18.434  0.00  0.00    +0.000 C 
BRANCH  15  16
ATOM     16  C   UNL     1       4.655   4.782  18.906  0.00  0.00    +0.000 A 
ATOM     17  C   UNL     1       4.081   6.022  18.599  0.00  0.00    +0.000 A 
ATOM     18  C   UNL     1       2.826   6.373  19.098  0.00  0.00    +0.000 A 
ATOM     19  C   UNL     1       2.121   5.491  19.926  0.00  0.00    +0.000 A 
ATOM     20  C   UNL     1       2.678   4.248  20.228  0.00  0.00    +0.000 A 
ATOM     21  C   UNL     1       3.929   3.882  19.716  0.00  0.00    +0.000 A 
BRANCH  20  22
ATOM     22  N   UNL     1       1.965   3.328  21.126  0.00  0.00    +0.000 N 
ATOM     23  O   UNL     1       2.341   3.265  22.305  0.00  0.00    +0.000 OA
ATOM     24  O   UNL     1       1.054   2.645  20.642  0.00  0.00    +0.000 OA
ENDBRANCH  20  22
ENDBRANCH  15  16
BRANCH  15  25
ATOM     25  O   UNL     1       6.951   5.223  19.230  0.00  0.00    +0.000 OA
ATOM     26  H   UNL     1       7.032   6.068  18.739  0.00  0.00    +0.000 HD
ENDBRANCH  15  25
ENDBRANCH   1  15
TORSDOF 11
ENDMDL
MODEL 9
REMARK VINA RESULT:      -6.5      0.834      1.187
REMARK  Name = 
REMARK  11 active torsions:
REMARK  status: ('A' for Active; 'I' for Inactive)
REMARK    1  A    between atoms: N_1  and  CA_2
REMARK    2  A    between atoms: CA_2  and  C_3
REMARK    3  A    between atoms: CA_2  and  C_19
REMARK    4  A    between atoms: C_3  and  C_4
REMARK    5  A    between atoms: C_4  and  P_5
REMARK    6  A    between atoms: P_5  and  O_7
REMARK    7  A    between atoms: P_5  and  C_8
REMARK    8  A    between atoms: C_8  and  O_9
REMARK    9  A    between atoms: C_8  and  C_10
REMARK   10  A    between atoms: C_14  and  N_15
REMARK   11  A    between atoms: C_19  and  OXT_21
REMARK                            x       y       z     vdW  Elec       q    Type
REMARK                         _______ _______ _______ _____ _____    ______ ____
ROOT
ATOM      1  P   UNL     1       5.137   4.648  16.430  0.00  0.00    +0.000 P 
ATOM      2  O   UNL     1       5.038   5.896  17.319  0.00  0.00    +0.000 OA
ENDROOT
BRANCH   1   3
ATOM      3  O   UNL     1       5.836   3.546  17.473  0.00  0.00    +0.000 OA
ATOM      4  H   UNL     1       6.701   3.249  17.101  0.00  0.00    +0.000 HD
ENDBRANCH   1   3
BRANCH   1   5
ATOM      5  C   UNL     1       3.498   4.076  17.009  0.00  0.00    +0.000 C 
BRANCH   5   6
ATOM      6  C   UNL     1       3.180   4.501  18.460  0.00  0.00    +0.000 C 
BRANCH   6   7
ATOM      7  CA  UNL     1       3.050   3.369  19.478  0.00  0.00    +0.000 C 
BRANCH   7   8
ATOM      8  N   UNL     1       4.270   2.526  19.560  0.00  0.00    +0.000 NA
ATOM      9  H1  UNL     1       4.683   2.638  20.488  0.00  0.00    +0.000 HD
ATOM     10  H2  UNL     1       4.970   2.908  18.914  0.00  0.00    +0.000 HD
ENDBRANCH   7   8
BRANCH   7  11
ATOM     11  C   UNL     1       1.856   2.454  19.120  0.00  0.00    +0.000 C 
ATOM     12  O   UNL     1       0.675   2.712  19.290  0.00  0.00    +0.000 OA
BRANCH  11  13
ATOM     13  OXT UNL     1       2.287   1.278  18.591  0.00  0.00    +0.000 OA
ATOM     14  HXT UNL     1       1.508   0.877  18.131  0.00  0.00    +0.000 HD
ENDBRANCH  11  13
ENDBRANCH   7  11
ENDBRANCH   6   7
ENDBRANCH   5   6
ENDBRANCH   1   5
BRANCH   1  15
ATOM     15  C   UNL     1       6.776   5.219  15.852  0.00  0.00    +0.000 C 
BRANCH  15  16
ATOM     16  C   UNL     1       6.941   4.883  14.378  0.00  0.00    +0.000 A 
ATOM     17  C   UNL     1       7.872   5.560  13.580  0.00  0.00    +0.000 A 
ATOM     18  C   UNL     1       7.965   5.298  12.212  0.00  0.00    +0.000 A 
ATOM     19  C   UNL     1       7.120   4.358  11.611  0.00  0.00    +0.000 A 
ATOM     20  C   UNL     1       6.198   3.669  12.399  0.00  0.00    +0.000 A 
ATOM     21  C   UNL     1       6.110   3.913  13.776  0.00  0.00    +0.000 A 
BRANCH  20  22
ATOM     22  N   UNL     1       5.279   2.706  11.774  0.00  0.00    +0.000 N 
ATOM     23  O   UNL     1       5.725   1.587  11.483  0.00  0.00    +0.000 OA
ATOM     24  O   UNL     1       4.123   3.084  11.544  0.00  0.00    +0.000 OA
ENDBRANCH  20  22
ENDBRANCH  15  16
BRANCH  15  25
ATOM     25  O   UNL     1       7.837   4.524  16.532  0.00  0.00    +0.000 OA
ATOM     26  H   UNL     1       7.542   3.589  16.563  0.00  0.00    +0.000 HD
ENDBRANCH  15  25
ENDBRANCH   1  15
TORSDOF 11
ENDMDL
