MODEL 1
REMARK VINA RESULT:      -7.0      0.000      0.000
REMARK  Name = 
REMARK  6 active torsions:
REMARK  status: ('A' for Active; 'I' for Inactive)
REMARK    1  A    between atoms: C_1  and  O_2
REMARK    2  A    between atoms: O_2  and  C_3
REMARK    3  A    between atoms: N_9  and  C_10
REMARK    4  A    between atoms: C_10  and  C_11
REMARK    5  A    between atoms: C_20  and  O_21
REMARK    6  A    between atoms: O_21  and  C_22
REMARK                            x       y       z     vdW  Elec       q    Type
REMARK                         _______ _______ _______ _____ _____    ______ ____
ROOT
ATOM      1  C   UNL     1       3.856   4.726  19.034  0.00  0.00    +0.000 A 
ATOM      2  C   UNL     1       3.137   5.376  20.051  0.00  0.00    +0.000 A 
ATOM      3  C   UNL     1       2.517   6.597  19.801  0.00  0.00    +0.000 A 
ATOM      4  N   UNL     1       1.790   7.238  20.797  0.00  0.00    +0.000 N 
ATOM      5  C   UNL     1       1.181   8.459  20.644  0.00  0.00    +0.000 A 
ATOM      6  S   UNL     1       0.310   9.013  21.968  0.00  0.00    +0.000 S 
ATOM      7  N   UNL     1       1.373   9.107  19.426  0.00  0.00    +0.000 N 
ATOM      8  C   UNL     1       2.050   8.523  18.345  0.00  0.00    +0.000 A 
ATOM      9  O   UNL     1       2.226   9.076  17.263  0.00  0.00    +0.000 OA
ATOM     10  C   UNL     1       2.620   7.178  18.550  0.00  0.00    +0.000 A 
ATOM     11  C   UNL     1       3.287   6.514  17.511  0.00  0.00    +0.000 A 
ATOM     12  C   UNL     1       3.900   5.276  17.739  0.00  0.00    +0.000 A 
ATOM     13  H   UNL     1       1.676   6.789  21.700  0.00  0.00    +0.000 HD
ENDROOT
BRANCH   1  15
ATOM     14  C   UNL     1       3.588   2.660  20.186  0.00  0.00    +0.000 C 
ATOM     15  O   UNL     1       4.423   3.542  19.441  0.00  0.00    +0.000 OA
ENDBRANCH   1  15
BRANCH  12  16
ATOM     16  O   UNL     1       4.535   4.557  16.765  0.00  0.00    +0.000 OA
ATOM     17  C   UNL     1       5.624   5.153  16.073  0.00  0.00    +0.000 C 
ENDBRANCH  12  16
BRANCH   7  18
ATOM     18  C   UNL     1       0.979  10.507  19.226  0.00  0.00    +0.000 C 
BRANCH  18  19
ATOM     19  C   UNL     1      -0.444  10.639  18.808  0.00  0.00    +0.000 A 
ATOM     20  C   UNL     1      -1.186  10.081  17.786  0.00  0.00    +0.000 A 
ATOM     21  C   UNL     1      -2.457  10.705  17.823  0.00  0.00    +0.000 A 
ATOM     22  C   UNL     1      -2.417  11.589  18.875  0.00  0.00    +0.000 A 
ATOM     23  O   UNL     1      -1.200  11.556  19.477  0.00  0.00    +0.000 OA
ENDBRANCH  18  19
ENDBRANCH   7  18
TORSDOF 4
ENDMDL
MODEL 2
REMARK VINA RESULT:      -6.8      0.987      1.129
REMARK  Name = 
REMARK  6 active torsions:
REMARK  status: ('A' for Active; 'I' for Inactive)
REMARK    1  A    between atoms: C_1  and  O_2
REMARK    2  A    between atoms: O_2  and  C_3
REMARK    3  A    between atoms: N_9  and  C_10
REMARK    4  A    between atoms: C_10  and  C_11
REMARK    5  A    between atoms: C_20  and  O_21
REMARK    6  A    between atoms: O_21  and  C_22
REMARK                            x       y       z     vdW  Elec       q    Type
REMARK                         _______ _______ _______ _____ _____    ______ ____
ROOT
ATOM      1  C   UNL     1       3.107   4.321  19.705  0.00  0.00    +0.000 A 
ATOM      2  C   UNL     1       2.468   5.212  20.583  0.00  0.00    +0.000 A 
ATOM      3  C   UNL     1       2.097   6.481  20.148  0.00  0.00    +0.000 A 
ATOM      4  N   UNL     1       1.449   7.362  21.006  0.00  0.00    +0.000 N 
ATOM      5  C   UNL     1       1.083   8.641  20.668  0.00  0.00    +0.000 A 
ATOM      6  S   UNL     1       0.261   9.503  21.851  0.00  0.00    +0.000 S 
ATOM      7  N   UNL     1       1.456   9.085  19.402  0.00  0.00    +0.000 N 
ATOM      8  C   UNL     1       2.069   8.259  18.449  0.00  0.00    +0.000 A 
ATOM      9  O   UNL     1       2.401   8.630  17.326  0.00  0.00    +0.000 OA
ATOM     10  C   UNL     1       2.371   6.871  18.849  0.00  0.00    +0.000 A 
ATOM     11  C   UNL     1       2.958   5.974  17.947  0.00  0.00    +0.000 A 
ATOM     12  C   UNL     1       3.320   4.687  18.361  0.00  0.00    +0.000 A 
ATOM     13  H   UNL     1       1.206   7.058  21.944  0.00  0.00    +0.000 HD
ENDROOT
BRANCH   1  15
ATOM     14  C   UNL     1       2.605   2.702  21.375  0.00  0.00    +0.000 C 
ATOM     15  O   UNL     1       3.424   3.118  20.286  0.00  0.00    +0.000 OA
ENDBRANCH   1  15
BRANCH  12  16
ATOM     16  O   UNL     1       3.862   3.749  17.527  0.00  0.00    +0.000 OA
ATOM     17  C   UNL     1       4.697   4.182  16.462  0.00  0.00    +0.000 C 
ENDBRANCH  12  16
BRANCH   7  18
ATOM     18  C   UNL     1       1.337  10.496  19.012  0.00  0.00    +0.000 C 
BRANCH  18  19
ATOM     19  C   UNL     1      -0.042  10.847  18.573  0.00  0.00    +0.000 A 
ATOM     20  C   UNL     1      -0.906  11.874  18.897  0.00  0.00    +0.000 A 
ATOM     21  C   UNL     1      -2.134  11.588  18.253  0.00  0.00    +0.000 A 
ATOM     22  C   UNL     1      -1.937  10.416  17.561  0.00  0.00    +0.000 A 
ATOM     23  O   UNL     1      -0.672   9.959  17.750  0.00  0.00    +0.000 OA
ENDBRANCH  18  19
ENDBRANCH   7  18
TORSDOF 4
ENDMDL
MODEL 3
REMARK VINA RESULT:      -6.4      2.058      6.784
REMARK  Name = 
REMARK  6 active torsions:
REMARK  status: ('A' for Active; 'I' for Inactive)
REMARK    1  A    between atoms: C_1  and  O_2
REMARK    2  A    between atoms: O_2  and  C_3
REMARK    3  A    between atoms: N_9  and  C_10
REMARK    4  A    between atoms: C_10  and  C_11
REMARK    5  A    between atoms: C_20  and  O_21
REMARK    6  A    between atoms: O_21  and  C_22
REMARK                            x       y       z     vdW  Elec       q    Type
REMARK                         _______ _______ _______ _____ _____    ______ ____
ROOT
ATOM      1  C   UNL     1       0.134   9.813  21.048  0.00  0.00    +0.000 A 
ATOM      2  C   UNL     1       0.635   8.523  21.287  0.00  0.00    +0.000 A 
ATOM      3  C   UNL     1       1.470   7.911  20.355  0.00  0.00    +0.000 A 
ATOM      4  N   UNL     1       1.983   6.641  20.592  0.00  0.00    +0.000 N 
ATOM      5  C   UNL     1       2.781   5.955  19.710  0.00  0.00    +0.000 A 
ATOM      6  S   UNL     1       3.329   4.457  20.235  0.00  0.00    +0.000 S 
ATOM      7  N   UNL     1       3.023   6.562  18.480  0.00  0.00    +0.000 N 
ATOM      8  C   UNL     1       2.589   7.858  18.166  0.00  0.00    +0.000 A 
ATOM      9  O   UNL     1       2.795   8.411  17.089  0.00  0.00    +0.000 OA
ATOM     10  C   UNL     1       1.796   8.572  19.185  0.00  0.00    +0.000 A 
ATOM     11  C   UNL     1       1.349   9.881  18.959  0.00  0.00    +0.000 A 
ATOM     12  C   UNL     1       0.524  10.519  19.893  0.00  0.00    +0.000 A 
ATOM     13  H   UNL     1       1.781   6.177  21.471  0.00  0.00    +0.000 HD
ENDROOT
BRANCH   1  15
ATOM     14  C   UNL     1      -0.433   9.770  23.359  0.00  0.00    +0.000 C 
ATOM     15  O   UNL     1      -0.686  10.271  22.050  0.00  0.00    +0.000 OA
ENDBRANCH   1  15
BRANCH  12  16
ATOM     16  O   UNL     1       0.081  11.806  19.757  0.00  0.00    +0.000 OA
ATOM     17  C   UNL     1      -0.589  12.174  18.559  0.00  0.00    +0.000 C 
ENDBRANCH  12  16
BRANCH   7  18
ATOM     18  C   UNL     1       3.654   5.835  17.372  0.00  0.00    +0.000 C 
BRANCH  18  19
ATOM     19  C   UNL     1       5.140   5.931  17.407  0.00  0.00    +0.000 A 
ATOM     20  C   UNL     1       6.028   6.958  17.156  0.00  0.00    +0.000 A 
ATOM     21  C   UNL     1       7.326   6.394  17.221  0.00  0.00    +0.000 A 
ATOM     22  C   UNL     1       7.149   5.065  17.526  0.00  0.00    +0.000 A 
ATOM     23  O   UNL     1       5.827   4.775  17.640  0.00  0.00    +0.000 OA
ENDBRANCH  18  19
ENDBRANCH   7  18
TORSDOF 4
ENDMDL
MODEL 4
REMARK VINA RESULT:      -6.4      2.372      6.869
REMARK  Name = 
REMARK  6 active torsions:
REMARK  status: ('A' for Active; 'I' for Inactive)
REMARK    1  A    between atoms: C_1  and  O_2
REMARK    2  A    between atoms: O_2  and  C_3
REMARK    3  A    between atoms: N_9  and  C_10
REMARK    4  A    between atoms: C_10  and  C_11
REMARK    5  A    between atoms: C_20  and  O_21
REMARK    6  A    between atoms: O_21  and  C_22
REMARK                            x       y       z     vdW  Elec       q    Type
REMARK                         _______ _______ _______ _____ _____    ______ ____
ROOT
ATOM      1  C   UNL     1       0.385   9.618  20.777  0.00  0.00    +0.000 A 
ATOM      2  C   UNL     1       0.694   8.303  21.163  0.00  0.00    +0.000 A 
ATOM      3  C   UNL     1       1.534   7.520  20.376  0.00  0.00    +0.000 A 
ATOM      4  N   UNL     1       1.858   6.224  20.760  0.00  0.00    +0.000 N 
ATOM      5  C   UNL     1       2.647   5.375  20.024  0.00  0.00    +0.000 A 
ATOM      6  S   UNL     1       2.947   3.874  20.714  0.00  0.00    +0.000 S 
ATOM      7  N   UNL     1       3.084   5.841  18.786  0.00  0.00    +0.000 N 
ATOM      8  C   UNL     1       2.850   7.147  18.332  0.00  0.00    +0.000 A 
ATOM      9  O   UNL     1       3.230   7.578  17.247  0.00  0.00    +0.000 OA
ATOM     10  C   UNL     1       2.055   8.035  19.203  0.00  0.00    +0.000 A 
ATOM     11  C   UNL     1       1.801   9.363  18.834  0.00  0.00    +0.000 A 
ATOM     12  C   UNL     1       0.974  10.172  19.623  0.00  0.00    +0.000 A 
ATOM     13  H   UNL     1       1.512   5.864  21.644  0.00  0.00    +0.000 HD
ENDROOT
BRANCH   1  15
ATOM     14  C   UNL     1      -0.393   9.858  23.014  0.00  0.00    +0.000 C 
ATOM     15  O   UNL     1      -0.467  10.254  21.647  0.00  0.00    +0.000 OA
ENDBRANCH   1  15
BRANCH  12  16
ATOM     16  O   UNL     1       0.712  11.484  19.344  0.00  0.00    +0.000 OA
ATOM     17  C   UNL     1       1.598  12.478  19.840  0.00  0.00    +0.000 C 
ENDBRANCH  12  16
BRANCH   7  18
ATOM     18  C   UNL     1       3.727   4.952  17.810  0.00  0.00    +0.000 C 
BRANCH  18  19
ATOM     19  C   UNL     1       5.209   4.939  17.948  0.00  0.00    +0.000 A 
ATOM     20  C   UNL     1       6.073   5.397  18.923  0.00  0.00    +0.000 A 
ATOM     21  C   UNL     1       7.384   5.219  18.417  0.00  0.00    +0.000 A 
ATOM     22  C   UNL     1       7.238   4.646  17.175  0.00  0.00    +0.000 A 
ATOM     23  O   UNL     1       5.923   4.473  16.883  0.00  0.00    +0.000 OA
ENDBRANCH  18  19
ENDBRANCH   7  18
TORSDOF 4
ENDMDL
MODEL 5
REMARK VINA RESULT:      -6.3      2.466      7.184
REMARK  Name = 
REMARK  6 active torsions:
REMARK  status: ('A' for Active; 'I' for Inactive)
REMARK    1  A    between atoms: C_1  and  O_2
REMARK    2  A    between atoms: O_2  and  C_3
REMARK    3  A    between atoms: N_9  and  C_10
REMARK    4  A    between atoms: C_10  and  C_11
REMARK    5  A    between atoms: C_20  and  O_21
REMARK    6  A    between atoms: O_21  and  C_22
REMARK                            x       y       z     vdW  Elec       q    Type
REMARK                         _______ _______ _______ _____ _____    ______ ____
ROOT
ATOM      1  C   UNL     1       0.882  10.098  19.303  0.00  0.00    +0.000 A 
ATOM      2  C   UNL     1       1.801   9.684  18.326  0.00  0.00    +0.000 A 
ATOM      3  C   UNL     1       2.417   8.439  18.425  0.00  0.00    +0.000 A 
ATOM      4  N   UNL     1       3.315   8.015  17.452  0.00  0.00    +0.000 N 
ATOM      5  C   UNL     1       3.992   6.822  17.494  0.00  0.00    +0.000 A 
ATOM      6  S   UNL     1       4.985   6.498  16.180  0.00  0.00    +0.000 S 
ATOM      7  N   UNL     1       3.801   6.033  18.626  0.00  0.00    +0.000 N 
ATOM      8  C   UNL     1       2.882   6.351  19.636  0.00  0.00    +0.000 A 
ATOM      9  O   UNL     1       2.696   5.666  20.639  0.00  0.00    +0.000 OA
ATOM     10  C   UNL     1       2.132   7.614  19.497  0.00  0.00    +0.000 A 
ATOM     11  C   UNL     1       1.176   7.990  20.450  0.00  0.00    +0.000 A 
ATOM     12  C   UNL     1       0.532   9.230  20.356  0.00  0.00    +0.000 A 
ATOM     13  H   UNL     1       3.488   8.602  16.642  0.00  0.00    +0.000 HD
ENDROOT
BRANCH   1  15
ATOM     14  C   UNL     1      -0.893  11.420  18.428  0.00  0.00    +0.000 C 
ATOM     15  O   UNL     1       0.374  11.354  19.075  0.00  0.00    +0.000 OA
ENDBRANCH   1  15
BRANCH  12  16
ATOM     16  O   UNL     1      -0.436   9.647  21.227  0.00  0.00    +0.000 OA
ATOM     17  C   UNL     1      -0.266   9.387  22.614  0.00  0.00    +0.000 C 
ENDBRANCH  12  16
BRANCH   7  18
ATOM     18  C   UNL     1       4.640   4.860  18.900  0.00  0.00    +0.000 C 
BRANCH  18  19
ATOM     19  C   UNL     1       3.993   3.589  18.472  0.00  0.00    +0.000 A 
ATOM     20  C   UNL     1       3.096   3.273  17.470  0.00  0.00    +0.000 A 
ATOM     21  C   UNL     1       2.746   1.914  17.656  0.00  0.00    +0.000 A 
ATOM     22  C   UNL     1       3.465   1.480  18.744  0.00  0.00    +0.000 A 
ATOM     23  O   UNL     1       4.223   2.489  19.246  0.00  0.00    +0.000 OA
ENDBRANCH  18  19
ENDBRANCH   7  18
TORSDOF 4
ENDMDL
MODEL 6
REMARK VINA RESULT:      -6.2      1.496      2.253
REMARK  Name = 
REMARK  6 active torsions:
REMARK  status: ('A' for Active; 'I' for Inactive)
REMARK    1  A    between atoms: C_1  and  O_2
REMARK    2  A    between atoms: O_2  and  C_3
REMARK    3  A    between atoms: N_9  and  C_10
REMARK    4  A    between atoms: C_10  and  C_11
REMARK    5  A    between atoms: C_20  and  O_21
REMARK    6  A    between atoms: O_21  and  C_22
REMARK                            x       y       z     vdW  Elec       q    Type
REMARK                         _______ _______ _______ _____ _____    ______ ____
ROOT
ATOM      1  C   UNL     1       4.169   5.338  18.968  0.00  0.00    +0.000 A 
ATOM      2  C   UNL     1       3.326   5.852  19.967  0.00  0.00    +0.000 A 
ATOM      3  C   UNL     1       2.528   6.963  19.708  0.00  0.00    +0.000 A 
ATOM      4  N   UNL     1       1.679   7.467  20.687  0.00  0.00    +0.000 N 
ATOM      5  C   UNL     1       0.890   8.578  20.526  0.00  0.00    +0.000 A 
ATOM      6  S   UNL     1      -0.097   8.968  21.828  0.00  0.00    +0.000 S 
ATOM      7  N   UNL     1       1.014   9.266  19.322  0.00  0.00    +0.000 N 
ATOM      8  C   UNL     1       1.807   8.812  18.257  0.00  0.00    +0.000 A 
ATOM      9  O   UNL     1       1.926   9.402  17.187  0.00  0.00    +0.000 OA
ATOM     10  C   UNL     1       2.576   7.571  18.467  0.00  0.00    +0.000 A 
ATOM     11  C   UNL     1       3.370   7.036  17.444  0.00  0.00    +0.000 A 
ATOM     12  C   UNL     1       4.165   5.908  17.679  0.00  0.00    +0.000 A 
ATOM     13  H   UNL     1       1.611   6.992  21.581  0.00  0.00    +0.000 HD
ENDROOT
BRANCH   1  15
ATOM     14  C   UNL     1       4.234   2.995  19.383  0.00  0.00    +0.000 C 
ATOM     15  O   UNL     1       4.904   4.253  19.381  0.00  0.00    +0.000 OA
ENDBRANCH   1  15
BRANCH  12  16
ATOM     16  O   UNL     1       4.934   5.312  16.719  0.00  0.00    +0.000 OA
ATOM     17  C   UNL     1       6.178   5.906  16.373  0.00  0.00    +0.000 C 
ENDBRANCH  12  16
BRANCH   7  18
ATOM     18  C   UNL     1       0.409  10.589  19.123  0.00  0.00    +0.000 C 
BRANCH  18  19
ATOM     19  C   UNL     1       1.285  11.690  19.609  0.00  0.00    +0.000 A 
ATOM     20  C   UNL     1       1.446  12.299  20.838  0.00  0.00    +0.000 A 
ATOM     21  C   UNL     1       2.336  13.383  20.638  0.00  0.00    +0.000 A 
ATOM     22  C   UNL     1       2.678  13.354  19.307  0.00  0.00    +0.000 A 
ATOM     23  O   UNL     1       2.045  12.332  18.675  0.00  0.00    +0.000 OA
ENDBRANCH  18  19
ENDBRANCH   7  18
TORSDOF 4
ENDMDL
MODEL 7
REMARK VINA RESULT:      -6.2      3.860      7.360
REMARK  Name = 
REMARK  6 active torsions:
REMARK  status: ('A' for Active; 'I' for Inactive)
REMARK    1  A    between atoms: C_1  and  O_2
REMARK    2  A    between atoms: O_2  and  C_3
REMARK    3  A    between atoms: N_9  and  C_10
REMARK    4  A    between atoms: C_10  and  C_11
REMARK    5  A    between atoms: C_20  and  O_21
REMARK    6  A    between atoms: O_21  and  C_22
REMARK                            x       y       z     vdW  Elec       q    Type
REMARK                         _______ _______ _______ _____ _____    ______ ____
ROOT
ATOM      1  C   UNL     1       2.081   5.573  19.885  0.00  0.00    +0.000 A 
ATOM      2  C   UNL     1       3.189   6.369  19.547  0.00  0.00    +0.000 A 
ATOM      3  C   UNL     1       4.129   5.909  18.628  0.00  0.00    +0.000 A 
ATOM      4  N   UNL     1       5.218   6.698  18.277  0.00  0.00    +0.000 N 
ATOM      5  C   UNL     1       6.207   6.305  17.410  0.00  0.00    +0.000 A 
ATOM      6  S   UNL     1       7.396   7.447  17.092  0.00  0.00    +0.000 S 
ATOM      7  N   UNL     1       6.127   5.006  16.915  0.00  0.00    +0.000 N 
ATOM      8  C   UNL     1       5.045   4.152  17.173  0.00  0.00    +0.000 A 
ATOM      9  O   UNL     1       4.955   3.005  16.743  0.00  0.00    +0.000 OA
ATOM     10  C   UNL     1       3.978   4.659  18.056  0.00  0.00    +0.000 A 
ATOM     11  C   UNL     1       2.849   3.878  18.341  0.00  0.00    +0.000 A 
ATOM     12  C   UNL     1       1.884   4.332  19.248  0.00  0.00    +0.000 A 
ATOM     13  H   UNL     1       5.302   7.633  18.662  0.00  0.00    +0.000 HD
ENDROOT
BRANCH   1  15
ATOM     14  C   UNL     1       1.300   7.578  20.903  0.00  0.00    +0.000 C 
ATOM     15  O   UNL     1       1.256   6.157  20.815  0.00  0.00    +0.000 OA
ENDBRANCH   1  15
BRANCH  12  16
ATOM     16  O   UNL     1       0.742   3.641  19.545  0.00  0.00    +0.000 OA
ATOM     17  C   UNL     1       0.548   2.359  18.964  0.00  0.00    +0.000 C 
ENDBRANCH  12  16
BRANCH   7  18
ATOM     18  C   UNL     1       7.238   4.392  16.177  0.00  0.00    +0.000 C 
BRANCH  18  19
ATOM     19  C   UNL     1       7.077   4.522  14.702  0.00  0.00    +0.000 A 
ATOM     20  C   UNL     1       6.294   3.864  13.774  0.00  0.00    +0.000 A 
ATOM     21  C   UNL     1       6.688   4.344  12.501  0.00  0.00    +0.000 A 
ATOM     22  C   UNL     1       7.671   5.277  12.734  0.00  0.00    +0.000 A 
ATOM     23  O   UNL     1       7.913   5.391  14.065  0.00  0.00    +0.000 OA
ENDBRANCH  18  19
ENDBRANCH   7  18
TORSDOF 4
ENDMDL
MODEL 8
REMARK VINA RESULT:      -6.2      2.542      7.198
REMARK  Name = 
REMARK  6 active torsions:
REMARK  status: ('A' for Active; 'I' for Inactive)
REMARK    1  A    between atoms: C_1  and  O_2
REMARK    2  A    between atoms: O_2  and  C_3
REMARK    3  A    between atoms: N_9  and  C_10
REMARK    4  A    between atoms: C_10  and  C_11
REMARK    5  A    between atoms: C_20  and  O_21
REMARK    6  A    between atoms: O_21  and  C_22
REMARK                            x       y       z     vdW  Elec       q    Type
REMARK                         _______ _______ _______ _____ _____    ______ ____
ROOT
ATOM      1  C   UNL     1       0.852  10.759  18.939  0.00  0.00    +0.000 A 
ATOM      2  C   UNL     1       1.797  10.110  18.126  0.00  0.00    +0.000 A 
ATOM      3  C   UNL     1       2.214   8.817  18.431  0.00  0.00    +0.000 A 
ATOM      4  N   UNL     1       3.136   8.163  17.622  0.00  0.00    +0.000 N 
ATOM      5  C   UNL     1       3.626   6.905  17.873  0.00  0.00    +0.000 A 
ATOM      6  S   UNL     1       4.690   6.294  16.726  0.00  0.00    +0.000 S 
ATOM      7  N   UNL     1       3.210   6.294  19.053  0.00  0.00    +0.000 N 
ATOM      8  C   UNL     1       2.249   6.852  19.908  0.00  0.00    +0.000 A 
ATOM      9  O   UNL     1       1.867   6.327  20.951  0.00  0.00    +0.000 OA
ATOM     10  C   UNL     1       1.706   8.175  19.546  0.00  0.00    +0.000 A 
ATOM     11  C   UNL     1       0.723   8.788  20.334  0.00  0.00    +0.000 A 
ATOM     12  C   UNL     1       0.277  10.081  20.031  0.00  0.00    +0.000 A 
ATOM     13  H   UNL     1       3.472   8.617  16.779  0.00  0.00    +0.000 HD
ENDROOT
BRANCH   1  15
ATOM     14  C   UNL     1       1.390  13.077  19.012  0.00  0.00    +0.000 C 
ATOM     15  O   UNL     1       0.556  12.033  18.518  0.00  0.00    +0.000 OA
ENDBRANCH   1  15
BRANCH  12  16
ATOM     16  O   UNL     1      -0.704  10.725  20.733  0.00  0.00    +0.000 OA
ATOM     17  C   UNL     1      -0.518  10.944  22.124  0.00  0.00    +0.000 C 
ENDBRANCH  12  16
BRANCH   7  18
ATOM     18  C   UNL     1       3.840   5.064  19.548  0.00  0.00    +0.000 C 
BRANCH  18  19
ATOM     19  C   UNL     1       3.277   3.843  18.909  0.00  0.00    +0.000 A 
ATOM     20  C   UNL     1       2.006   3.487  18.501  0.00  0.00    +0.000 A 
ATOM     21  C   UNL     1       2.078   2.134  18.089  0.00  0.00    +0.000 A 
ATOM     22  C   UNL     1       3.390   1.756  18.251  0.00  0.00    +0.000 A 
ATOM     23  O   UNL     1       4.124   2.785  18.748  0.00  0.00    +0.000 OA
ENDBRANCH  18  19
ENDBRANCH   7  18
TORSDOF 4
ENDMDL
MODEL 9
REMARK VINA RESULT:      -6.1      2.674      7.194
REMARK  Name = 
REMARK  6 active torsions:
REMARK  status: ('A' for Active; 'I' for Inactive)
REMARK    1  A    between atoms: C_1  and  O_2
REMARK    2  A    between atoms: O_2  and  C_3
REMARK    3  A    between atoms: N_9  and  C_10
REMARK    4  A    between atoms: C_10  and  C_11
REMARK    5  A    between atoms: C_20  and  O_21
REMARK    6  A    between atoms: O_21  and  C_22
REMARK                            x       y       z     vdW  Elec       q    Type
REMARK                         _______ _______ _______ _____ _____    ______ ____
ROOT
ATOM      1  C   UNL     1       0.981  10.060  18.989  0.00  0.00    +0.000 A 
ATOM      2  C   UNL     1       1.921   9.577  18.063  0.00  0.00    +0.000 A 
ATOM      3  C   UNL     1       2.530   8.341  18.260  0.00  0.00    +0.000 A 
ATOM      4  N   UNL     1       3.448   7.850  17.339  0.00  0.00    +0.000 N 
ATOM      5  C   UNL     1       4.119   6.661  17.477  0.00  0.00    +0.000 A 
ATOM      6  S   UNL     1       5.139   6.246  16.210  0.00  0.00    +0.000 S 
ATOM      7  N   UNL     1       3.900   5.951  18.655  0.00  0.00    +0.000 N 
ATOM      8  C   UNL     1       2.960   6.339  19.621  0.00  0.00    +0.000 A 
ATOM      9  O   UNL     1       2.749   5.724  20.663  0.00  0.00    +0.000 OA
ATOM     10  C   UNL     1       2.218   7.591  19.379  0.00  0.00    +0.000 A 
ATOM     11  C   UNL     1       1.242   8.033  20.282  0.00  0.00    +0.000 A 
ATOM     12  C   UNL     1       0.605   9.265  20.090  0.00  0.00    +0.000 A 
ATOM     13  H   UNL     1       3.640   8.380  16.495  0.00  0.00    +0.000 HD
ENDROOT
BRANCH   1  15
ATOM     14  C   UNL     1       1.391  12.392  18.753  0.00  0.00    +0.000 C 
ATOM     15  O   UNL     1       0.483  11.298  18.664  0.00  0.00    +0.000 OA
ENDBRANCH   1  15
BRANCH  12  16
ATOM     16  O   UNL     1      -0.381   9.743  20.909  0.00  0.00    +0.000 OA
ATOM     17  C   UNL     1      -0.024  10.234  22.194  0.00  0.00    +0.000 C 
ENDBRANCH  12  16
BRANCH   7  18
ATOM     18  C   UNL     1       4.728   4.797  19.026  0.00  0.00    +0.000 C 
BRANCH  18  19
ATOM     19  C   UNL     1       4.033   3.502  18.791  0.00  0.00    +0.000 A 
ATOM     20  C   UNL     1       4.098   2.267  19.405  0.00  0.00    +0.000 A 
ATOM     21  C   UNL     1       3.294   1.390  18.637  0.00  0.00    +0.000 A 
ATOM     22  C   UNL     1       2.773   2.149  17.615  0.00  0.00    +0.000 A 
ATOM     23  O   UNL     1       3.216   3.430  17.700  0.00  0.00    +0.000 OA
ENDBRANCH  18  19
ENDBRANCH   7  18
TORSDOF 4
ENDMDL
