MODEL 1
REMARK VINA RESULT:      -6.8      0.000      0.000
REMARK  Name = 
REMARK  5 active torsions:
REMARK  status: ('A' for Active; 'I' for Inactive)
REMARK    1  A    between atoms: P_2  and  O_3
REMARK    2  A    between atoms: P_2  and  O_4
REMARK    3  A    between atoms: P_2  and  C_5
REMARK    4  A    between atoms: C_5  and  C_6
REMARK    5  A    between atoms: C_8  and  O_9
REMARK                            x       y       z     vdW  Elec       q    Type
REMARK                         _______ _______ _______ _____ _____    ______ ____
ROOT
ATOM      1  C   UNL     1       3.929   5.715  17.471  0.00  0.00    +0.000 A 
ATOM      2  C   UNL     1       3.605   7.082  17.422  0.00  0.00    +0.000 A 
ATOM      3  C   UNL     1       2.784   7.606  18.388  0.00  0.00    +0.000 A 
ATOM      4  N   UNL     1       2.256   6.883  19.372  0.00  0.00    +0.000 NA
ATOM      5  C   UNL     1       2.481   5.565  19.396  0.00  0.00    +0.000 A 
ATOM      6  C   UNL     1       1.872   4.899  20.445  0.00  0.00    +0.000 A 
ATOM      7  C   UNL     1       1.984   3.527  20.600  0.00  0.00    +0.000 A 
ATOM      8 CL   UNL     1       1.222   2.742  21.924  0.00  0.00    +0.000 Cl
ATOM      9  C   UNL     1       2.686   2.788  19.671  0.00  0.00    +0.000 A 
ATOM     10  C   UNL     1       3.310   3.436  18.599  0.00  0.00    +0.000 A 
ATOM     11 CL   UNL     1       3.996   2.346  17.441  0.00  0.00    +0.000 Cl
ATOM     12  C   UNL     1       3.279   4.868  18.446  0.00  0.00    +0.000 A 
ENDROOT
BRANCH   3  13
ATOM     13  O   UNL     1       2.494   8.937  18.426  0.00  0.00    +0.000 OA
ATOM     14  H   UNL     1       1.631   9.074  18.008  0.00  0.00    +0.000 HD
ENDBRANCH   3  13
BRANCH   1  15
ATOM     15  C   UNL     1       5.010   5.274  16.496  0.00  0.00    +0.000 C 
BRANCH  15  17
ATOM     16  O   UNL     1       8.010   4.505  17.845  0.00  0.00    +0.000 OA
ATOM     17  P   UNL     1       6.635   4.858  17.227  0.00  0.00    +0.000 P 
BRANCH  17  18
ATOM     18  O   UNL     1       7.310   6.076  16.349  0.00  0.00    +0.000 OA
ATOM     19  H   UNL     1       8.181   5.749  16.042  0.00  0.00    +0.000 HD
ENDBRANCH  17  18
BRANCH  17  20
ATOM     20  O   UNL     1       6.803   3.708  16.063  0.00  0.00    +0.000 OA
ATOM     21  H   UNL     1       6.496   2.858  16.437  0.00  0.00    +0.000 HD
ENDBRANCH  17  20
ENDBRANCH  15  17
ENDBRANCH   1  15
TORSDOF 5
ENDMDL
MODEL 2
REMARK VINA RESULT:      -6.8      0.840      1.187
REMARK  Name = 
REMARK  5 active torsions:
REMARK  status: ('A' for Active; 'I' for Inactive)
REMARK    1  A    between atoms: P_2  and  O_3
REMARK    2  A    between atoms: P_2  and  O_4
REMARK    3  A    between atoms: P_2  and  C_5
REMARK    4  A    between atoms: C_5  and  C_6
REMARK    5  A    between atoms: C_8  and  O_9
REMARK                            x       y       z     vdW  Elec       q    Type
REMARK                         _______ _______ _______ _____ _____    ______ ____
ROOT
ATOM      1  C   UNL     1       4.012   4.779  17.493  0.00  0.00    +0.000 A 
ATOM      2  C   UNL     1       3.842   6.159  17.289  0.00  0.00    +0.000 A 
ATOM      3  C   UNL     1       3.100   6.879  18.193  0.00  0.00    +0.000 A 
ATOM      4  N   UNL     1       2.511   6.336  19.255  0.00  0.00    +0.000 NA
ATOM      5  C   UNL     1       2.589   5.012  19.428  0.00  0.00    +0.000 A 
ATOM      6  C   UNL     1       1.927   4.541  20.549  0.00  0.00    +0.000 A 
ATOM      7  C   UNL     1       1.889   3.192  20.860  0.00  0.00    +0.000 A 
ATOM      8 CL   UNL     1       1.066   2.653  22.268  0.00  0.00    +0.000 Cl
ATOM      9  C   UNL     1       2.489   2.278  20.019  0.00  0.00    +0.000 A 
ATOM     10  C   UNL     1       3.163   2.727  18.877  0.00  0.00    +0.000 A 
ATOM     11 CL   UNL     1       3.703   1.442  17.848  0.00  0.00    +0.000 Cl
ATOM     12  C   UNL     1       3.289   4.127  18.561  0.00  0.00    +0.000 A 
ENDROOT
BRANCH   3  13
ATOM     13  O   UNL     1       2.961   8.230  18.079  0.00  0.00    +0.000 OA
ATOM     14  H   UNL     1       3.748   8.582  17.639  0.00  0.00    +0.000 HD
ENDBRANCH   3  13
BRANCH   1  15
ATOM     15  C   UNL     1       5.021   4.112  16.571  0.00  0.00    +0.000 C 
BRANCH  15  17
ATOM     16  O   UNL     1       7.673   5.994  15.653  0.00  0.00    +0.000 OA
ATOM     17  P   UNL     1       6.458   5.131  16.074  0.00  0.00    +0.000 P 
BRANCH  17  18
ATOM     18  O   UNL     1       6.669   4.147  14.772  0.00  0.00    +0.000 OA
ATOM     19  H   UNL     1       6.937   3.272  15.124  0.00  0.00    +0.000 HD
ENDBRANCH  17  18
BRANCH  17  20
ATOM     20  O   UNL     1       7.378   4.238  17.102  0.00  0.00    +0.000 OA
ATOM     21  H   UNL     1       8.307   4.298  16.800  0.00  0.00    +0.000 HD
ENDBRANCH  17  20
ENDBRANCH  15  17
ENDBRANCH   1  15
TORSDOF 5
ENDMDL
MODEL 3
REMARK VINA RESULT:      -6.6      1.005      1.223
REMARK  Name = 
REMARK  5 active torsions:
REMARK  status: ('A' for Active; 'I' for Inactive)
REMARK    1  A    between atoms: P_2  and  O_3
REMARK    2  A    between atoms: P_2  and  O_4
REMARK    3  A    between atoms: P_2  and  C_5
REMARK    4  A    between atoms: C_5  and  C_6
REMARK    5  A    between atoms: C_8  and  O_9
REMARK                            x       y       z     vdW  Elec       q    Type
REMARK                         _______ _______ _______ _____ _____    ______ ____
ROOT
ATOM      1  C   UNL     1       3.796   6.354  17.686  0.00  0.00    +0.000 A 
ATOM      2  C   UNL     1       3.254   7.651  17.720  0.00  0.00    +0.000 A 
ATOM      3  C   UNL     1       2.328   7.960  18.684  0.00  0.00    +0.000 A 
ATOM      4  N   UNL     1       1.895   7.088  19.591  0.00  0.00    +0.000 NA
ATOM      5  C   UNL     1       2.333   5.826  19.531  0.00  0.00    +0.000 A 
ATOM      6  C   UNL     1       1.808   4.991  20.503  0.00  0.00    +0.000 A 
ATOM      7  C   UNL     1       2.140   3.648  20.566  0.00  0.00    +0.000 A 
ATOM      8 CL   UNL     1       1.475   2.651  21.797  0.00  0.00    +0.000 Cl
ATOM      9  C   UNL     1       2.983   3.105  19.619  0.00  0.00    +0.000 A 
ATOM     10  C   UNL     1       3.525   3.926  18.623  0.00  0.00    +0.000 A 
ATOM     11 CL   UNL     1       4.416   3.053  17.422  0.00  0.00    +0.000 Cl
ATOM     12  C   UNL     1       3.264   5.342  18.570  0.00  0.00    +0.000 A 
ENDROOT
BRANCH   3  13
ATOM     13  O   UNL     1       1.822   9.220  18.803  0.00  0.00    +0.000 OA
ATOM     14  H   UNL     1       1.828   9.465  19.740  0.00  0.00    +0.000 HD
ENDBRANCH   3  13
BRANCH   1  15
ATOM     15  C   UNL     1       4.965   6.170  16.731  0.00  0.00    +0.000 C 
BRANCH  15  17
ATOM     16  O   UNL     1       7.920   7.476  17.722  0.00  0.00    +0.000 OA
ATOM     17  P   UNL     1       6.566   6.877  17.267  0.00  0.00    +0.000 P 
BRANCH  17  18
ATOM     18  O   UNL     1       7.303   6.066  16.040  0.00  0.00    +0.000 OA
ATOM     19  H   UNL     1       8.268   6.172  16.175  0.00  0.00    +0.000 HD
ENDBRANCH  17  18
BRANCH  17  20
ATOM     20  O   UNL     1       6.678   5.654  18.360  0.00  0.00    +0.000 OA
ATOM     21  H   UNL     1       7.357   5.903  19.018  0.00  0.00    +0.000 HD
ENDBRANCH  17  20
ENDBRANCH  15  17
ENDBRANCH   1  15
TORSDOF 5
ENDMDL
MODEL 4
REMARK VINA RESULT:      -6.6      3.183      4.512
REMARK  Name = 
REMARK  5 active torsions:
REMARK  status: ('A' for Active; 'I' for Inactive)
REMARK    1  A    between atoms: P_2  and  O_3
REMARK    2  A    between atoms: P_2  and  O_4
REMARK    3  A    between atoms: P_2  and  C_5
REMARK    4  A    between atoms: C_5  and  C_6
REMARK    5  A    between atoms: C_8  and  O_9
REMARK                            x       y       z     vdW  Elec       q    Type
REMARK                         _______ _______ _______ _____ _____    ______ ____
ROOT
ATOM      1  C   UNL     1       4.486   4.057  17.001  0.00  0.00    +0.000 A 
ATOM      2  C   UNL     1       5.700   4.101  16.293  0.00  0.00    +0.000 A 
ATOM      3  C   UNL     1       6.262   5.320  16.011  0.00  0.00    +0.000 A 
ATOM      4  N   UNL     1       5.709   6.480  16.358  0.00  0.00    +0.000 NA
ATOM      5  C   UNL     1       4.515   6.470  16.960  0.00  0.00    +0.000 A 
ATOM      6  C   UNL     1       4.016   7.725  17.262  0.00  0.00    +0.000 A 
ATOM      7  C   UNL     1       2.779   7.892  17.864  0.00  0.00    +0.000 A 
ATOM      8 CL   UNL     1       2.203   9.468  18.231  0.00  0.00    +0.000 Cl
ATOM      9  C   UNL     1       1.998   6.789  18.141  0.00  0.00    +0.000 A 
ATOM     10  C   UNL     1       2.478   5.508  17.844  0.00  0.00    +0.000 A 
ATOM     11 CL   UNL     1       1.305   4.259  18.094  0.00  0.00    +0.000 Cl
ATOM     12  C   UNL     1       3.789   5.291  17.287  0.00  0.00    +0.000 A 
ENDROOT
BRANCH   3  13
ATOM     13  O   UNL     1       7.470   5.417  15.388  0.00  0.00    +0.000 OA
ATOM     14  H   UNL     1       7.426   6.139  14.744  0.00  0.00    +0.000 HD
ENDBRANCH   3  13
BRANCH   1  15
ATOM     15  C   UNL     1       4.056   2.671  17.455  0.00  0.00    +0.000 C 
BRANCH  15  17
ATOM     16  O   UNL     1       3.923   2.170  20.794  0.00  0.00    +0.000 OA
ATOM     17  P   UNL     1       3.984   2.400  19.264  0.00  0.00    +0.000 P 
BRANCH  17  18
ATOM     18  O   UNL     1       5.470   3.095  19.398  0.00  0.00    +0.000 OA
ATOM     19  H   UNL     1       5.871   2.741  20.219  0.00  0.00    +0.000 HD
ENDBRANCH  17  18
BRANCH  17  20
ATOM     20  O   UNL     1       4.542   0.876  19.002  0.00  0.00    +0.000 OA
ATOM     21  H   UNL     1       4.984   0.575  19.822  0.00  0.00    +0.000 HD
ENDBRANCH  17  20
ENDBRANCH  15  17
ENDBRANCH   1  15
TORSDOF 5
ENDMDL
MODEL 5
REMARK VINA RESULT:      -6.5      2.857      3.803
REMARK  Name = 
REMARK  5 active torsions:
REMARK  status: ('A' for Active; 'I' for Inactive)
REMARK    1  A    between atoms: P_2  and  O_3
REMARK    2  A    between atoms: P_2  and  O_4
REMARK    3  A    between atoms: P_2  and  C_5
REMARK    4  A    between atoms: C_5  and  C_6
REMARK    5  A    between atoms: C_8  and  O_9
REMARK                            x       y       z     vdW  Elec       q    Type
REMARK                         _______ _______ _______ _____ _____    ______ ____
ROOT
ATOM      1  C   UNL     1       3.247   4.107  18.220  0.00  0.00    +0.000 A 
ATOM      2  C   UNL     1       4.008   4.453  17.091  0.00  0.00    +0.000 A 
ATOM      3  C   UNL     1       4.260   5.778  16.839  0.00  0.00    +0.000 A 
ATOM      4  N   UNL     1       3.805   6.769  17.603  0.00  0.00    +0.000 NA
ATOM      5  C   UNL     1       3.010   6.472  18.636  0.00  0.00    +0.000 A 
ATOM      6  C   UNL     1       2.572   7.571  19.355  0.00  0.00    +0.000 A 
ATOM      7  C   UNL     1       1.722   7.439  20.441  0.00  0.00    +0.000 A 
ATOM      8 CL   UNL     1       1.212   8.829  21.312  0.00  0.00    +0.000 Cl
ATOM      9  C   UNL     1       1.261   6.190  20.802  0.00  0.00    +0.000 A 
ATOM     10  C   UNL     1       1.686   5.063  20.091  0.00  0.00    +0.000 A 
ATOM     11 CL   UNL     1       0.879   3.605  20.565  0.00  0.00    +0.000 Cl
ATOM     12  C   UNL     1       2.628   5.152  19.004  0.00  0.00    +0.000 A 
ENDROOT
BRANCH   3  13
ATOM     13  O   UNL     1       5.049   6.165  15.797  0.00  0.00    +0.000 OA
ATOM     14  H   UNL     1       4.950   7.120  15.676  0.00  0.00    +0.000 HD
ENDBRANCH   3  13
BRANCH   1  15
ATOM     15  C   UNL     1       3.206   2.620  18.538  0.00  0.00    +0.000 C 
BRANCH  15  17
ATOM     16  O   UNL     1       5.133   1.591  21.114  0.00  0.00    +0.000 OA
ATOM     17  P   UNL     1       4.250   2.063  19.933  0.00  0.00    +0.000 P 
BRANCH  17  18
ATOM     18  O   UNL     1       5.484   2.974  19.336  0.00  0.00    +0.000 OA
ATOM     19  H   UNL     1       5.087   3.586  18.682  0.00  0.00    +0.000 HD
ENDBRANCH  17  18
BRANCH  17  20
ATOM     20  O   UNL     1       4.606   0.717  19.059  0.00  0.00    +0.000 OA
ATOM     21  H   UNL     1       5.546   0.499  19.216  0.00  0.00    +0.000 HD
ENDBRANCH  17  20
ENDBRANCH  15  17
ENDBRANCH   1  15
TORSDOF 5
ENDMDL
MODEL 6
REMARK VINA RESULT:      -6.5      2.595      3.569
REMARK  Name = 
REMARK  5 active torsions:
REMARK  status: ('A' for Active; 'I' for Inactive)
REMARK    1  A    between atoms: P_2  and  O_3
REMARK    2  A    between atoms: P_2  and  O_4
REMARK    3  A    between atoms: P_2  and  C_5
REMARK    4  A    between atoms: C_5  and  C_6
REMARK    5  A    between atoms: C_8  and  O_9
REMARK                            x       y       z     vdW  Elec       q    Type
REMARK                         _______ _______ _______ _____ _____    ______ ____
ROOT
ATOM      1  C   UNL     1       3.818   4.105  17.304  0.00  0.00    +0.000 A 
ATOM      2  C   UNL     1       3.701   2.732  17.578  0.00  0.00    +0.000 A 
ATOM      3  C   UNL     1       2.937   2.328  18.644  0.00  0.00    +0.000 A 
ATOM      4  N   UNL     1       2.306   3.174  19.455  0.00  0.00    +0.000 NA
ATOM      5  C   UNL     1       2.467   4.488  19.266  0.00  0.00    +0.000 A 
ATOM      6  C   UNL     1       1.787   5.284  20.173  0.00  0.00    +0.000 A 
ATOM      7  C   UNL     1       1.868   6.666  20.132  0.00  0.00    +0.000 A 
ATOM      8 CL   UNL     1       0.998   7.616  21.269  0.00  0.00    +0.000 Cl
ATOM      9  C   UNL     1       2.672   7.278  19.193  0.00  0.00    +0.000 A 
ATOM     10  C   UNL     1       3.372   6.497  18.266  0.00  0.00    +0.000 A 
ATOM     11 CL   UNL     1       4.462   7.413  17.280  0.00  0.00    +0.000 Cl
ATOM     12  C   UNL     1       3.254   5.062  18.229  0.00  0.00    +0.000 A 
ENDROOT
BRANCH   3  13
ATOM     13  O   UNL     1       2.736   1.008  18.913  0.00  0.00    +0.000 OA
ATOM     14  H   UNL     1       2.489   0.919  19.845  0.00  0.00    +0.000 HD
ENDBRANCH   3  13
BRANCH   1  15
ATOM     15  C   UNL     1       4.497   4.443  15.985  0.00  0.00    +0.000 C 
BRANCH  15  17
ATOM     16  O   UNL     1       7.875   4.517  16.025  0.00  0.00    +0.000 OA
ATOM     17  P   UNL     1       6.327   4.483  16.007  0.00  0.00    +0.000 P 
BRANCH  17  18
ATOM     18  O   UNL     1       6.281   5.788  15.005  0.00  0.00    +0.000 OA
ATOM     19  H   UNL     1       6.677   5.502  14.156  0.00  0.00    +0.000 HD
ENDBRANCH  17  18
BRANCH  17  20
ATOM     20  O   UNL     1       6.311   3.359  14.807  0.00  0.00    +0.000 OA
ATOM     21  H   UNL     1       6.212   3.832  13.957  0.00  0.00    +0.000 HD
ENDBRANCH  17  20
ENDBRANCH  15  17
ENDBRANCH   1  15
TORSDOF 5
ENDMDL
MODEL 7
REMARK VINA RESULT:      -6.4      3.414      4.931
REMARK  Name = 
REMARK  5 active torsions:
REMARK  status: ('A' for Active; 'I' for Inactive)
REMARK    1  A    between atoms: P_2  and  O_3
REMARK    2  A    between atoms: P_2  and  O_4
REMARK    3  A    between atoms: P_2  and  C_5
REMARK    4  A    between atoms: C_5  and  C_6
REMARK    5  A    between atoms: C_8  and  O_9
REMARK                            x       y       z     vdW  Elec       q    Type
REMARK                         _______ _______ _______ _____ _____    ______ ____
ROOT
ATOM      1  C   UNL     1       2.551   5.141  18.538  0.00  0.00    +0.000 A 
ATOM      2  C   UNL     1       2.202   6.453  18.904  0.00  0.00    +0.000 A 
ATOM      3  C   UNL     1       2.821   7.506  18.279  0.00  0.00    +0.000 A 
ATOM      4  N   UNL     1       3.758   7.355  17.345  0.00  0.00    +0.000 NA
ATOM      5  C   UNL     1       4.167   6.120  17.037  0.00  0.00    +0.000 A 
ATOM      6  C   UNL     1       5.158   6.070  16.072  0.00  0.00    +0.000 A 
ATOM      7  C   UNL     1       5.711   4.870  15.656  0.00  0.00    +0.000 A 
ATOM      8 CL   UNL     1       6.930   4.853  14.446  0.00  0.00    +0.000 Cl
ATOM      9  C   UNL     1       5.299   3.689  16.238  0.00  0.00    +0.000 A 
ATOM     10  C   UNL     1       4.301   3.711  17.218  0.00  0.00    +0.000 A 
ATOM     11 CL   UNL     1       4.032   2.170  17.962  0.00  0.00    +0.000 Cl
ATOM     12  C   UNL     1       3.650   4.931  17.622  0.00  0.00    +0.000 A 
ENDROOT
BRANCH   3  13
ATOM     13  O   UNL     1       2.471   8.795  18.547  0.00  0.00    +0.000 OA
ATOM     14  H   UNL     1       3.236   9.362  18.373  0.00  0.00    +0.000 HD
ENDBRANCH   3  13
BRANCH   1  15
ATOM     15  C   UNL     1       1.664   4.052  19.122  0.00  0.00    +0.000 C 
BRANCH  15  17
ATOM     16  O   UNL     1       2.763   2.600  21.968  0.00  0.00    +0.000 OA
ATOM     17  P   UNL     1       2.259   3.265  20.663  0.00  0.00    +0.000 P 
BRANCH  17  18
ATOM     18  O   UNL     1       0.698   2.930  21.061  0.00  0.00    +0.000 OA
ATOM     19  H   UNL     1       0.518   2.020  20.744  0.00  0.00    +0.000 HD
ENDBRANCH  17  18
BRANCH  17  20
ATOM     20  O   UNL     1       2.283   4.758  21.351  0.00  0.00    +0.000 OA
ATOM     21  H   UNL     1       2.728   4.680  22.219  0.00  0.00    +0.000 HD
ENDBRANCH  17  20
ENDBRANCH  15  17
ENDBRANCH   1  15
TORSDOF 5
ENDMDL
MODEL 8
REMARK VINA RESULT:      -6.3      1.555      1.746
REMARK  Name = 
REMARK  5 active torsions:
REMARK  status: ('A' for Active; 'I' for Inactive)
REMARK    1  A    between atoms: P_2  and  O_3
REMARK    2  A    between atoms: P_2  and  O_4
REMARK    3  A    between atoms: P_2  and  C_5
REMARK    4  A    between atoms: C_5  and  C_6
REMARK    5  A    between atoms: C_8  and  O_9
REMARK                            x       y       z     vdW  Elec       q    Type
REMARK                         _______ _______ _______ _____ _____    ______ ____
ROOT
ATOM      1  C   UNL     1       4.321   6.539  17.182  0.00  0.00    +0.000 A 
ATOM      2  C   UNL     1       3.708   7.772  17.465  0.00  0.00    +0.000 A 
ATOM      3  C   UNL     1       2.519   7.782  18.149  0.00  0.00    +0.000 A 
ATOM      4  N   UNL     1       1.895   6.677  18.550  0.00  0.00    +0.000 NA
ATOM      5  C   UNL     1       2.415   5.489  18.223  0.00  0.00    +0.000 A 
ATOM      6  C   UNL     1       1.682   4.402  18.668  0.00  0.00    +0.000 A 
ATOM      7  C   UNL     1       2.069   3.101  18.392  0.00  0.00    +0.000 A 
ATOM      8 CL   UNL     1       1.137   1.780  18.974  0.00  0.00    +0.000 Cl
ATOM      9  C   UNL     1       3.190   2.868  17.623  0.00  0.00    +0.000 A 
ATOM     10  C   UNL     1       3.948   3.949  17.158  0.00  0.00    +0.000 A 
ATOM     11 CL   UNL     1       5.213   3.486  16.070  0.00  0.00    +0.000 Cl
ATOM     12  C   UNL     1       3.620   5.313  17.487  0.00  0.00    +0.000 A 
ENDROOT
BRANCH   3  13
ATOM     13  O   UNL     1       1.917   8.951  18.509  0.00  0.00    +0.000 OA
ATOM     14  H   UNL     1       1.103   8.740  18.990  0.00  0.00    +0.000 HD
ENDBRANCH   3  13
BRANCH   1  15
ATOM     15  C   UNL     1       5.732   6.636  16.620  0.00  0.00    +0.000 C 
BRANCH  15  17
ATOM     16  O   UNL     1       8.245   6.539  18.875  0.00  0.00    +0.000 OA
ATOM     17  P   UNL     1       7.093   6.584  17.842  0.00  0.00    +0.000 P 
BRANCH  17  18
ATOM     18  O   UNL     1       7.828   7.814  17.032  0.00  0.00    +0.000 OA
ATOM     19  H   UNL     1       8.765   7.815  17.317  0.00  0.00    +0.000 HD
ENDBRANCH  17  18
BRANCH  17  20
ATOM     20  O   UNL     1       7.772   5.379  16.953  0.00  0.00    +0.000 OA
ATOM     21  H   UNL     1       8.528   5.023  17.461  0.00  0.00    +0.000 HD
ENDBRANCH  17  20
ENDBRANCH  15  17
ENDBRANCH   1  15
TORSDOF 5
ENDMDL
MODEL 9
REMARK VINA RESULT:      -6.2      2.641      3.594
REMARK  Name = 
REMARK  5 active torsions:
REMARK  status: ('A' for Active; 'I' for Inactive)
REMARK    1  A    between atoms: P_2  and  O_3
REMARK    2  A    between atoms: P_2  and  O_4
REMARK    3  A    between atoms: P_2  and  C_5
REMARK    4  A    between atoms: C_5  and  C_6
REMARK    5  A    between atoms: C_8  and  O_9
REMARK                            x       y       z     vdW  Elec       q    Type
REMARK                         _______ _______ _______ _____ _____    ______ ____
ROOT
ATOM      1  C   UNL     1       4.030   4.506  18.080  0.00  0.00    +0.000 A 
ATOM      2  C   UNL     1       4.277   3.293  18.745  0.00  0.00    +0.000 A 
ATOM      3  C   UNL     1       3.695   3.075  19.969  0.00  0.00    +0.000 A 
ATOM      4  N   UNL     1       2.915   3.965  20.578  0.00  0.00    +0.000 NA
ATOM      5  C   UNL     1       2.730   5.159  20.005  0.00  0.00    +0.000 A 
ATOM      6  C   UNL     1       1.921   6.020  20.725  0.00  0.00    +0.000 A 
ATOM      7  C   UNL     1       1.649   7.305  20.283  0.00  0.00    +0.000 A 
ATOM      8 CL   UNL     1       0.629   8.337  21.203  0.00  0.00    +0.000 Cl
ATOM      9  C   UNL     1       2.224   7.764  19.117  0.00  0.00    +0.000 A 
ATOM     10  C   UNL     1       3.048   6.914  18.370  0.00  0.00    +0.000 A 
ATOM     11 CL   UNL     1       3.820   7.703  17.035  0.00  0.00    +0.000 Cl
ATOM     12  C   UNL     1       3.293   5.548  18.758  0.00  0.00    +0.000 A 
ENDROOT
BRANCH   3  13
ATOM     13  O   UNL     1       3.846   1.890  20.625  0.00  0.00    +0.000 OA
ATOM     14  H   UNL     1       3.010   1.674  21.063  0.00  0.00    +0.000 HD
ENDBRANCH   3  13
BRANCH   1  15
ATOM     15  C   UNL     1       4.533   4.567  16.645  0.00  0.00    +0.000 C 
BRANCH  15  17
ATOM     16  O   UNL     1       7.888   4.565  16.241  0.00  0.00    +0.000 OA
ATOM     17  P   UNL     1       6.350   4.566  16.426  0.00  0.00    +0.000 P 
BRANCH  17  18
ATOM     18  O   UNL     1       6.172   5.639  15.191  0.00  0.00    +0.000 OA
ATOM     19  H   UNL     1       6.903   5.465  14.562  0.00  0.00    +0.000 HD
ENDBRANCH  17  18
BRANCH  17  20
ATOM     20  O   UNL     1       6.183   3.221  15.496  0.00  0.00    +0.000 OA
ATOM     21  H   UNL     1       6.950   3.179  14.891  0.00  0.00    +0.000 HD
ENDBRANCH  17  20
ENDBRANCH  15  17
ENDBRANCH   1  15
TORSDOF 5
ENDMDL
