MODEL 1
REMARK VINA RESULT:      -7.5      0.000      0.000
REMARK  Name = 
REMARK  9 active torsions:
REMARK  status: ('A' for Active; 'I' for Inactive)
REMARK    1  A    between atoms: C_1  and  O_2
REMARK    2  A    between atoms: O_2  and  C_3
REMARK    3  A    between atoms: C_5  and  C_6
REMARK    4  A    between atoms: C_8  and  C_9
REMARK    5  A    between atoms: C_9  and  C_10
REMARK    6  A    between atoms: C_20  and  O_21
REMARK    7  A    between atoms: O_21  and  C_22
REMARK    8  A    between atoms: C_23  and  O_24
REMARK    9  A    between atoms: O_24  and  C_25
REMARK                            x       y       z     vdW  Elec       q    Type
REMARK                         _______ _______ _______ _____ _____    ______ ____
ROOT
ATOM      1  C   UNL     1       8.439   8.858  18.422  0.00  0.00    +0.000 A 
ATOM      2  N   UNL     1       8.563   7.659  18.952  0.00  0.00    +0.000 NA
ATOM      3  C   UNL     1       7.847   6.874  18.080  0.00  0.00    +0.000 A 
ATOM      4  N   UNL     1       7.265   7.544  17.072  0.00  0.00    +0.000 NA
ATOM      5  O   UNL     1       7.673   8.860  17.289  0.00  0.00    +0.000 OA
ENDROOT
BRANCH   1   8
ATOM      6  C   UNL     1       9.948  12.300  18.164  0.00  0.00    +0.000 A 
ATOM      7  C   UNL     1       9.522  10.999  17.841  0.00  0.00    +0.000 A 
ATOM      8  C   UNL     1       9.042  10.126  18.818  0.00  0.00    +0.000 A 
ATOM      9  C   UNL     1       9.108  10.539  20.150  0.00  0.00    +0.000 A 
ATOM     10  C   UNL     1       9.605  11.803  20.511  0.00  0.00    +0.000 A 
ATOM     11  C   UNL     1      10.025  12.710  19.514  0.00  0.00    +0.000 A 
BRANCH   6  13
ATOM     12  C   UNL     1      11.725  13.178  16.859  0.00  0.00    +0.000 C 
ATOM     13  O   UNL     1      10.328  13.161  17.166  0.00  0.00    +0.000 OA
ENDBRANCH   6  13
BRANCH  10  14
ATOM     14  O   UNL     1       9.574  11.967  21.874  0.00  0.00    +0.000 OA
ATOM     15  C   UNL     1       8.352  11.793  22.577  0.00  0.00    +0.000 C 
ENDBRANCH  10  14
BRANCH  11  16
ATOM     16  O   UNL     1      10.497  13.917  19.958  0.00  0.00    +0.000 OA
ATOM     17  C   UNL     1       9.627  15.029  20.088  0.00  0.00    +0.000 C 
ENDBRANCH  11  16
ENDBRANCH   1   8
BRANCH   3  18
ATOM     18  C   UNL     1       7.591   5.428  18.317  0.00  0.00    +0.000 C 
BRANCH  18  19
ATOM     19  C   UNL     1       6.105   5.175  18.166  0.00  0.00    +0.000 A 
ATOM     20  C   UNL     1       5.246   5.472  19.240  0.00  0.00    +0.000 A 
ATOM     21  C   UNL     1       3.882   5.183  19.177  0.00  0.00    +0.000 A 
ATOM     22  C   UNL     1       3.342   4.599  18.035  0.00  0.00    +0.000 A 
ATOM     23  C   UNL     1       4.172   4.312  16.951  0.00  0.00    +0.000 A 
ATOM     24  C   UNL     1       5.543   4.600  17.012  0.00  0.00    +0.000 A 
ATOM     25 CL   UNL     1       6.496   4.192  15.630  0.00  0.00    +0.000 Cl
ENDBRANCH  18  19
ENDBRANCH   3  18
TORSDOF 6
ENDMDL
MODEL 2
REMARK VINA RESULT:      -7.5      7.044      9.900
REMARK  Name = 
REMARK  9 active torsions:
REMARK  status: ('A' for Active; 'I' for Inactive)
REMARK    1  A    between atoms: C_1  and  O_2
REMARK    2  A    between atoms: O_2  and  C_3
REMARK    3  A    between atoms: C_5  and  C_6
REMARK    4  A    between atoms: C_8  and  C_9
REMARK    5  A    between atoms: C_9  and  C_10
REMARK    6  A    between atoms: C_20  and  O_21
REMARK    7  A    between atoms: O_21  and  C_22
REMARK    8  A    between atoms: C_23  and  O_24
REMARK    9  A    between atoms: O_24  and  C_25
REMARK                            x       y       z     vdW  Elec       q    Type
REMARK                         _______ _______ _______ _____ _____    ______ ____
ROOT
ATOM      1  C   UNL     1       2.233   8.127  18.582  0.00  0.00    +0.000 A 
ATOM      2  N   UNL     1       1.362   8.767  19.335  0.00  0.00    +0.000 NA
ATOM      3  C   UNL     1       1.149   9.924  18.623  0.00  0.00    +0.000 A 
ATOM      4  N   UNL     1       1.875  10.031  17.499  0.00  0.00    +0.000 NA
ATOM      5  O   UNL     1       2.583   8.829  17.462  0.00  0.00    +0.000 OA
ENDROOT
BRANCH   1   8
ATOM      6  C   UNL     1       2.857   4.673  19.950  0.00  0.00    +0.000 A 
ATOM      7  C   UNL     1       2.476   6.023  19.851  0.00  0.00    +0.000 A 
ATOM      8  C   UNL     1       2.801   6.791  18.732  0.00  0.00    +0.000 A 
ATOM      9  C   UNL     1       3.621   6.214  17.761  0.00  0.00    +0.000 A 
ATOM     10  C   UNL     1       4.085   4.892  17.873  0.00  0.00    +0.000 A 
ATOM     11  C   UNL     1       3.697   4.095  18.972  0.00  0.00    +0.000 A 
BRANCH   6  13
ATOM     12  C   UNL     1       1.190   3.252  20.861  0.00  0.00    +0.000 C 
ATOM     13  O   UNL     1       2.442   3.924  21.022  0.00  0.00    +0.000 OA
ENDBRANCH   6  13
BRANCH  10  14
ATOM     14  O   UNL     1       4.877   4.562  16.800  0.00  0.00    +0.000 OA
ATOM     15  C   UNL     1       5.298   5.575  15.897  0.00  0.00    +0.000 C 
ENDBRANCH  10  14
BRANCH  11  16
ATOM     16  O   UNL     1       4.198   2.822  18.999  0.00  0.00    +0.000 OA
ATOM     17  C   UNL     1       3.499   1.757  18.374  0.00  0.00    +0.000 C 
ENDBRANCH  11  16
ENDBRANCH   1   8
BRANCH   3  18
ATOM     18  C   UNL     1       0.314  11.043  19.132  0.00  0.00    +0.000 C 
BRANCH  18  19
ATOM     19  C   UNL     1      -1.086  10.889  18.571  0.00  0.00    +0.000 A 
ATOM     20  C   UNL     1      -1.308   9.972  17.527  0.00  0.00    +0.000 A 
ATOM     21  C   UNL     1      -2.562   9.851  16.926  0.00  0.00    +0.000 A 
ATOM     22  C   UNL     1      -3.625  10.637  17.358  0.00  0.00    +0.000 A 
ATOM     23  C   UNL     1      -3.431  11.540  18.404  0.00  0.00    +0.000 A 
ATOM     24  C   UNL     1      -2.173  11.666  19.010  0.00  0.00    +0.000 A 
ATOM     25 CL   UNL     1      -2.022  12.824  20.282  0.00  0.00    +0.000 Cl
ENDBRANCH  18  19
ENDBRANCH   3  18
TORSDOF 6
ENDMDL
MODEL 3
REMARK VINA RESULT:      -7.4      7.121      9.545
REMARK  Name = 
REMARK  9 active torsions:
REMARK  status: ('A' for Active; 'I' for Inactive)
REMARK    1  A    between atoms: C_1  and  O_2
REMARK    2  A    between atoms: O_2  and  C_3
REMARK    3  A    between atoms: C_5  and  C_6
REMARK    4  A    between atoms: C_8  and  C_9
REMARK    5  A    between atoms: C_9  and  C_10
REMARK    6  A    between atoms: C_20  and  O_21
REMARK    7  A    between atoms: O_21  and  C_22
REMARK    8  A    between atoms: C_23  and  O_24
REMARK    9  A    between atoms: O_24  and  C_25
REMARK                            x       y       z     vdW  Elec       q    Type
REMARK                         _______ _______ _______ _____ _____    ______ ____
ROOT
ATOM      1  C   UNL     1       2.274   7.945  18.632  0.00  0.00    +0.000 A 
ATOM      2  N   UNL     1       1.463   8.665  19.378  0.00  0.00    +0.000 NA
ATOM      3  C   UNL     1       1.296   9.802  18.623  0.00  0.00    +0.000 A 
ATOM      4  N   UNL     1       1.995   9.820  17.477  0.00  0.00    +0.000 NA
ATOM      5  O   UNL     1       2.631   8.578  17.474  0.00  0.00    +0.000 OA
ENDROOT
BRANCH   1   8
ATOM      6  C   UNL     1       4.358   4.836  18.205  0.00  0.00    +0.000 A 
ATOM      7  C   UNL     1       3.729   6.069  17.955  0.00  0.00    +0.000 A 
ATOM      8  C   UNL     1       2.768   6.586  18.825  0.00  0.00    +0.000 A 
ATOM      9  C   UNL     1       2.360   5.787  19.894  0.00  0.00    +0.000 A 
ATOM     10  C   UNL     1       2.912   4.515  20.123  0.00  0.00    +0.000 A 
ATOM     11  C   UNL     1       3.934   4.024  19.281  0.00  0.00    +0.000 A 
BRANCH   6  13
ATOM     12  C   UNL     1       5.203   4.717  15.991  0.00  0.00    +0.000 C 
ATOM     13  O   UNL     1       5.363   4.403  17.377  0.00  0.00    +0.000 OA
ENDBRANCH   6  13
BRANCH  10  14
ATOM     14  O   UNL     1       2.342   3.927  21.225  0.00  0.00    +0.000 OA
ATOM     15  C   UNL     1       1.214   3.078  21.067  0.00  0.00    +0.000 C 
ENDBRANCH  10  14
BRANCH  11  16
ATOM     16  O   UNL     1       4.412   2.776  19.578  0.00  0.00    +0.000 OA
ATOM     17  C   UNL     1       3.875   1.627  18.941  0.00  0.00    +0.000 C 
ENDBRANCH  11  16
ENDBRANCH   1   8
BRANCH   3  18
ATOM     18  C   UNL     1       0.541  10.989  19.105  0.00  0.00    +0.000 C 
BRANCH  18  19
ATOM     19  C   UNL     1      -0.889  10.877  18.615  0.00  0.00    +0.000 A 
ATOM     20  C   UNL     1      -1.197   9.943  17.608  0.00  0.00    +0.000 A 
ATOM     21  C   UNL     1      -2.481   9.858  17.070  0.00  0.00    +0.000 A 
ATOM     22  C   UNL     1      -3.491  10.697  17.531  0.00  0.00    +0.000 A 
ATOM     23  C   UNL     1      -3.212  11.617  18.542  0.00  0.00    +0.000 A 
ATOM     24  C   UNL     1      -1.923  11.707  19.084  0.00  0.00    +0.000 A 
ATOM     25 CL   UNL     1      -1.665  12.890  20.316  0.00  0.00    +0.000 Cl
ENDBRANCH  18  19
ENDBRANCH   3  18
TORSDOF 6
ENDMDL
MODEL 4
REMARK VINA RESULT:      -7.3      6.996     10.043
REMARK  Name = 
REMARK  9 active torsions:
REMARK  status: ('A' for Active; 'I' for Inactive)
REMARK    1  A    between atoms: C_1  and  O_2
REMARK    2  A    between atoms: O_2  and  C_3
REMARK    3  A    between atoms: C_5  and  C_6
REMARK    4  A    between atoms: C_8  and  C_9
REMARK    5  A    between atoms: C_9  and  C_10
REMARK    6  A    between atoms: C_20  and  O_21
REMARK    7  A    between atoms: O_21  and  C_22
REMARK    8  A    between atoms: C_23  and  O_24
REMARK    9  A    between atoms: O_24  and  C_25
REMARK                            x       y       z     vdW  Elec       q    Type
REMARK                         _______ _______ _______ _____ _____    ______ ____
ROOT
ATOM      1  C   UNL     1       1.797   7.985  19.457  0.00  0.00    +0.000 A 
ATOM      2  N   UNL     1       1.618   8.959  18.590  0.00  0.00    +0.000 NA
ATOM      3  C   UNL     1       1.007   9.926  19.353  0.00  0.00    +0.000 A 
ATOM      4  N   UNL     1       0.775   9.570  20.626  0.00  0.00    +0.000 NA
ATOM      5  O   UNL     1       1.316   8.286  20.701  0.00  0.00    +0.000 OA
ENDROOT
BRANCH   1   8
ATOM      6  C   UNL     1       2.855   4.429  20.112  0.00  0.00    +0.000 A 
ATOM      7  C   UNL     1       2.364   5.734  20.297  0.00  0.00    +0.000 A 
ATOM      8  C   UNL     1       2.478   6.704  19.301  0.00  0.00    +0.000 A 
ATOM      9  C   UNL     1       3.203   6.377  18.154  0.00  0.00    +0.000 A 
ATOM     10  C   UNL     1       3.776   5.106  17.975  0.00  0.00    +0.000 A 
ATOM     11  C   UNL     1       3.599   4.105  18.955  0.00  0.00    +0.000 A 
BRANCH   6  13
ATOM     12  C   UNL     1       1.332   2.910  21.112  0.00  0.00    +0.000 C 
ATOM     13  O   UNL     1       2.644   3.477  21.077  0.00  0.00    +0.000 OA
ENDBRANCH   6  13
BRANCH  10  14
ATOM     14  O   UNL     1       4.441   5.036  16.776  0.00  0.00    +0.000 OA
ATOM     15  C   UNL     1       5.372   6.052  16.426  0.00  0.00    +0.000 C 
ENDBRANCH  10  14
BRANCH  11  16
ATOM     16  O   UNL     1       4.194   2.899  18.698  0.00  0.00    +0.000 OA
ATOM     17  C   UNL     1       3.456   1.841  18.108  0.00  0.00    +0.000 C 
ENDBRANCH  11  16
ENDBRANCH   1   8
BRANCH   3  18
ATOM     18  C   UNL     1       0.491  11.199  18.783  0.00  0.00    +0.000 C 
BRANCH  18  19
ATOM     19  C   UNL     1      -0.984  11.023  18.479  0.00  0.00    +0.000 A 
ATOM     20  C   UNL     1      -1.380  10.037  17.556  0.00  0.00    +0.000 A 
ATOM     21  C   UNL     1      -2.718   9.891  17.186  0.00  0.00    +0.000 A 
ATOM     22  C   UNL     1      -3.692  10.719  17.734  0.00  0.00    +0.000 A 
ATOM     23  C   UNL     1      -3.323  11.691  18.665  0.00  0.00    +0.000 A 
ATOM     24  C   UNL     1      -1.981  11.842  19.039  0.00  0.00    +0.000 A 
ATOM     25 CL   UNL     1      -1.615  13.086  20.181  0.00  0.00    +0.000 Cl
ENDBRANCH  18  19
ENDBRANCH   3  18
TORSDOF 6
ENDMDL
MODEL 5
REMARK VINA RESULT:      -7.3      6.124      9.367
REMARK  Name = 
REMARK  9 active torsions:
REMARK  status: ('A' for Active; 'I' for Inactive)
REMARK    1  A    between atoms: C_1  and  O_2
REMARK    2  A    between atoms: O_2  and  C_3
REMARK    3  A    between atoms: C_5  and  C_6
REMARK    4  A    between atoms: C_8  and  C_9
REMARK    5  A    between atoms: C_9  and  C_10
REMARK    6  A    between atoms: C_20  and  O_21
REMARK    7  A    between atoms: O_21  and  C_22
REMARK    8  A    between atoms: C_23  and  O_24
REMARK    9  A    between atoms: O_24  and  C_25
REMARK                            x       y       z     vdW  Elec       q    Type
REMARK                         _______ _______ _______ _____ _____    ______ ____
ROOT
ATOM      1  C   UNL     1       2.176   8.232  18.489  0.00  0.00    +0.000 A 
ATOM      2  N   UNL     1       1.872   9.371  17.902  0.00  0.00    +0.000 NA
ATOM      3  C   UNL     1       1.103   9.998  18.854  0.00  0.00    +0.000 A 
ATOM      4  N   UNL     1       0.896   9.280  19.969  0.00  0.00    +0.000 NA
ATOM      5  O   UNL     1       1.625   8.113  19.734  0.00  0.00    +0.000 OA
ENDROOT
BRANCH   1   8
ATOM      6  C   UNL     1       3.331   4.781  17.516  0.00  0.00    +0.000 A 
ATOM      7  C   UNL     1       2.596   5.831  18.094  0.00  0.00    +0.000 A 
ATOM      8  C   UNL     1       3.048   7.150  18.043  0.00  0.00    +0.000 A 
ATOM      9  C   UNL     1       4.314   7.385  17.503  0.00  0.00    +0.000 A 
ATOM     10  C   UNL     1       5.106   6.343  16.990  0.00  0.00    +0.000 A 
ATOM     11  C   UNL     1       4.616   5.019  16.981  0.00  0.00    +0.000 A 
BRANCH   6  13
ATOM     12  C   UNL     1       3.040   2.738  18.687  0.00  0.00    +0.000 C 
ATOM     13  O   UNL     1       2.812   3.510  17.506  0.00  0.00    +0.000 OA
ENDBRANCH   6  13
BRANCH  10  14
ATOM     14  O   UNL     1       6.305   6.827  16.526  0.00  0.00    +0.000 OA
ATOM     15  C   UNL     1       7.379   7.035  17.433  0.00  0.00    +0.000 C 
ENDBRANCH  10  14
BRANCH  11  16
ATOM     16  O   UNL     1       5.457   4.070  16.465  0.00  0.00    +0.000 OA
ATOM     17  C   UNL     1       5.677   3.983  15.066  0.00  0.00    +0.000 C 
ENDBRANCH  11  16
ENDBRANCH   1   8
BRANCH   3  18
ATOM     18  C   UNL     1       0.413  11.293  18.610  0.00  0.00    +0.000 C 
BRANCH  18  19
ATOM     19  C   UNL     1      -1.053  11.011  18.348  0.00  0.00    +0.000 A 
ATOM     20  C   UNL     1      -1.404   9.988  17.447  0.00  0.00    +0.000 A 
ATOM     21  C   UNL     1      -2.737   9.745  17.114  0.00  0.00    +0.000 A 
ATOM     22  C   UNL     1      -3.752  10.510  17.680  0.00  0.00    +0.000 A 
ATOM     23  C   UNL     1      -3.427  11.517  18.589  0.00  0.00    +0.000 A 
ATOM     24  C   UNL     1      -2.090  11.766  18.925  0.00  0.00    +0.000 A 
ATOM     25 CL   UNL     1      -1.782  13.046  20.044  0.00  0.00    +0.000 Cl
ENDBRANCH  18  19
ENDBRANCH   3  18
TORSDOF 6
ENDMDL
MODEL 6
REMARK VINA RESULT:      -7.3      6.862      8.303
REMARK  Name = 
REMARK  9 active torsions:
REMARK  status: ('A' for Active; 'I' for Inactive)
REMARK    1  A    between atoms: C_1  and  O_2
REMARK    2  A    between atoms: O_2  and  C_3
REMARK    3  A    between atoms: C_5  and  C_6
REMARK    4  A    between atoms: C_8  and  C_9
REMARK    5  A    between atoms: C_9  and  C_10
REMARK    6  A    between atoms: C_20  and  O_21
REMARK    7  A    between atoms: O_21  and  C_22
REMARK    8  A    between atoms: C_23  and  O_24
REMARK    9  A    between atoms: O_24  and  C_25
REMARK                            x       y       z     vdW  Elec       q    Type
REMARK                         _______ _______ _______ _____ _____    ______ ____
ROOT
ATOM      1  C   UNL     1       1.560   8.656  19.137  0.00  0.00    +0.000 A 
ATOM      2  N   UNL     1       2.049   7.743  19.950  0.00  0.00    +0.000 NA
ATOM      3  C   UNL     1       2.828   6.983  19.109  0.00  0.00    +0.000 A 
ATOM      4  N   UNL     1       2.803   7.368  17.824  0.00  0.00    +0.000 NA
ATOM      5  O   UNL     1       1.975   8.491  17.844  0.00  0.00    +0.000 OA
ENDROOT
BRANCH   1   8
ATOM      6  C   UNL     1      -0.906  11.460  18.640  0.00  0.00    +0.000 A 
ATOM      7  C   UNL     1       0.040  10.450  18.386  0.00  0.00    +0.000 A 
ATOM      8  C   UNL     1       0.727   9.819  19.423  0.00  0.00    +0.000 A 
ATOM      9  C   UNL     1       0.537  10.301  20.719  0.00  0.00    +0.000 A 
ATOM     10  C   UNL     1      -0.341  11.363  20.994  0.00  0.00    +0.000 A 
ATOM     11  C   UNL     1      -1.088  11.954  19.951  0.00  0.00    +0.000 A 
BRANCH   6  13
ATOM     12  C   UNL     1      -2.704  11.188  17.116  0.00  0.00    +0.000 C 
ATOM     13  O   UNL     1      -1.628  11.995  17.603  0.00  0.00    +0.000 OA
ENDBRANCH   6  13
BRANCH  10  14
ATOM     14  O   UNL     1      -0.348  11.655  22.336  0.00  0.00    +0.000 OA
ATOM     15  C   UNL     1      -1.246  10.974  23.201  0.00  0.00    +0.000 C 
ENDBRANCH  10  14
BRANCH  11  16
ATOM     16  O   UNL     1      -1.915  12.983  20.311  0.00  0.00    +0.000 OA
ATOM     17  C   UNL     1      -3.287  12.745  20.582  0.00  0.00    +0.000 C 
ENDBRANCH  11  16
ENDBRANCH   1   8
BRANCH   3  18
ATOM     18  C   UNL     1       3.510   5.737  19.547  0.00  0.00    +0.000 C 
BRANCH  18  19
ATOM     19  C   UNL     1       2.602   4.562  19.242  0.00  0.00    +0.000 A 
ATOM     20  C   UNL     1       1.564   4.248  20.140  0.00  0.00    +0.000 A 
ATOM     21  C   UNL     1       0.752   3.130  19.942  0.00  0.00    +0.000 A 
ATOM     22  C   UNL     1       0.951   2.305  18.840  0.00  0.00    +0.000 A 
ATOM     23  C   UNL     1       1.962   2.609  17.928  0.00  0.00    +0.000 A 
ATOM     24  C   UNL     1       2.781   3.730  18.123  0.00  0.00    +0.000 A 
ATOM     25 CL   UNL     1       4.020   4.015  16.953  0.00  0.00    +0.000 Cl
ENDBRANCH  18  19
ENDBRANCH   3  18
TORSDOF 6
ENDMDL
MODEL 7
REMARK VINA RESULT:      -7.2      6.179      9.155
REMARK  Name = 
REMARK  9 active torsions:
REMARK  status: ('A' for Active; 'I' for Inactive)
REMARK    1  A    between atoms: C_1  and  O_2
REMARK    2  A    between atoms: O_2  and  C_3
REMARK    3  A    between atoms: C_5  and  C_6
REMARK    4  A    between atoms: C_8  and  C_9
REMARK    5  A    between atoms: C_9  and  C_10
REMARK    6  A    between atoms: C_20  and  O_21
REMARK    7  A    between atoms: O_21  and  C_22
REMARK    8  A    between atoms: C_23  and  O_24
REMARK    9  A    between atoms: O_24  and  C_25
REMARK                            x       y       z     vdW  Elec       q    Type
REMARK                         _______ _______ _______ _____ _____    ______ ____
ROOT
ATOM      1  C   UNL     1       2.081   8.316  18.458  0.00  0.00    +0.000 A 
ATOM      2  N   UNL     1       1.732   9.445  17.877  0.00  0.00    +0.000 NA
ATOM      3  C   UNL     1       1.022  10.081  18.868  0.00  0.00    +0.000 A 
ATOM      4  N   UNL     1       0.893   9.377  20.004  0.00  0.00    +0.000 NA
ATOM      5  O   UNL     1       1.612   8.212  19.739  0.00  0.00    +0.000 OA
ENDROOT
BRANCH   1   8
ATOM      6  C   UNL     1       5.072   6.521  17.037  0.00  0.00    +0.000 A 
ATOM      7  C   UNL     1       4.148   7.530  17.361  0.00  0.00    +0.000 A 
ATOM      8  C   UNL     1       2.930   7.233  17.972  0.00  0.00    +0.000 A 
ATOM      9  C   UNL     1       2.599   5.888  18.147  0.00  0.00    +0.000 A 
ATOM     10  C   UNL     1       3.468   4.854  17.759  0.00  0.00    +0.000 A 
ATOM     11  C   UNL     1       4.730   5.160  17.204  0.00  0.00    +0.000 A 
BRANCH   6  13
ATOM     12  C   UNL     1       7.340   7.063  17.478  0.00  0.00    +0.000 C 
ATOM     13  O   UNL     1       6.298   6.858  16.520  0.00  0.00    +0.000 OA
ENDBRANCH   6  13
BRANCH  10  14
ATOM     14  O   UNL     1       2.914   3.627  18.027  0.00  0.00    +0.000 OA
ATOM     15  C   UNL     1       2.497   3.316  19.349  0.00  0.00    +0.000 C 
ENDBRANCH  10  14
BRANCH  11  16
ATOM     16  O   UNL     1       5.509   4.090  16.853  0.00  0.00    +0.000 OA
ATOM     17  C   UNL     1       5.762   3.798  15.488  0.00  0.00    +0.000 C 
ENDBRANCH  11  16
ENDBRANCH   1   8
BRANCH   3  18
ATOM     18  C   UNL     1       0.309  11.368  18.652  0.00  0.00    +0.000 C 
BRANCH  18  19
ATOM     19  C   UNL     1      -1.144  11.065  18.351  0.00  0.00    +0.000 A 
ATOM     20  C   UNL     1      -1.455  10.049  17.427  0.00  0.00    +0.000 A 
ATOM     21  C   UNL     1      -2.776   9.787  17.059  0.00  0.00    +0.000 A 
ATOM     22  C   UNL     1      -3.817  10.526  17.611  0.00  0.00    +0.000 A 
ATOM     23  C   UNL     1      -3.533  11.525  18.542  0.00  0.00    +0.000 A 
ATOM     24  C   UNL     1      -2.208  11.793  18.913  0.00  0.00    +0.000 A 
ATOM     25 CL   UNL     1      -1.950  13.062  20.057  0.00  0.00    +0.000 Cl
ENDBRANCH  18  19
ENDBRANCH   3  18
TORSDOF 6
ENDMDL
MODEL 8
REMARK VINA RESULT:      -7.2      6.784      8.568
REMARK  Name = 
REMARK  9 active torsions:
REMARK  status: ('A' for Active; 'I' for Inactive)
REMARK    1  A    between atoms: C_1  and  O_2
REMARK    2  A    between atoms: O_2  and  C_3
REMARK    3  A    between atoms: C_5  and  C_6
REMARK    4  A    between atoms: C_8  and  C_9
REMARK    5  A    between atoms: C_9  and  C_10
REMARK    6  A    between atoms: C_20  and  O_21
REMARK    7  A    between atoms: O_21  and  C_22
REMARK    8  A    between atoms: C_23  and  O_24
REMARK    9  A    between atoms: O_24  and  C_25
REMARK                            x       y       z     vdW  Elec       q    Type
REMARK                         _______ _______ _______ _____ _____    ______ ____
ROOT
ATOM      1  C   UNL     1       1.532   8.622  19.111  0.00  0.00    +0.000 A 
ATOM      2  N   UNL     1       1.991   7.659  19.883  0.00  0.00    +0.000 NA
ATOM      3  C   UNL     1       2.893   7.025  19.060  0.00  0.00    +0.000 A 
ATOM      4  N   UNL     1       2.973   7.534  17.821  0.00  0.00    +0.000 NA
ATOM      5  O   UNL     1       2.082   8.607  17.859  0.00  0.00    +0.000 OA
ENDROOT
BRANCH   1   8
ATOM      6  C   UNL     1      -0.265  11.310  21.044  0.00  0.00    +0.000 A 
ATOM      7  C   UNL     1       0.477  10.157  20.731  0.00  0.00    +0.000 A 
ATOM      8  C   UNL     1       0.608   9.710  19.417  0.00  0.00    +0.000 A 
ATOM      9  C   UNL     1      -0.119  10.373  18.427  0.00  0.00    +0.000 A 
ATOM     10  C   UNL     1      -0.934  11.480  18.721  0.00  0.00    +0.000 A 
ATOM     11  C   UNL     1      -1.009  11.973  20.042  0.00  0.00    +0.000 A 
BRANCH   6  13
ATOM     12  C   UNL     1      -1.298  11.194  23.177  0.00  0.00    +0.000 C 
ATOM     13  O   UNL     1      -0.296  11.772  22.336  0.00  0.00    +0.000 OA
ENDBRANCH   6  13
BRANCH  10  14
ATOM     14  O   UNL     1      -1.547  11.948  17.586  0.00  0.00    +0.000 OA
ATOM     15  C   UNL     1      -2.470  11.121  16.890  0.00  0.00    +0.000 C 
ENDBRANCH  10  14
BRANCH  11  16
ATOM     16  O   UNL     1      -1.829  13.052  20.236  0.00  0.00    +0.000 OA
ATOM     17  C   UNL     1      -3.219  12.873  20.457  0.00  0.00    +0.000 C 
ENDBRANCH  11  16
ENDBRANCH   1   8
BRANCH   3  18
ATOM     18  C   UNL     1       3.601   5.776  19.448  0.00  0.00    +0.000 C 
BRANCH  18  19
ATOM     19  C   UNL     1       2.675   4.604  19.194  0.00  0.00    +0.000 A 
ATOM     20  C   UNL     1       1.663   4.315  20.129  0.00  0.00    +0.000 A 
ATOM     21  C   UNL     1       0.837   3.200  19.978  0.00  0.00    +0.000 A 
ATOM     22  C   UNL     1       0.996   2.353  18.887  0.00  0.00    +0.000 A 
ATOM     23  C   UNL     1       1.981   2.631  17.939  0.00  0.00    +0.000 A 
ATOM     24  C   UNL     1       2.813   3.748  18.087  0.00  0.00    +0.000 A 
ATOM     25 CL   UNL     1       4.018   4.001  16.875  0.00  0.00    +0.000 Cl
ENDBRANCH  18  19
ENDBRANCH   3  18
TORSDOF 6
ENDMDL
MODEL 9
REMARK VINA RESULT:      -7.2      7.056      9.743
REMARK  Name = 
REMARK  9 active torsions:
REMARK  status: ('A' for Active; 'I' for Inactive)
REMARK    1  A    between atoms: C_1  and  O_2
REMARK    2  A    between atoms: O_2  and  C_3
REMARK    3  A    between atoms: C_5  and  C_6
REMARK    4  A    between atoms: C_8  and  C_9
REMARK    5  A    between atoms: C_9  and  C_10
REMARK    6  A    between atoms: C_20  and  O_21
REMARK    7  A    between atoms: O_21  and  C_22
REMARK    8  A    between atoms: C_23  and  O_24
REMARK    9  A    between atoms: O_24  and  C_25
REMARK                            x       y       z     vdW  Elec       q    Type
REMARK                         _______ _______ _______ _____ _____    ______ ____
ROOT
ATOM      1  C   UNL     1       1.836   7.683  19.496  0.00  0.00    +0.000 A 
ATOM      2  N   UNL     1       1.722   8.641  18.599  0.00  0.00    +0.000 NA
ATOM      3  C   UNL     1       1.215   9.682  19.341  0.00  0.00    +0.000 A 
ATOM      4  N   UNL     1       0.983   9.389  20.630  0.00  0.00    +0.000 NA
ATOM      5  O   UNL     1       1.412   8.066  20.738  0.00  0.00    +0.000 OA
ENDROOT
BRANCH   1   8
ATOM      6  C   UNL     1       3.860   4.798  18.165  0.00  0.00    +0.000 A 
ATOM      7  C   UNL     1       3.154   6.012  18.245  0.00  0.00    +0.000 A 
ATOM      8  C   UNL     1       2.401   6.343  19.371  0.00  0.00    +0.000 A 
ATOM      9  C   UNL     1       2.268   5.380  20.373  0.00  0.00    +0.000 A 
ATOM     10  C   UNL     1       2.895   4.126  20.284  0.00  0.00    +0.000 A 
ATOM     11  C   UNL     1       3.714   3.820  19.175  0.00  0.00    +0.000 A 
BRANCH   6  13
ATOM     12  C   UNL     1       6.049   4.853  17.253  0.00  0.00    +0.000 C 
ATOM     13  O   UNL     1       4.663   4.546  17.081  0.00  0.00    +0.000 OA
ENDBRANCH   6  13
BRANCH  10  14
ATOM     14  O   UNL     1       2.606   3.358  21.385  0.00  0.00    +0.000 OA
ATOM     15  C   UNL     1       1.354   2.692  21.471  0.00  0.00    +0.000 C 
ENDBRANCH  10  14
BRANCH  11  16
ATOM     16  O   UNL     1       4.282   2.575  19.170  0.00  0.00    +0.000 OA
ATOM     17  C   UNL     1       3.639   1.490  18.521  0.00  0.00    +0.000 C 
ENDBRANCH  11  16
ENDBRANCH   1   8
BRANCH   3  18
ATOM     18  C   UNL     1       0.798  10.975  18.737  0.00  0.00    +0.000 C 
BRANCH  18  19
ATOM     19  C   UNL     1      -0.701  10.937  18.514  0.00  0.00    +0.000 A 
ATOM     20  C   UNL     1      -1.230  10.038  17.569  0.00  0.00    +0.000 A 
ATOM     21  C   UNL     1      -2.593  10.021  17.272  0.00  0.00    +0.000 A 
ATOM     22  C   UNL     1      -3.462  10.895  17.918  0.00  0.00    +0.000 A 
ATOM     23  C   UNL     1      -2.961  11.782  18.871  0.00  0.00    +0.000 A 
ATOM     24  C   UNL     1      -1.592  11.803  19.171  0.00  0.00    +0.000 A 
ATOM     25 CL   UNL     1      -1.061  12.949  20.350  0.00  0.00    +0.000 Cl
ENDBRANCH  18  19
ENDBRANCH   3  18
TORSDOF 6
ENDMDL
