MODEL 1
REMARK VINA RESULT:      -7.9      0.000      0.000
REMARK  Name = 
REMARK  8 active torsions:
REMARK  status: ('A' for Active; 'I' for Inactive)
REMARK    1  A    between atoms: C_1  and  C_2
REMARK    2  A    between atoms: C_2  and  C_3
REMARK    3  A    between atoms: C_2  and  C_4
REMARK    4  A    between atoms: C_4  and  C_5
REMARK    5  A    between atoms: C_4  and  N_11
REMARK    6  A    between atoms: C_5  and  N_6
REMARK    7  A    between atoms: C_12  and  C_14
REMARK    8  A    between atoms: C_17  and  C_18
REMARK                            x       y       z     vdW  Elec       q    Type
REMARK                         _______ _______ _______ _____ _____    ______ ____
ROOT
ATOM      1  N   UNL     1       3.537   5.424  18.135  0.00  0.00    +0.000 N 
ATOM      2  C   UNL     1       3.451   6.732  17.713  0.00  0.00    +0.000 C 
ATOM      3  O   UNL     1       4.056   7.163  16.740  0.00  0.00    +0.000 OA
ATOM      4  H   UNL     1       3.005   5.118  18.938  0.00  0.00    +0.000 HD
ENDROOT
BRANCH   2   5
ATOM      5  C   UNL     1       2.600   7.632  18.542  0.00  0.00    +0.000 A 
ATOM      6  C   UNL     1       2.313   7.253  19.854  0.00  0.00    +0.000 A 
ATOM      7  C   UNL     1       1.480   8.048  20.652  0.00  0.00    +0.000 A 
ATOM      8  C   UNL     1       0.931   9.254  20.176  0.00  0.00    +0.000 A 
ATOM      9  C   UNL     1       1.259   9.628  18.860  0.00  0.00    +0.000 A 
ATOM     10  C   UNL     1       2.080   8.832  18.051  0.00  0.00    +0.000 A 
BRANCH   8  11
ATOM     11  C   UNL     1       0.043  10.088  21.026  0.00  0.00    +0.000 A 
ATOM     12  C   UNL     1      -0.169   9.781  22.386  0.00  0.00    +0.000 A 
ATOM     13  C   UNL     1      -1.028  10.544  23.183  0.00  0.00    +0.000 A 
ATOM     14  C   UNL     1      -1.676  11.640  22.634  0.00  0.00    +0.000 A 
ATOM     15  F   UNL     1      -2.500  12.371  23.396  0.00  0.00    +0.000 F 
ATOM     16  C   UNL     1      -1.482  11.985  21.306  0.00  0.00    +0.000 A 
ATOM     17  C   UNL     1      -0.632  11.211  20.507  0.00  0.00    +0.000 A 
ENDBRANCH   8  11
ENDBRANCH   2   5
BRANCH   1  18
ATOM     18  C   UNL     1       4.348   4.419  17.439  0.00  0.00    +0.000 C 
BRANCH  18  20
ATOM     19  C   UNL     1       6.814   5.010  17.017  0.00  0.00    +0.000 C 
ATOM     20  C   UNL     1       5.796   4.434  18.007  0.00  0.00    +0.000 C 
ATOM     21  C   UNL     1       5.874   5.252  19.307  0.00  0.00    +0.000 C 
ENDBRANCH  18  20
BRANCH  18  22
ATOM     22  C   UNL     1       3.644   3.040  17.463  0.00  0.00    +0.000 C 
BRANCH  22  23
ATOM     23  N   UNL     1       2.687   2.881  18.541  0.00  0.00    +0.000 N 
ATOM     24  C   UNL     1       2.980   2.636  19.856  0.00  0.00    +0.000 A 
ATOM     25  C   UNL     1       1.758   2.519  20.477  0.00  0.00    +0.000 A 
ATOM     26  N   UNL     1       0.739   2.726  19.584  0.00  0.00    +0.000 NA
ATOM     27  C   UNL     1       1.329   2.979  18.437  0.00  0.00    +0.000 A 
ENDBRANCH  22  23
ENDBRANCH  18  22
ENDBRANCH   1  18
TORSDOF 6
ENDMDL
MODEL 2
REMARK VINA RESULT:      -7.9      1.786      3.733
REMARK  Name = 
REMARK  8 active torsions:
REMARK  status: ('A' for Active; 'I' for Inactive)
REMARK    1  A    between atoms: C_1  and  C_2
REMARK    2  A    between atoms: C_2  and  C_3
REMARK    3  A    between atoms: C_2  and  C_4
REMARK    4  A    between atoms: C_4  and  C_5
REMARK    5  A    between atoms: C_4  and  N_11
REMARK    6  A    between atoms: C_5  and  N_6
REMARK    7  A    between atoms: C_12  and  C_14
REMARK    8  A    between atoms: C_17  and  C_18
REMARK                            x       y       z     vdW  Elec       q    Type
REMARK                         _______ _______ _______ _____ _____    ______ ____
ROOT
ATOM      1  N   UNL     1       3.370   5.193  18.476  0.00  0.00    +0.000 N 
ATOM      2  C   UNL     1       3.688   6.517  18.269  0.00  0.00    +0.000 C 
ATOM      3  O   UNL     1       4.773   6.885  17.838  0.00  0.00    +0.000 OA
ATOM      4  H   UNL     1       2.453   4.944  18.823  0.00  0.00    +0.000 HD
ENDROOT
BRANCH   2   5
ATOM      5  C   UNL     1       2.640   7.508  18.644  0.00  0.00    +0.000 A 
ATOM      6  C   UNL     1       2.204   8.412  17.675  0.00  0.00    +0.000 A 
ATOM      7  C   UNL     1       1.252   9.388  17.998  0.00  0.00    +0.000 A 
ATOM      8  C   UNL     1       0.691   9.477  19.286  0.00  0.00    +0.000 A 
ATOM      9  C   UNL     1       1.127   8.536  20.237  0.00  0.00    +0.000 A 
ATOM     10  C   UNL     1       2.088   7.564  19.926  0.00  0.00    +0.000 A 
BRANCH   8  11
ATOM     11  C   UNL     1      -0.311  10.520  19.623  0.00  0.00    +0.000 A 
ATOM     12  C   UNL     1      -1.252  10.965  18.673  0.00  0.00    +0.000 A 
ATOM     13  C   UNL     1      -2.179  11.969  18.974  0.00  0.00    +0.000 A 
ATOM     14  C   UNL     1      -2.187  12.532  20.242  0.00  0.00    +0.000 A 
ATOM     15  F   UNL     1      -3.072  13.494  20.532  0.00  0.00    +0.000 F 
ATOM     16  C   UNL     1      -1.288  12.112  21.209  0.00  0.00    +0.000 A 
ATOM     17  C   UNL     1      -0.354  11.116  20.900  0.00  0.00    +0.000 A 
ENDBRANCH   8  11
ENDBRANCH   2   5
BRANCH   1  18
ATOM     18  C   UNL     1       4.299   4.098  18.176  0.00  0.00    +0.000 C 
BRANCH  18  20
ATOM     19  C   UNL     1       3.009   3.246  20.231  0.00  0.00    +0.000 C 
ATOM     20  C   UNL     1       4.026   2.905  19.136  0.00  0.00    +0.000 C 
ATOM     21  C   UNL     1       3.510   1.679  18.365  0.00  0.00    +0.000 C 
ENDBRANCH  18  20
BRANCH  18  22
ATOM     22  C   UNL     1       4.263   3.752  16.668  0.00  0.00    +0.000 C 
BRANCH  22  23
ATOM     23  N   UNL     1       5.434   4.187  15.931  0.00  0.00    +0.000 N 
ATOM     24  C   UNL     1       5.492   4.469  14.593  0.00  0.00    +0.000 A 
ATOM     25  C   UNL     1       6.807   4.789  14.352  0.00  0.00    +0.000 A 
ATOM     26  N   UNL     1       7.535   4.748  15.513  0.00  0.00    +0.000 NA
ATOM     27  C   UNL     1       6.675   4.421  16.451  0.00  0.00    +0.000 A 
ENDBRANCH  22  23
ENDBRANCH  18  22
ENDBRANCH   1  18
TORSDOF 6
ENDMDL
MODEL 3
REMARK VINA RESULT:      -7.9      0.394      1.191
REMARK  Name = 
REMARK  8 active torsions:
REMARK  status: ('A' for Active; 'I' for Inactive)
REMARK    1  A    between atoms: C_1  and  C_2
REMARK    2  A    between atoms: C_2  and  C_3
REMARK    3  A    between atoms: C_2  and  C_4
REMARK    4  A    between atoms: C_4  and  C_5
REMARK    5  A    between atoms: C_4  and  N_11
REMARK    6  A    between atoms: C_5  and  N_6
REMARK    7  A    between atoms: C_12  and  C_14
REMARK    8  A    between atoms: C_17  and  C_18
REMARK                            x       y       z     vdW  Elec       q    Type
REMARK                         _______ _______ _______ _____ _____    ______ ____
ROOT
ATOM      1  N   UNL     1       3.551   5.496  18.108  0.00  0.00    +0.000 N 
ATOM      2  C   UNL     1       3.427   6.803  17.692  0.00  0.00    +0.000 C 
ATOM      3  O   UNL     1       4.007   7.252  16.711  0.00  0.00    +0.000 OA
ATOM      4  H   UNL     1       3.039   5.175  18.918  0.00  0.00    +0.000 HD
ENDROOT
BRANCH   2   5
ATOM      5  C   UNL     1       2.568   7.680  18.537  0.00  0.00    +0.000 A 
ATOM      6  C   UNL     1       2.313   7.291  19.853  0.00  0.00    +0.000 A 
ATOM      7  C   UNL     1       1.475   8.064  20.668  0.00  0.00    +0.000 A 
ATOM      8  C   UNL     1       0.887   9.257  20.204  0.00  0.00    +0.000 A 
ATOM      9  C   UNL     1       1.183   9.641  18.883  0.00  0.00    +0.000 A 
ATOM     10  C   UNL     1       2.010   8.867  18.058  0.00  0.00    +0.000 A 
BRANCH   8  11
ATOM     11  C   UNL     1      -0.007  10.066  21.070  0.00  0.00    +0.000 A 
ATOM     12  C   UNL     1      -0.658  11.216  20.580  0.00  0.00    +0.000 A 
ATOM     13  C   UNL     1      -1.476  12.001  21.400  0.00  0.00    +0.000 A 
ATOM     14  C   UNL     1      -1.668  11.634  22.724  0.00  0.00    +0.000 A 
ATOM     15  F   UNL     1      -2.450  12.384  23.511  0.00  0.00    +0.000 F 
ATOM     16  C   UNL     1      -1.058  10.502  23.241  0.00  0.00    +0.000 A 
ATOM     17  C   UNL     1      -0.230   9.727  22.420  0.00  0.00    +0.000 A 
ENDBRANCH   8  11
ENDBRANCH   2   5
BRANCH   1  18
ATOM     18  C   UNL     1       4.375   4.513  17.396  0.00  0.00    +0.000 C 
BRANCH  18  20
ATOM     19  C   UNL     1       6.841   5.160  17.064  0.00  0.00    +0.000 C 
ATOM     20  C   UNL     1       5.811   4.507  17.993  0.00  0.00    +0.000 C 
ATOM     21  C   UNL     1       5.853   5.238  19.346  0.00  0.00    +0.000 C 
ENDBRANCH  18  20
BRANCH  18  22
ATOM     22  C   UNL     1       3.669   3.136  17.361  0.00  0.00    +0.000 C 
BRANCH  22  23
ATOM     23  N   UNL     1       2.719   2.928  18.436  0.00  0.00    +0.000 N 
ATOM     24  C   UNL     1       1.357   3.033  18.346  0.00  0.00    +0.000 A 
ATOM     25  C   UNL     1       0.896   2.797  19.620  0.00  0.00    +0.000 A 
ATOM     26  N   UNL     1       1.936   2.512  20.466  0.00  0.00    +0.000 NA
ATOM     27  C   UNL     1       3.015   2.560  19.718  0.00  0.00    +0.000 A 
ENDBRANCH  22  23
ENDBRANCH  18  22
ENDBRANCH   1  18
TORSDOF 6
ENDMDL
MODEL 4
REMARK VINA RESULT:      -7.9      2.461      4.197
REMARK  Name = 
REMARK  8 active torsions:
REMARK  status: ('A' for Active; 'I' for Inactive)
REMARK    1  A    between atoms: C_1  and  C_2
REMARK    2  A    between atoms: C_2  and  C_3
REMARK    3  A    between atoms: C_2  and  C_4
REMARK    4  A    between atoms: C_4  and  C_5
REMARK    5  A    between atoms: C_4  and  N_11
REMARK    6  A    between atoms: C_5  and  N_6
REMARK    7  A    between atoms: C_12  and  C_14
REMARK    8  A    between atoms: C_17  and  C_18
REMARK                            x       y       z     vdW  Elec       q    Type
REMARK                         _______ _______ _______ _____ _____    ______ ____
ROOT
ATOM      1  N   UNL     1       3.623   5.384  18.780  0.00  0.00    +0.000 N 
ATOM      2  C   UNL     1       2.761   5.838  19.753  0.00  0.00    +0.000 C 
ATOM      3  O   UNL     1       2.418   5.160  20.713  0.00  0.00    +0.000 OA
ATOM      4  H   UNL     1       3.882   5.991  18.014  0.00  0.00    +0.000 HD
ENDROOT
BRANCH   2   5
ATOM      5  C   UNL     1       2.216   7.211  19.555  0.00  0.00    +0.000 A 
ATOM      6  C   UNL     1       2.392   7.823  18.314  0.00  0.00    +0.000 A 
ATOM      7  C   UNL     1       1.934   9.130  18.100  0.00  0.00    +0.000 A 
ATOM      8  C   UNL     1       1.267   9.854  19.107  0.00  0.00    +0.000 A 
ATOM      9  C   UNL     1       1.076   9.203  20.339  0.00  0.00    +0.000 A 
ATOM     10  C   UNL     1       1.543   7.901  20.566  0.00  0.00    +0.000 A 
BRANCH   8  11
ATOM     11  C   UNL     1       0.791  11.241  18.875  0.00  0.00    +0.000 A 
ATOM     12  C   UNL     1       1.694  12.319  18.779  0.00  0.00    +0.000 A 
ATOM     13  C   UNL     1       1.250  13.633  18.592  0.00  0.00    +0.000 A 
ATOM     14  C   UNL     1      -0.109  13.884  18.481  0.00  0.00    +0.000 A 
ATOM     15  F   UNL     1      -0.536  15.142  18.303  0.00  0.00    +0.000 F 
ATOM     16  C   UNL     1      -1.029  12.851  18.554  0.00  0.00    +0.000 A 
ATOM     17  C   UNL     1      -0.582  11.539  18.755  0.00  0.00    +0.000 A 
ENDBRANCH   8  11
ENDBRANCH   2   5
BRANCH   1  18
ATOM     18  C   UNL     1       4.230   4.049  18.819  0.00  0.00    +0.000 C 
BRANCH  18  20
ATOM     19  C   UNL     1       3.527   1.673  18.134  0.00  0.00    +0.000 C 
ATOM     20  C   UNL     1       3.581   3.149  17.729  0.00  0.00    +0.000 C 
ATOM     21  C   UNL     1       2.150   3.613  17.407  0.00  0.00    +0.000 C 
ENDBRANCH  18  20
BRANCH  18  22
ATOM     22  C   UNL     1       5.773   4.150  18.758  0.00  0.00    +0.000 C 
BRANCH  22  23
ATOM     23  N   UNL     1       6.282   4.722  17.526  0.00  0.00    +0.000 N 
ATOM     24  C   UNL     1       6.231   4.149  16.284  0.00  0.00    +0.000 A 
ATOM     25  C   UNL     1       6.875   5.037  15.455  0.00  0.00    +0.000 A 
ATOM     26  N   UNL     1       7.276   6.147  16.152  0.00  0.00    +0.000 NA
ATOM     27  C   UNL     1       6.872   5.946  17.386  0.00  0.00    +0.000 A 
ENDBRANCH  22  23
ENDBRANCH  18  22
ENDBRANCH   1  18
TORSDOF 6
ENDMDL
MODEL 5
REMARK VINA RESULT:      -7.8      1.933      3.647
REMARK  Name = 
REMARK  8 active torsions:
REMARK  status: ('A' for Active; 'I' for Inactive)
REMARK    1  A    between atoms: C_1  and  C_2
REMARK    2  A    between atoms: C_2  and  C_3
REMARK    3  A    between atoms: C_2  and  C_4
REMARK    4  A    between atoms: C_4  and  C_5
REMARK    5  A    between atoms: C_4  and  N_11
REMARK    6  A    between atoms: C_5  and  N_6
REMARK    7  A    between atoms: C_12  and  C_14
REMARK    8  A    between atoms: C_17  and  C_18
REMARK                            x       y       z     vdW  Elec       q    Type
REMARK                         _______ _______ _______ _____ _____    ______ ____
ROOT
ATOM      1  N   UNL     1       2.883   5.219  17.957  0.00  0.00    +0.000 N 
ATOM      2  C   UNL     1       3.178   5.997  19.055  0.00  0.00    +0.000 C 
ATOM      3  O   UNL     1       4.009   5.679  19.897  0.00  0.00    +0.000 OA
ATOM      4  H   UNL     1       2.197   5.536  17.286  0.00  0.00    +0.000 HD
ENDROOT
BRANCH   2   5
ATOM      5  C   UNL     1       2.389   7.253  19.198  0.00  0.00    +0.000 A 
ATOM      6  C   UNL     1       1.844   7.557  20.446  0.00  0.00    +0.000 A 
ATOM      7  C   UNL     1       1.059   8.705  20.613  0.00  0.00    +0.000 A 
ATOM      8  C   UNL     1       0.815   9.596  19.550  0.00  0.00    +0.000 A 
ATOM      9  C   UNL     1       1.400   9.282  18.309  0.00  0.00    +0.000 A 
ATOM     10  C   UNL     1       2.176   8.128  18.131  0.00  0.00    +0.000 A 
BRANCH   8  11
ATOM     11  C   UNL     1      -0.024  10.807  19.732  0.00  0.00    +0.000 A 
ATOM     12  C   UNL     1      -1.289  10.921  19.120  0.00  0.00    +0.000 A 
ATOM     13  C   UNL     1      -2.070  12.072  19.263  0.00  0.00    +0.000 A 
ATOM     14  C   UNL     1      -1.602  13.123  20.038  0.00  0.00    +0.000 A 
ATOM     15  F   UNL     1      -2.349  14.227  20.175  0.00  0.00    +0.000 F 
ATOM     16  C   UNL     1      -0.371  13.045  20.669  0.00  0.00    +0.000 A 
ATOM     17  C   UNL     1       0.414  11.896  20.513  0.00  0.00    +0.000 A 
ENDBRANCH   8  11
ENDBRANCH   2   5
BRANCH   1  18
ATOM     18  C   UNL     1       3.557   3.946  17.684  0.00  0.00    +0.000 C 
BRANCH  18  20
ATOM     19  C   UNL     1       3.005   1.508  18.288  0.00  0.00    +0.000 C 
ATOM     20  C   UNL     1       2.506   2.800  17.633  0.00  0.00    +0.000 C 
ATOM     21  C   UNL     1       1.198   3.217  18.327  0.00  0.00    +0.000 C 
ENDBRANCH  18  20
BRANCH  18  22
ATOM     22  C   UNL     1       4.463   4.066  16.435  0.00  0.00    +0.000 C 
BRANCH  22  23
ATOM     23  N   UNL     1       5.716   4.756  16.674  0.00  0.00    +0.000 N 
ATOM     24  C   UNL     1       6.507   4.637  17.786  0.00  0.00    +0.000 A 
ATOM     25  C   UNL     1       7.548   5.511  17.577  0.00  0.00    +0.000 A 
ATOM     26  N   UNL     1       7.430   6.122  16.355  0.00  0.00    +0.000 NA
ATOM     27  C   UNL     1       6.340   5.619  15.820  0.00  0.00    +0.000 A 
ENDBRANCH  22  23
ENDBRANCH  18  22
ENDBRANCH   1  18
TORSDOF 6
ENDMDL
MODEL 6
REMARK VINA RESULT:      -7.8      0.638      1.600
REMARK  Name = 
REMARK  8 active torsions:
REMARK  status: ('A' for Active; 'I' for Inactive)
REMARK    1  A    between atoms: C_1  and  C_2
REMARK    2  A    between atoms: C_2  and  C_3
REMARK    3  A    between atoms: C_2  and  C_4
REMARK    4  A    between atoms: C_4  and  C_5
REMARK    5  A    between atoms: C_4  and  N_11
REMARK    6  A    between atoms: C_5  and  N_6
REMARK    7  A    between atoms: C_12  and  C_14
REMARK    8  A    between atoms: C_17  and  C_18
REMARK                            x       y       z     vdW  Elec       q    Type
REMARK                         _______ _______ _______ _____ _____    ______ ____
ROOT
ATOM      1  N   UNL     1       3.840   5.773  17.933  0.00  0.00    +0.000 N 
ATOM      2  C   UNL     1       3.479   7.043  17.541  0.00  0.00    +0.000 C 
ATOM      3  O   UNL     1       3.901   7.575  16.522  0.00  0.00    +0.000 OA
ATOM      4  H   UNL     1       3.452   5.378  18.778  0.00  0.00    +0.000 HD
ENDROOT
BRANCH   2   5
ATOM      5  C   UNL     1       2.562   7.775  18.460  0.00  0.00    +0.000 A 
ATOM      6  C   UNL     1       1.949   8.941  17.997  0.00  0.00    +0.000 A 
ATOM      7  C   UNL     1       1.115   9.683  18.843  0.00  0.00    +0.000 A 
ATOM      8  C   UNL     1       0.847   9.274  20.164  0.00  0.00    +0.000 A 
ATOM      9  C   UNL     1       1.454   8.080  20.596  0.00  0.00    +0.000 A 
ATOM     10  C   UNL     1       2.301   7.339  19.761  0.00  0.00    +0.000 A 
BRANCH   8  11
ATOM     11  C   UNL     1      -0.032  10.070  21.057  0.00  0.00    +0.000 A 
ATOM     12  C   UNL     1      -0.681  11.234  20.599  0.00  0.00    +0.000 A 
ATOM     13  C   UNL     1      -1.485  12.006  21.443  0.00  0.00    +0.000 A 
ATOM     14  C   UNL     1      -1.667  11.611  22.761  0.00  0.00    +0.000 A 
ATOM     15  F   UNL     1      -2.436  12.349  23.572  0.00  0.00    +0.000 F 
ATOM     16  C   UNL     1      -1.060  10.464  23.247  0.00  0.00    +0.000 A 
ATOM     17  C   UNL     1      -0.244   9.702  22.401  0.00  0.00    +0.000 A 
ENDBRANCH   8  11
ENDBRANCH   2   5
BRANCH   1  18
ATOM     18  C   UNL     1       4.750   4.931  17.149  0.00  0.00    +0.000 C 
BRANCH  18  20
ATOM     19  C   UNL     1       7.079   6.016  17.075  0.00  0.00    +0.000 C 
ATOM     20  C   UNL     1       6.176   4.989  17.766  0.00  0.00    +0.000 C 
ATOM     21  C   UNL     1       6.119   5.330  19.265  0.00  0.00    +0.000 C 
ENDBRANCH  18  20
BRANCH  18  22
ATOM     22  C   UNL     1       4.162   3.508  16.978  0.00  0.00    +0.000 C 
BRANCH  22  23
ATOM     23  N   UNL     1       3.219   3.128  18.011  0.00  0.00    +0.000 N 
ATOM     24  C   UNL     1       1.854   3.205  17.931  0.00  0.00    +0.000 A 
ATOM     25  C   UNL     1       1.400   2.783  19.159  0.00  0.00    +0.000 A 
ATOM     26  N   UNL     1       2.448   2.416  19.962  0.00  0.00    +0.000 NA
ATOM     27  C   UNL     1       3.525   2.597  19.232  0.00  0.00    +0.000 A 
ENDBRANCH  22  23
ENDBRANCH  18  22
ENDBRANCH   1  18
TORSDOF 6
ENDMDL
MODEL 7
REMARK VINA RESULT:      -7.8      0.830      1.394
REMARK  Name = 
REMARK  8 active torsions:
REMARK  status: ('A' for Active; 'I' for Inactive)
REMARK    1  A    between atoms: C_1  and  C_2
REMARK    2  A    between atoms: C_2  and  C_3
REMARK    3  A    between atoms: C_2  and  C_4
REMARK    4  A    between atoms: C_4  and  C_5
REMARK    5  A    between atoms: C_4  and  N_11
REMARK    6  A    between atoms: C_5  and  N_6
REMARK    7  A    between atoms: C_12  and  C_14
REMARK    8  A    between atoms: C_17  and  C_18
REMARK                            x       y       z     vdW  Elec       q    Type
REMARK                         _______ _______ _______ _____ _____    ______ ____
ROOT
ATOM      1  N   UNL     1       4.223   6.142  18.060  0.00  0.00    +0.000 N 
ATOM      2  C   UNL     1       3.539   7.213  17.530  0.00  0.00    +0.000 C 
ATOM      3  O   UNL     1       3.697   7.606  16.381  0.00  0.00    +0.000 OA
ATOM      4  H   UNL     1       4.044   5.852  19.012  0.00  0.00    +0.000 HD
ENDROOT
BRANCH   2   5
ATOM      5  C   UNL     1       2.607   7.917  18.455  0.00  0.00    +0.000 A 
ATOM      6  C   UNL     1       2.020   9.109  18.027  0.00  0.00    +0.000 A 
ATOM      7  C   UNL     1       1.172   9.825  18.882  0.00  0.00    +0.000 A 
ATOM      8  C   UNL     1       0.865   9.364  20.177  0.00  0.00    +0.000 A 
ATOM      9  C   UNL     1       1.447   8.145  20.573  0.00  0.00    +0.000 A 
ATOM     10  C   UNL     1       2.306   7.429  19.728  0.00  0.00    +0.000 A 
BRANCH   8  11
ATOM     11  C   UNL     1      -0.028  10.132  21.080  0.00  0.00    +0.000 A 
ATOM     12  C   UNL     1      -0.224   9.744  22.421  0.00  0.00    +0.000 A 
ATOM     13  C   UNL     1      -1.088  10.445  23.268  0.00  0.00    +0.000 A 
ATOM     14  C   UNL     1      -1.759  11.559  22.788  0.00  0.00    +0.000 A 
ATOM     15  F   UNL     1      -2.589  12.232  23.597  0.00  0.00    +0.000 F 
ATOM     16  C   UNL     1      -1.583  11.983  21.480  0.00  0.00    +0.000 A 
ATOM     17  C   UNL     1      -0.727  11.271  20.631  0.00  0.00    +0.000 A 
ENDBRANCH   8  11
ENDBRANCH   2   5
BRANCH   1  18
ATOM     18  C   UNL     1       5.190   5.357  17.285  0.00  0.00    +0.000 C 
BRANCH  18  20
ATOM     19  C   UNL     1       7.601   4.477  17.427  0.00  0.00    +0.000 C 
ATOM     20  C   UNL     1       6.617   5.565  17.868  0.00  0.00    +0.000 C 
ATOM     21  C   UNL     1       7.191   6.931  17.454  0.00  0.00    +0.000 C 
ENDBRANCH  18  20
BRANCH  18  22
ATOM     22  C   UNL     1       4.731   3.883  17.176  0.00  0.00    +0.000 C 
BRANCH  22  23
ATOM     23  N   UNL     1       3.944   3.420  18.303  0.00  0.00    +0.000 N 
ATOM     24  C   UNL     1       4.420   3.099  19.546  0.00  0.00    +0.000 A 
ATOM     25  C   UNL     1       3.318   2.674  20.250  0.00  0.00    +0.000 A 
ATOM     26  N   UNL     1       2.187   2.767  19.482  0.00  0.00    +0.000 NA
ATOM     27  C   UNL     1       2.589   3.255  18.330  0.00  0.00    +0.000 A 
ENDBRANCH  22  23
ENDBRANCH  18  22
ENDBRANCH   1  18
TORSDOF 6
ENDMDL
MODEL 8
REMARK VINA RESULT:      -7.8      1.674      3.610
REMARK  Name = 
REMARK  8 active torsions:
REMARK  status: ('A' for Active; 'I' for Inactive)
REMARK    1  A    between atoms: C_1  and  C_2
REMARK    2  A    between atoms: C_2  and  C_3
REMARK    3  A    between atoms: C_2  and  C_4
REMARK    4  A    between atoms: C_4  and  C_5
REMARK    5  A    between atoms: C_4  and  N_11
REMARK    6  A    between atoms: C_5  and  N_6
REMARK    7  A    between atoms: C_12  and  C_14
REMARK    8  A    between atoms: C_17  and  C_18
REMARK                            x       y       z     vdW  Elec       q    Type
REMARK                         _______ _______ _______ _____ _____    ______ ____
ROOT
ATOM      1  N   UNL     1       2.694   5.143  18.235  0.00  0.00    +0.000 N 
ATOM      2  C   UNL     1       3.173   5.995  19.205  0.00  0.00    +0.000 C 
ATOM      3  O   UNL     1       4.237   5.819  19.785  0.00  0.00    +0.000 OA
ATOM      4  H   UNL     1       1.815   5.343  17.779  0.00  0.00    +0.000 HD
ENDROOT
BRANCH   2   5
ATOM      5  C   UNL     1       2.293   7.146  19.557  0.00  0.00    +0.000 A 
ATOM      6  C   UNL     1       2.086   8.140  18.600  0.00  0.00    +0.000 A 
ATOM      7  C   UNL     1       1.302   9.261  18.905  0.00  0.00    +0.000 A 
ATOM      8  C   UNL     1       0.683   9.411  20.162  0.00  0.00    +0.000 A 
ATOM      9  C   UNL     1       0.885   8.381  21.098  0.00  0.00    +0.000 A 
ATOM     10  C   UNL     1       1.678   7.263  20.805  0.00  0.00    +0.000 A 
BRANCH   8  11
ATOM     11  C   UNL     1      -0.140  10.605  20.480  0.00  0.00    +0.000 A 
ATOM     12  C   UNL     1      -0.843  11.300  19.475  0.00  0.00    +0.000 A 
ATOM     13  C   UNL     1      -1.595  12.443  19.763  0.00  0.00    +0.000 A 
ATOM     14  C   UNL     1      -1.668  12.900  21.071  0.00  0.00    +0.000 A 
ATOM     15  F   UNL     1      -2.387  13.996  21.349  0.00  0.00    +0.000 F 
ATOM     16  C   UNL     1      -1.005  12.237  22.091  0.00  0.00    +0.000 A 
ATOM     17  C   UNL     1      -0.242  11.100  21.796  0.00  0.00    +0.000 A 
ENDBRANCH   8  11
ENDBRANCH   2   5
BRANCH   1  18
ATOM     18  C   UNL     1       3.431   3.956  17.790  0.00  0.00    +0.000 C 
BRANCH  18  20
ATOM     19  C   UNL     1       3.093   1.487  18.424  0.00  0.00    +0.000 C 
ATOM     20  C   UNL     1       2.477   2.728  17.769  0.00  0.00    +0.000 C 
ATOM     21  C   UNL     1       1.152   3.043  18.486  0.00  0.00    +0.000 C 
ENDBRANCH  18  20
BRANCH  18  22
ATOM     22  C   UNL     1       4.170   4.240  16.459  0.00  0.00    +0.000 C 
BRANCH  22  23
ATOM     23  N   UNL     1       5.607   4.371  16.595  0.00  0.00    +0.000 N 
ATOM     24  C   UNL     1       6.309   4.432  17.770  0.00  0.00    +0.000 A 
ATOM     25  C   UNL     1       7.620   4.602  17.393  0.00  0.00    +0.000 A 
ATOM     26  N   UNL     1       7.736   4.604  16.027  0.00  0.00    +0.000 NA
ATOM     27  C   UNL     1       6.515   4.425  15.576  0.00  0.00    +0.000 A 
ENDBRANCH  22  23
ENDBRANCH  18  22
ENDBRANCH   1  18
TORSDOF 6
ENDMDL
MODEL 9
REMARK VINA RESULT:      -7.7      1.143      1.700
REMARK  Name = 
REMARK  8 active torsions:
REMARK  status: ('A' for Active; 'I' for Inactive)
REMARK    1  A    between atoms: C_1  and  C_2
REMARK    2  A    between atoms: C_2  and  C_3
REMARK    3  A    between atoms: C_2  and  C_4
REMARK    4  A    between atoms: C_4  and  C_5
REMARK    5  A    between atoms: C_4  and  N_11
REMARK    6  A    between atoms: C_5  and  N_6
REMARK    7  A    between atoms: C_12  and  C_14
REMARK    8  A    between atoms: C_17  and  C_18
REMARK                            x       y       z     vdW  Elec       q    Type
REMARK                         _______ _______ _______ _____ _____    ______ ____
ROOT
ATOM      1  N   UNL     1       4.212   6.003  18.679  0.00  0.00    +0.000 N 
ATOM      2  C   UNL     1       2.870   6.179  18.426  0.00  0.00    +0.000 C 
ATOM      3  O   UNL     1       2.239   5.481  17.642  0.00  0.00    +0.000 OA
ATOM      4  H   UNL     1       4.681   6.600  19.346  0.00  0.00    +0.000 HD
ENDROOT
BRANCH   2   5
ATOM      5  C   UNL     1       2.214   7.313  19.137  0.00  0.00    +0.000 A 
ATOM      6  C   UNL     1       1.869   7.146  20.478  0.00  0.00    +0.000 A 
ATOM      7  C   UNL     1       1.210   8.171  21.171  0.00  0.00    +0.000 A 
ATOM      8  C   UNL     1       0.900   9.399  20.555  0.00  0.00    +0.000 A 
ATOM      9  C   UNL     1       1.284   9.552  19.211  0.00  0.00    +0.000 A 
ATOM     10  C   UNL     1       1.932   8.527  18.507  0.00  0.00    +0.000 A 
BRANCH   8  11
ATOM     11  C   UNL     1       0.195  10.477  21.293  0.00  0.00    +0.000 A 
ATOM     12  C   UNL     1       0.320  11.829  20.912  0.00  0.00    +0.000 A 
ATOM     13  C   UNL     1      -0.315  12.852  21.622  0.00  0.00    +0.000 A 
ATOM     14  C   UNL     1      -1.102  12.535  22.719  0.00  0.00    +0.000 A 
ATOM     15  F   UNL     1      -1.711  13.514  23.402  0.00  0.00    +0.000 F 
ATOM     16  C   UNL     1      -1.264  11.218  23.118  0.00  0.00    +0.000 A 
ATOM     17  C   UNL     1      -0.615  10.197  22.412  0.00  0.00    +0.000 A 
ENDBRANCH   8  11
ENDBRANCH   2   5
BRANCH   1  18
ATOM     18  C   UNL     1       5.006   4.945  18.045  0.00  0.00    +0.000 C 
BRANCH  18  20
ATOM     19  C   UNL     1       7.349   5.763  18.716  0.00  0.00    +0.000 C 
ATOM     20  C   UNL     1       6.365   5.529  17.565  0.00  0.00    +0.000 C 
ATOM     21  C   UNL     1       7.037   4.600  16.539  0.00  0.00    +0.000 C 
ENDBRANCH  18  20
BRANCH  18  22
ATOM     22  C   UNL     1       5.109   3.711  18.974  0.00  0.00    +0.000 C 
BRANCH  22  23
ATOM     23  N   UNL     1       3.847   3.038  19.210  0.00  0.00    +0.000 N 
ATOM     24  C   UNL     1       3.175   2.242  18.321  0.00  0.00    +0.000 A 
ATOM     25  C   UNL     1       2.021   1.876  18.974  0.00  0.00    +0.000 A 
ATOM     26  N   UNL     1       1.996   2.394  20.243  0.00  0.00    +0.000 NA
ATOM     27  C   UNL     1       3.124   3.056  20.369  0.00  0.00    +0.000 A 
ENDBRANCH  22  23
ENDBRANCH  18  22
ENDBRANCH   1  18
TORSDOF 6
ENDMDL
