MODEL 1
REMARK VINA RESULT:      -9.4      0.000      0.000
REMARK  Name = 
REMARK  6 active torsions:
REMARK  status: ('A' for Active; 'I' for Inactive)
REMARK    1  A    between atoms: C_1  and  C_2
REMARK    2  A    between atoms: C_5  and  C_6
REMARK    3  A    between atoms: C_9  and  C_10
REMARK    4  A    between atoms: C_11  and  C_12
REMARK    5  A    between atoms: N_24  and  S_25
REMARK    6  A    between atoms: S_25  and  C_26
REMARK                            x       y       z     vdW  Elec       q    Type
REMARK                         _______ _______ _______ _____ _____    ______ ____
ROOT
ATOM      1  C   UNL     1       2.235   7.635  18.894  0.00  0.00    +0.000 A 
ATOM      2  C   UNL     1       1.945   8.358  17.724  0.00  0.00    +0.000 A 
ATOM      3  C   UNL     1       1.627   9.721  17.772  0.00  0.00    +0.000 A 
ATOM      4  C   UNL     1       1.413  10.341  19.015  0.00  0.00    +0.000 A 
ATOM      5  C   UNL     1       1.120   9.445  20.008  0.00  0.00    +0.000 A 
ATOM      6  C   UNL     1       1.738   8.214  20.076  0.00  0.00    +0.000 A 
ATOM      7  N   UNL     1      -0.263   9.639  20.253  0.00  0.00    +0.000 N 
ATOM      8  C   UNL     1      -0.723  10.757  19.457  0.00  0.00    +0.000 C 
ATOM      9  O   UNL     1      -1.870  10.994  19.157  0.00  0.00    +0.000 OA
ATOM     10  C   UNL     1       0.555  11.578  19.258  0.00  0.00    +0.000 C 
ATOM     11  C   UNL     1       0.914  12.681  18.265  0.00  0.00    +0.000 C 
ATOM     12  C   UNL     1       2.105  13.556  18.748  0.00  0.00    +0.000 C 
ATOM     13  N   UNL     1       2.062  14.045  20.148  0.00  0.00    +0.000 NA
ATOM     14  C   UNL     1       1.671  13.013  21.138  0.00  0.00    +0.000 C 
ATOM     15  C   UNL     1       0.438  12.297  20.658  0.00  0.00    +0.000 C 
ATOM     16  H   UNL     1      -0.883   8.913  20.597  0.00  0.00    +0.000 HD
ENDROOT
BRANCH   1  22
ATOM     17  C   UNL     1       4.643   4.919  17.723  0.00  0.00    +0.000 A 
ATOM     18  C   UNL     1       4.355   3.865  18.586  0.00  0.00    +0.000 A 
ATOM     19  C   UNL     1       3.405   4.025  19.587  0.00  0.00    +0.000 A 
ATOM     20  C   UNL     1       2.692   5.234  19.742  0.00  0.00    +0.000 A 
ATOM     21  C   UNL     1       1.617   5.223  20.806  0.00  0.00    +0.000 C 
ATOM     22  C   UNL     1       2.975   6.339  18.890  0.00  0.00    +0.000 A 
ATOM     23  C   UNL     1       3.973   6.134  17.904  0.00  0.00    +0.000 A 
BRANCH  17  28
ATOM     24  C   UNL     1       6.451   3.877  13.233  0.00  0.00    +0.000 C 
ATOM     25  C   UNL     1       6.403   4.325  14.637  0.00  0.00    +0.000 A 
ATOM     26  N   UNL     1       7.387   4.784  15.379  0.00  0.00    +0.000 NA
ATOM     27  N   UNL     1       6.878   5.056  16.630  0.00  0.00    +0.000 NA
ATOM     28  C   UNL     1       5.586   4.782  16.622  0.00  0.00    +0.000 A 
ATOM     29  N   UNL     1       5.264   4.302  15.379  0.00  0.00    +0.000 N 
ATOM     30  H   UNL     1       4.354   3.970  15.091  0.00  0.00    +0.000 HD
ENDBRANCH  17  28
ENDBRANCH   1  22
BRANCH  13  31
ATOM     31  S   UNL     1       1.572  15.644  20.419  0.00  0.00    +0.000 S 
ATOM     32  C   UNL     1       1.195  15.713  22.183  0.00  0.00    +0.000 C 
ATOM     33  O   UNL     1       2.725  16.489  20.226  0.00  0.00    +0.000 OA
ATOM     34  O   UNL     1       0.351  15.856  19.706  0.00  0.00    +0.000 OA
ENDBRANCH  13  31
TORSDOF 3
ENDMDL
MODEL 2
REMARK VINA RESULT:      -9.0      0.959      1.111
REMARK  Name = 
REMARK  6 active torsions:
REMARK  status: ('A' for Active; 'I' for Inactive)
REMARK    1  A    between atoms: C_1  and  C_2
REMARK    2  A    between atoms: C_5  and  C_6
REMARK    3  A    between atoms: C_9  and  C_10
REMARK    4  A    between atoms: C_11  and  C_12
REMARK    5  A    between atoms: N_24  and  S_25
REMARK    6  A    between atoms: S_25  and  C_26
REMARK                            x       y       z     vdW  Elec       q    Type
REMARK                         _______ _______ _______ _____ _____    ______ ____
ROOT
ATOM      1  C   UNL     1       2.239   8.042  18.682  0.00  0.00    +0.000 A 
ATOM      2  C   UNL     1       2.272   8.978  17.635  0.00  0.00    +0.000 A 
ATOM      3  C   UNL     1       1.890  10.310  17.838  0.00  0.00    +0.000 A 
ATOM      4  C   UNL     1       1.293  10.683  19.054  0.00  0.00    +0.000 A 
ATOM      5  C   UNL     1       0.763   9.618  19.731  0.00  0.00    +0.000 A 
ATOM      6  C   UNL     1       1.390   8.390  19.750  0.00  0.00    +0.000 A 
ATOM      7  N   UNL     1      -0.638   9.776  19.587  0.00  0.00    +0.000 N 
ATOM      8  C   UNL     1      -0.896  11.031  18.912  0.00  0.00    +0.000 C 
ATOM      9  O   UNL     1      -1.914  11.333  18.335  0.00  0.00    +0.000 OA
ATOM     10  C   UNL     1       0.344  11.861  19.257  0.00  0.00    +0.000 C 
ATOM     11  C   UNL     1       0.927  13.129  18.638  0.00  0.00    +0.000 C 
ATOM     12  C   UNL     1       1.883  13.883  19.606  0.00  0.00    +0.000 C 
ATOM     13  N   UNL     1       1.408  14.096  20.996  0.00  0.00    +0.000 NA
ATOM     14  C   UNL     1       0.793  12.898  21.615  0.00  0.00    +0.000 C 
ATOM     15  C   UNL     1      -0.211  12.300  20.667  0.00  0.00    +0.000 C 
ATOM     16  H   UNL     1      -1.297   9.005  19.590  0.00  0.00    +0.000 HD
ENDROOT
BRANCH   1  22
ATOM     17  C   UNL     1       4.657   5.369  17.433  0.00  0.00    +0.000 A 
ATOM     18  C   UNL     1       4.428   4.317  18.315  0.00  0.00    +0.000 A 
ATOM     19  C   UNL     1       3.516   4.465  19.353  0.00  0.00    +0.000 A 
ATOM     20  C   UNL     1       2.784   5.658  19.529  0.00  0.00    +0.000 A 
ATOM     21  C   UNL     1       1.754   5.633  20.636  0.00  0.00    +0.000 C 
ATOM     22  C   UNL     1       3.007   6.762  18.657  0.00  0.00    +0.000 A 
ATOM     23  C   UNL     1       3.968   6.572  17.633  0.00  0.00    +0.000 A 
BRANCH  17  28
ATOM     24  C   UNL     1       6.516   3.853  13.102  0.00  0.00    +0.000 C 
ATOM     25  C   UNL     1       6.395   4.582  14.379  0.00  0.00    +0.000 A 
ATOM     26  N   UNL     1       7.232   5.449  14.903  0.00  0.00    +0.000 NA
ATOM     27  N   UNL     1       6.715   5.853  16.115  0.00  0.00    +0.000 NA
ATOM     28  C   UNL     1       5.557   5.244  16.296  0.00  0.00    +0.000 A 
ATOM     29  N   UNL     1       5.339   4.422  15.221  0.00  0.00    +0.000 N 
ATOM     30  H   UNL     1       4.553   3.799  15.103  0.00  0.00    +0.000 HD
ENDBRANCH  17  28
ENDBRANCH   1  22
BRANCH  13  31
ATOM     31  S   UNL     1       0.787  15.619  21.401  0.00  0.00    +0.000 S 
ATOM     32  C   UNL     1       1.746  16.781  20.405  0.00  0.00    +0.000 C 
ATOM     33  O   UNL     1      -0.562  15.684  20.897  0.00  0.00    +0.000 OA
ATOM     34  O   UNL     1       1.095  15.867  22.775  0.00  0.00    +0.000 OA
ENDBRANCH  13  31
TORSDOF 3
ENDMDL
MODEL 3
REMARK VINA RESULT:      -8.7      2.424      3.817
REMARK  Name = 
REMARK  6 active torsions:
REMARK  status: ('A' for Active; 'I' for Inactive)
REMARK    1  A    between atoms: C_1  and  C_2
REMARK    2  A    between atoms: C_5  and  C_6
REMARK    3  A    between atoms: C_9  and  C_10
REMARK    4  A    between atoms: C_11  and  C_12
REMARK    5  A    between atoms: N_24  and  S_25
REMARK    6  A    between atoms: S_25  and  C_26
REMARK                            x       y       z     vdW  Elec       q    Type
REMARK                         _______ _______ _______ _____ _____    ______ ____
ROOT
ATOM      1  C   UNL     1       2.598   7.403  18.805  0.00  0.00    +0.000 A 
ATOM      2  C   UNL     1       2.113   7.859  20.042  0.00  0.00    +0.000 A 
ATOM      3  C   UNL     1       1.022   8.733  20.118  0.00  0.00    +0.000 A 
ATOM      4  C   UNL     1       0.512   9.311  18.943  0.00  0.00    +0.000 A 
ATOM      5  C   UNL     1       1.411   9.288  17.911  0.00  0.00    +0.000 A 
ATOM      6  C   UNL     1       2.250   8.213  17.707  0.00  0.00    +0.000 A 
ATOM      7  N   UNL     1       1.826  10.637  17.782  0.00  0.00    +0.000 N 
ATOM      8  C   UNL     1       1.046  11.451  18.690  0.00  0.00    +0.000 C 
ATOM      9  O   UNL     1       1.340  12.555  19.089  0.00  0.00    +0.000 OA
ATOM     10  C   UNL     1      -0.239  10.636  18.855  0.00  0.00    +0.000 C 
ATOM     11  C   UNL     1      -1.353  10.688  19.898  0.00  0.00    +0.000 C 
ATOM     12  C   UNL     1      -2.674  10.039  19.396  0.00  0.00    +0.000 C 
ATOM     13  N   UNL     1      -3.146  10.424  18.043  0.00  0.00    +0.000 NA
ATOM     14  C   UNL     1      -2.082  10.430  17.011  0.00  0.00    +0.000 C 
ATOM     15  C   UNL     1      -0.886  11.185  17.525  0.00  0.00    +0.000 C 
ATOM     16  H   UNL     1       2.736  10.918  17.432  0.00  0.00    +0.000 HD
ENDROOT
BRANCH   1  22
ATOM     17  C   UNL     1       5.091   4.969  17.251  0.00  0.00    +0.000 A 
ATOM     18  C   UNL     1       4.996   3.862  18.090  0.00  0.00    +0.000 A 
ATOM     19  C   UNL     1       4.155   3.896  19.195  0.00  0.00    +0.000 A 
ATOM     20  C   UNL     1       3.360   5.025  19.484  0.00  0.00    +0.000 A 
ATOM     21  C   UNL     1       2.417   4.875  20.657  0.00  0.00    +0.000 C 
ATOM     22  C   UNL     1       3.445   6.183  18.659  0.00  0.00    +0.000 A 
ATOM     23  C   UNL     1       4.340   6.109  17.562  0.00  0.00    +0.000 A 
BRANCH  17  28
ATOM     24  C   UNL     1       6.655   3.891  12.679  0.00  0.00    +0.000 C 
ATOM     25  C   UNL     1       6.619   4.494  14.025  0.00  0.00    +0.000 A 
ATOM     26  N   UNL     1       7.487   5.314  14.572  0.00  0.00    +0.000 NA
ATOM     27  N   UNL     1       7.052   5.596  15.849  0.00  0.00    +0.000 NA
ATOM     28  C   UNL     1       5.911   4.962  16.049  0.00  0.00    +0.000 A 
ATOM     29  N   UNL     1       5.623   4.244  14.917  0.00  0.00    +0.000 N 
ATOM     30  H   UNL     1       4.833   3.627  14.793  0.00  0.00    +0.000 HD
ENDBRANCH  17  28
ENDBRANCH   1  22
BRANCH  13  31
ATOM     31  S   UNL     1      -4.384  11.574  17.928  0.00  0.00    +0.000 S 
ATOM     32  C   UNL     1      -5.879  10.685  18.414  0.00  0.00    +0.000 C 
ATOM     33  O   UNL     1      -4.156  12.560  18.954  0.00  0.00    +0.000 OA
ATOM     34  O   UNL     1      -4.522  11.934  16.551  0.00  0.00    +0.000 OA
ENDBRANCH  13  31
TORSDOF 3
ENDMDL
MODEL 4
REMARK VINA RESULT:      -8.7      2.140      3.075
REMARK  Name = 
REMARK  6 active torsions:
REMARK  status: ('A' for Active; 'I' for Inactive)
REMARK    1  A    between atoms: C_1  and  C_2
REMARK    2  A    between atoms: C_5  and  C_6
REMARK    3  A    between atoms: C_9  and  C_10
REMARK    4  A    between atoms: C_11  and  C_12
REMARK    5  A    between atoms: N_24  and  S_25
REMARK    6  A    between atoms: S_25  and  C_26
REMARK                            x       y       z     vdW  Elec       q    Type
REMARK                         _______ _______ _______ _____ _____    ______ ____
ROOT
ATOM      1  C   UNL     1       2.368   7.450  18.760  0.00  0.00    +0.000 A 
ATOM      2  C   UNL     1       2.479   7.954  20.067  0.00  0.00    +0.000 A 
ATOM      3  C   UNL     1       1.688   9.024  20.503  0.00  0.00    +0.000 A 
ATOM      4  C   UNL     1       0.900   9.727  19.576  0.00  0.00    +0.000 A 
ATOM      5  C   UNL     1       1.325   9.559  18.286  0.00  0.00    +0.000 A 
ATOM      6  C   UNL     1       1.801   8.346  17.835  0.00  0.00    +0.000 A 
ATOM      7  N   UNL     1       1.917  10.803  17.951  0.00  0.00    +0.000 N 
ATOM      8  C   UNL     1       1.707  11.726  19.045  0.00  0.00    +0.000 C 
ATOM      9  O   UNL     1       2.337  12.737  19.256  0.00  0.00    +0.000 OA
ATOM     10  C   UNL     1       0.443  11.176  19.714  0.00  0.00    +0.000 C 
ATOM     11  C   UNL     1      -0.168  11.416  21.092  0.00  0.00    +0.000 C 
ATOM     12  C   UNL     1      -1.680  11.057  21.146  0.00  0.00    +0.000 C 
ATOM     13  N   UNL     1      -2.537  11.569  20.049  0.00  0.00    +0.000 NA
ATOM     14  C   UNL     1      -1.956  11.396  18.696  0.00  0.00    +0.000 C 
ATOM     15  C   UNL     1      -0.532  11.883  18.694  0.00  0.00    +0.000 C 
ATOM     16  H   UNL     1       2.667  10.908  17.275  0.00  0.00    +0.000 HD
ENDROOT
BRANCH   1  22
ATOM     17  C   UNL     1       4.354   4.780  16.895  0.00  0.00    +0.000 A 
ATOM     18  C   UNL     1       3.761   3.599  17.334  0.00  0.00    +0.000 A 
ATOM     19  C   UNL     1       2.735   3.641  18.269  0.00  0.00    +0.000 A 
ATOM     20  C   UNL     1       2.248   4.865  18.778  0.00  0.00    +0.000 A 
ATOM     21  C   UNL     1       1.060   4.757  19.707  0.00  0.00    +0.000 C 
ATOM     22  C   UNL     1       2.845   6.091  18.366  0.00  0.00    +0.000 A 
ATOM     23  C   UNL     1       3.907   5.992  17.433  0.00  0.00    +0.000 A 
BRANCH  17  28
ATOM     24  C   UNL     1       6.705   3.907  12.627  0.00  0.00    +0.000 C 
ATOM     25  C   UNL     1       6.447   4.414  13.987  0.00  0.00    +0.000 A 
ATOM     26  N   UNL     1       7.243   5.122  14.756  0.00  0.00    +0.000 NA
ATOM     27  N   UNL     1       6.587   5.346  15.947  0.00  0.00    +0.000 NA
ATOM     28  C   UNL     1       5.390   4.792  15.874  0.00  0.00    +0.000 A 
ATOM     29  N   UNL     1       5.283   4.181  14.651  0.00  0.00    +0.000 N 
ATOM     30  H   UNL     1       4.494   3.639  14.328  0.00  0.00    +0.000 HD
ENDBRANCH  17  28
ENDBRANCH   1  22
BRANCH  13  31
ATOM     31  S   UNL     1      -3.479  12.945  20.350  0.00  0.00    +0.000 S 
ATOM     32  C   UNL     1      -4.079  12.726  22.039  0.00  0.00    +0.000 C 
ATOM     33  O   UNL     1      -2.590  14.078  20.388  0.00  0.00    +0.000 OA
ATOM     34  O   UNL     1      -4.612  12.900  19.478  0.00  0.00    +0.000 OA
ENDBRANCH  13  31
TORSDOF 3
ENDMDL
MODEL 5
REMARK VINA RESULT:      -8.2      0.869      1.100
REMARK  Name = 
REMARK  6 active torsions:
REMARK  status: ('A' for Active; 'I' for Inactive)
REMARK    1  A    between atoms: C_1  and  C_2
REMARK    2  A    between atoms: C_5  and  C_6
REMARK    3  A    between atoms: C_9  and  C_10
REMARK    4  A    between atoms: C_11  and  C_12
REMARK    5  A    between atoms: N_24  and  S_25
REMARK    6  A    between atoms: S_25  and  C_26
REMARK                            x       y       z     vdW  Elec       q    Type
REMARK                         _______ _______ _______ _____ _____    ______ ____
ROOT
ATOM      1  C   UNL     1       2.287   7.558  18.845  0.00  0.00    +0.000 A 
ATOM      2  C   UNL     1       1.994   8.274  17.673  0.00  0.00    +0.000 A 
ATOM      3  C   UNL     1       1.701   9.643  17.712  0.00  0.00    +0.000 A 
ATOM      4  C   UNL     1       1.517  10.279  18.952  0.00  0.00    +0.000 A 
ATOM      5  C   UNL     1       1.222   9.398  19.957  0.00  0.00    +0.000 A 
ATOM      6  C   UNL     1       1.818   8.157  20.028  0.00  0.00    +0.000 A 
ATOM      7  N   UNL     1      -0.153   9.619  20.221  0.00  0.00    +0.000 N 
ATOM      8  C   UNL     1      -0.605  10.738  19.420  0.00  0.00    +0.000 C 
ATOM      9  O   UNL     1      -1.752  10.992  19.134  0.00  0.00    +0.000 OA
ATOM     10  C   UNL     1       0.684  11.533  19.195  0.00  0.00    +0.000 C 
ATOM     11  C   UNL     1       1.049  12.620  18.186  0.00  0.00    +0.000 C 
ATOM     12  C   UNL     1       2.262  13.478  18.643  0.00  0.00    +0.000 C 
ATOM     13  N   UNL     1       2.249  13.981  20.039  0.00  0.00    +0.000 NA
ATOM     14  C   UNL     1       1.854  12.966  21.044  0.00  0.00    +0.000 C 
ATOM     15  C   UNL     1       0.601  12.268  20.589  0.00  0.00    +0.000 C 
ATOM     16  H   UNL     1      -0.781   8.908  20.580  0.00  0.00    +0.000 HD
ENDROOT
BRANCH   1  22
ATOM     17  C   UNL     1       4.512   4.722  17.593  0.00  0.00    +0.000 A 
ATOM     18  C   UNL     1       4.306   3.731  18.549  0.00  0.00    +0.000 A 
ATOM     19  C   UNL     1       3.476   3.974  19.636  0.00  0.00    +0.000 A 
ATOM     20  C   UNL     1       2.802   5.204  19.791  0.00  0.00    +0.000 A 
ATOM     21  C   UNL     1       1.852   5.283  20.965  0.00  0.00    +0.000 C 
ATOM     22  C   UNL     1       3.004   6.248  18.843  0.00  0.00    +0.000 A 
ATOM     23  C   UNL     1       3.883   5.961  17.769  0.00  0.00    +0.000 A 
BRANCH  17  28
ATOM     24  C   UNL     1       7.659   5.569  13.867  0.00  0.00    +0.000 C 
ATOM     25  C   UNL     1       6.716   4.856  14.749  0.00  0.00    +0.000 A 
ATOM     26  N   UNL     1       6.292   3.616  14.653  0.00  0.00    +0.000 NA
ATOM     27  N   UNL     1       5.405   3.395  15.684  0.00  0.00    +0.000 NA
ATOM     28  C   UNL     1       5.324   4.497  16.407  0.00  0.00    +0.000 A 
ATOM     29  N   UNL     1       6.130   5.442  15.827  0.00  0.00    +0.000 N 
ATOM     30  H   UNL     1       6.237   6.398  16.136  0.00  0.00    +0.000 HD
ENDBRANCH  17  28
ENDBRANCH   1  22
BRANCH  13  31
ATOM     31  S   UNL     1       1.792  15.592  20.300  0.00  0.00    +0.000 S 
ATOM     32  C   UNL     1       3.207  16.563  19.740  0.00  0.00    +0.000 C 
ATOM     33  O   UNL     1       0.718  15.891  19.387  0.00  0.00    +0.000 OA
ATOM     34  O   UNL     1       1.662  15.787  21.711  0.00  0.00    +0.000 OA
ENDBRANCH  13  31
TORSDOF 3
ENDMDL
MODEL 6
REMARK VINA RESULT:      -8.0      3.268      4.809
REMARK  Name = 
REMARK  6 active torsions:
REMARK  status: ('A' for Active; 'I' for Inactive)
REMARK    1  A    between atoms: C_1  and  C_2
REMARK    2  A    between atoms: C_5  and  C_6
REMARK    3  A    between atoms: C_9  and  C_10
REMARK    4  A    between atoms: C_11  and  C_12
REMARK    5  A    between atoms: N_24  and  S_25
REMARK    6  A    between atoms: S_25  and  C_26
REMARK                            x       y       z     vdW  Elec       q    Type
REMARK                         _______ _______ _______ _____ _____    ______ ____
ROOT
ATOM      1  C   UNL     1       0.380  10.004  20.028  0.00  0.00    +0.000 A 
ATOM      2  C   UNL     1      -0.892  10.365  19.552  0.00  0.00    +0.000 A 
ATOM      3  C   UNL     1      -1.555  11.498  20.038  0.00  0.00    +0.000 A 
ATOM      4  C   UNL     1      -1.031  12.188  21.145  0.00  0.00    +0.000 A 
ATOM      5  C   UNL     1      -0.169  11.424  21.884  0.00  0.00    +0.000 A 
ATOM      6  C   UNL     1       0.706  10.541  21.287  0.00  0.00    +0.000 A 
ATOM      7  N   UNL     1      -0.895  11.125  23.064  0.00  0.00    +0.000 N 
ATOM      8  C   UNL     1      -2.151  11.844  23.031  0.00  0.00    +0.000 C 
ATOM      9  O   UNL     1      -3.138  11.583  23.679  0.00  0.00    +0.000 OA
ATOM     10  C   UNL     1      -1.832  13.038  22.126  0.00  0.00    +0.000 C 
ATOM     11  C   UNL     1      -2.732  14.016  21.375  0.00  0.00    +0.000 C 
ATOM     12  C   UNL     1      -2.002  15.339  21.008  0.00  0.00    +0.000 C 
ATOM     13  N   UNL     1      -1.216  15.999  22.079  0.00  0.00    +0.000 NA
ATOM     14  C   UNL     1      -0.363  15.073  22.862  0.00  0.00    +0.000 C 
ATOM     15  C   UNL     1      -1.176  13.880  23.288  0.00  0.00    +0.000 C 
ATOM     16  H   UNL     1      -0.752  10.287  23.618  0.00  0.00    +0.000 HD
ENDROOT
BRANCH   1  22
ATOM     17  C   UNL     1       2.368   6.856  19.200  0.00  0.00    +0.000 A 
ATOM     18  C   UNL     1       3.159   7.269  18.131  0.00  0.00    +0.000 A 
ATOM     19  C   UNL     1       3.037   8.560  17.633  0.00  0.00    +0.000 A 
ATOM     20  C   UNL     1       2.141   9.490  18.203  0.00  0.00    +0.000 A 
ATOM     21  C   UNL     1       2.195  10.885  17.623  0.00  0.00    +0.000 C 
ATOM     22  C   UNL     1       1.302   9.096  19.284  0.00  0.00    +0.000 A 
ATOM     23  C   UNL     1       1.444   7.760  19.736  0.00  0.00    +0.000 A 
BRANCH  17  28
ATOM     24  C   UNL     1       1.277   2.771  21.776  0.00  0.00    +0.000 C 
ATOM     25  C   UNL     1       2.033   3.717  20.934  0.00  0.00    +0.000 A 
ATOM     26  N   UNL     1       3.240   3.576  20.434  0.00  0.00    +0.000 NA
ATOM     27  N   UNL     1       3.541   4.723  19.732  0.00  0.00    +0.000 NA
ATOM     28  C   UNL     1       2.501   5.535  19.796  0.00  0.00    +0.000 A 
ATOM     29  N   UNL     1       1.540   4.929  20.564  0.00  0.00    +0.000 N 
ATOM     30  H   UNL     1       0.650   5.331  20.823  0.00  0.00    +0.000 HD
ENDBRANCH  17  28
ENDBRANCH   1  22
BRANCH  13  31
ATOM     31  S   UNL     1      -1.911  17.321  22.878  0.00  0.00    +0.000 S 
ATOM     32  C   UNL     1      -0.956  17.486  24.402  0.00  0.00    +0.000 C 
ATOM     33  O   UNL     1      -1.622  18.499  22.099  0.00  0.00    +0.000 OA
ATOM     34  O   UNL     1      -3.247  16.962  23.240  0.00  0.00    +0.000 OA
ENDBRANCH  13  31
TORSDOF 3
ENDMDL
MODEL 7
REMARK VINA RESULT:      -7.9      2.399      3.328
REMARK  Name = 
REMARK  6 active torsions:
REMARK  status: ('A' for Active; 'I' for Inactive)
REMARK    1  A    between atoms: C_1  and  C_2
REMARK    2  A    between atoms: C_5  and  C_6
REMARK    3  A    between atoms: C_9  and  C_10
REMARK    4  A    between atoms: C_11  and  C_12
REMARK    5  A    between atoms: N_24  and  S_25
REMARK    6  A    between atoms: S_25  and  C_26
REMARK                            x       y       z     vdW  Elec       q    Type
REMARK                         _______ _______ _______ _____ _____    ______ ____
ROOT
ATOM      1  C   UNL     1       1.901   7.995  19.819  0.00  0.00    +0.000 A 
ATOM      2  C   UNL     1       1.895   8.339  21.181  0.00  0.00    +0.000 A 
ATOM      3  C   UNL     1       1.129   9.410  21.658  0.00  0.00    +0.000 A 
ATOM      4  C   UNL     1       0.497  10.272  20.745  0.00  0.00    +0.000 A 
ATOM      5  C   UNL     1       1.054  10.218  19.496  0.00  0.00    +0.000 A 
ATOM      6  C   UNL     1       1.500   9.030  18.954  0.00  0.00    +0.000 A 
ATOM      7  N   UNL     1       1.757  11.443  19.376  0.00  0.00    +0.000 N 
ATOM      8  C   UNL     1       1.484  12.251  20.546  0.00  0.00    +0.000 C 
ATOM      9  O   UNL     1       2.149  13.180  20.941  0.00  0.00    +0.000 OA
ATOM     10  C   UNL     1       0.121  11.726  21.007  0.00  0.00    +0.000 C 
ATOM     11  C   UNL     1      -0.626  11.855  22.332  0.00  0.00    +0.000 C 
ATOM     12  C   UNL     1      -2.154  11.608  22.185  0.00  0.00    +0.000 C 
ATOM     13  N   UNL     1      -2.848  12.304  21.073  0.00  0.00    +0.000 NA
ATOM     14  C   UNL     1      -2.130  12.241  19.778  0.00  0.00    +0.000 C 
ATOM     15  C   UNL     1      -0.687  12.616  19.984  0.00  0.00    +0.000 C 
ATOM     16  H   UNL     1       2.583  11.566  18.800  0.00  0.00    +0.000 HD
ENDROOT
BRANCH   1  22
ATOM     17  C   UNL     1       3.687   5.419  17.645  0.00  0.00    +0.000 A 
ATOM     18  C   UNL     1       3.134   4.218  18.082  0.00  0.00    +0.000 A 
ATOM     19  C   UNL     1       2.203   4.215  19.113  0.00  0.00    +0.000 A 
ATOM     20  C   UNL     1       1.773   5.413  19.724  0.00  0.00    +0.000 A 
ATOM     21  C   UNL     1       0.679   5.260  20.758  0.00  0.00    +0.000 C 
ATOM     22  C   UNL     1       2.332   6.657  19.316  0.00  0.00    +0.000 A 
ATOM     23  C   UNL     1       3.299   6.604  18.281  0.00  0.00    +0.000 A 
BRANCH  17  28
ATOM     24  C   UNL     1       6.451   3.995  13.793  0.00  0.00    +0.000 C 
ATOM     25  C   UNL     1       5.852   4.866  14.821  0.00  0.00    +0.000 A 
ATOM     26  N   UNL     1       6.063   6.147  15.026  0.00  0.00    +0.000 NA
ATOM     27  N   UNL     1       5.303   6.531  16.109  0.00  0.00    +0.000 NA
ATOM     28  C   UNL     1       4.620   5.481  16.530  0.00  0.00    +0.000 A 
ATOM     29  N   UNL     1       4.962   4.412  15.743  0.00  0.00    +0.000 N 
ATOM     30  H   UNL     1       4.630   3.465  15.856  0.00  0.00    +0.000 HD
ENDBRANCH  17  28
ENDBRANCH   1  22
BRANCH  13  31
ATOM     31  S   UNL     1      -3.729  13.705  21.437  0.00  0.00    +0.000 S 
ATOM     32  C   UNL     1      -5.377  13.393  20.768  0.00  0.00    +0.000 C 
ATOM     33  O   UNL     1      -3.885  13.759  22.869  0.00  0.00    +0.000 OA
ATOM     34  O   UNL     1      -3.158  14.787  20.696  0.00  0.00    +0.000 OA
ENDBRANCH  13  31
TORSDOF 3
ENDMDL
MODEL 8
REMARK VINA RESULT:      -7.9      6.690      9.054
REMARK  Name = 
REMARK  6 active torsions:
REMARK  status: ('A' for Active; 'I' for Inactive)
REMARK    1  A    between atoms: C_1  and  C_2
REMARK    2  A    between atoms: C_5  and  C_6
REMARK    3  A    between atoms: C_9  and  C_10
REMARK    4  A    between atoms: C_11  and  C_12
REMARK    5  A    between atoms: N_24  and  S_25
REMARK    6  A    between atoms: S_25  and  C_26
REMARK                            x       y       z     vdW  Elec       q    Type
REMARK                         _______ _______ _______ _____ _____    ______ ____
ROOT
ATOM      1  C   UNL     1       2.473  14.671  19.398  0.00  0.00    +0.000 A 
ATOM      2  C   UNL     1       2.944  14.947  18.104  0.00  0.00    +0.000 A 
ATOM      3  C   UNL     1       4.315  14.952  17.815  0.00  0.00    +0.000 A 
ATOM      4  C   UNL     1       5.245  14.860  18.864  0.00  0.00    +0.000 A 
ATOM      5  C   UNL     1       4.712  15.208  20.076  0.00  0.00    +0.000 A 
ATOM      6  C   UNL     1       3.420  14.870  20.420  0.00  0.00    +0.000 A 
ATOM      7  N   UNL     1       5.290  16.470  20.360  0.00  0.00    +0.000 N 
ATOM      8  C   UNL     1       6.263  16.776  19.333  0.00  0.00    +0.000 C 
ATOM      9  O   UNL     1       6.695  17.874  19.065  0.00  0.00    +0.000 OA
ATOM     10  C   UNL     1       6.676  15.388  18.835  0.00  0.00    +0.000 C 
ATOM     11  C   UNL     1       7.389  14.931  17.564  0.00  0.00    +0.000 C 
ATOM     12  C   UNL     1       8.035  13.525  17.714  0.00  0.00    +0.000 C 
ATOM     13  N   UNL     1       8.839  13.276  18.936  0.00  0.00    +0.000 NA
ATOM     14  C   UNL     1       8.200  13.749  20.187  0.00  0.00    +0.000 C 
ATOM     15  C   UNL     1       7.714  15.161  20.002  0.00  0.00    +0.000 C 
ATOM     16  H   UNL     1       4.841  17.183  20.926  0.00  0.00    +0.000 HD
ENDROOT
BRANCH   1  22
ATOM     17  C   UNL     1      -0.809  12.765  19.007  0.00  0.00    +0.000 A 
ATOM     18  C   UNL     1      -1.639  13.400  19.927  0.00  0.00    +0.000 A 
ATOM     19  C   UNL     1      -1.144  14.429  20.718  0.00  0.00    +0.000 A 
ATOM     20  C   UNL     1       0.189  14.877  20.598  0.00  0.00    +0.000 A 
ATOM     21  C   UNL     1       0.553  16.073  21.449  0.00  0.00    +0.000 C 
ATOM     22  C   UNL     1       1.072  14.238  19.682  0.00  0.00    +0.000 A 
ATOM     23  C   UNL     1       0.527  13.174  18.920  0.00  0.00    +0.000 A 
BRANCH  17  28
ATOM     24  C   UNL     1      -3.039  10.586  15.162  0.00  0.00    +0.000 C 
ATOM     25  C   UNL     1      -2.280  10.742  16.417  0.00  0.00    +0.000 A 
ATOM     26  N   UNL     1      -1.774   9.802  17.184  0.00  0.00    +0.000 NA
ATOM     27  N   UNL     1      -1.170  10.417  18.259  0.00  0.00    +0.000 NA
ATOM     28  C   UNL     1      -1.295  11.724  18.115  0.00  0.00    +0.000 A 
ATOM     29  N   UNL     1      -2.008  11.955  16.967  0.00  0.00    +0.000 N 
ATOM     30  H   UNL     1      -2.295  12.860  16.622  0.00  0.00    +0.000 HD
ENDBRANCH  17  28
ENDBRANCH   1  22
BRANCH  13  31
ATOM     31  S   UNL     1      10.526  13.365  18.811  0.00  0.00    +0.000 S 
ATOM     32  C   UNL     1      11.003  11.837  17.976  0.00  0.00    +0.000 C 
ATOM     33  O   UNL     1      10.837  14.433  17.894  0.00  0.00    +0.000 OA
ATOM     34  O   UNL     1      11.066  13.323  20.134  0.00  0.00    +0.000 OA
ENDBRANCH  13  31
TORSDOF 3
ENDMDL
MODEL 9
REMARK VINA RESULT:      -7.8      6.314      9.763
REMARK  Name = 
REMARK  6 active torsions:
REMARK  status: ('A' for Active; 'I' for Inactive)
REMARK    1  A    between atoms: C_1  and  C_2
REMARK    2  A    between atoms: C_5  and  C_6
REMARK    3  A    between atoms: C_9  and  C_10
REMARK    4  A    between atoms: C_11  and  C_12
REMARK    5  A    between atoms: N_24  and  S_25
REMARK    6  A    between atoms: S_25  and  C_26
REMARK                            x       y       z     vdW  Elec       q    Type
REMARK                         _______ _______ _______ _____ _____    ______ ____
ROOT
ATOM      1  C   UNL     1       3.370  15.183  19.358  0.00  0.00    +0.000 A 
ATOM      2  C   UNL     1       3.872  15.038  18.055  0.00  0.00    +0.000 A 
ATOM      3  C   UNL     1       5.239  14.841  17.820  0.00  0.00    +0.000 A 
ATOM      4  C   UNL     1       6.151  14.969  18.881  0.00  0.00    +0.000 A 
ATOM      5  C   UNL     1       5.646  15.692  19.927  0.00  0.00    +0.000 A 
ATOM      6  C   UNL     1       4.326  15.581  20.312  0.00  0.00    +0.000 A 
ATOM      7  N   UNL     1       6.337  16.928  19.862  0.00  0.00    +0.000 N 
ATOM      8  C   UNL     1       7.340  16.843  18.821  0.00  0.00    +0.000 C 
ATOM      9  O   UNL     1       7.874  17.777  18.268  0.00  0.00    +0.000 OA
ATOM     10  C   UNL     1       7.625  15.340  18.749  0.00  0.00    +0.000 C 
ATOM     11  C   UNL     1       8.299  14.481  17.682  0.00  0.00    +0.000 C 
ATOM     12  C   UNL     1       8.811  13.124  18.243  0.00  0.00    +0.000 C 
ATOM     13  N   UNL     1       9.582  13.163  19.510  0.00  0.00    +0.000 NA
ATOM     14  C   UNL     1       8.983  14.026  20.556  0.00  0.00    +0.000 C 
ATOM     15  C   UNL     1       8.631  15.364  19.965  0.00  0.00    +0.000 C 
ATOM     16  H   UNL     1       5.953  17.809  20.188  0.00  0.00    +0.000 HD
ENDROOT
BRANCH   1  22
ATOM     17  C   UNL     1       0.267  13.470  20.768  0.00  0.00    +0.000 A 
ATOM     18  C   UNL     1      -0.764  14.284  20.308  0.00  0.00    +0.000 A 
ATOM     19  C   UNL     1      -0.474  15.423  19.566  0.00  0.00    +0.000 A 
ATOM     20  C   UNL     1       0.853  15.772  19.237  0.00  0.00    +0.000 A 
ATOM     21  C   UNL     1       1.005  16.977  18.337  0.00  0.00    +0.000 C 
ATOM     22  C   UNL     1       1.934  14.973  19.708  0.00  0.00    +0.000 A 
ATOM     23  C   UNL     1       1.587  13.839  20.485  0.00  0.00    +0.000 A 
BRANCH  17  28
ATOM     24  C   UNL     1      -0.227   8.639  21.728  0.00  0.00    +0.000 C 
ATOM     25  C   UNL     1      -0.211  10.098  21.939  0.00  0.00    +0.000 A 
ATOM     26  N   UNL     1      -0.486  10.764  23.038  0.00  0.00    +0.000 NA
ATOM     27  N   UNL     1      -0.362  12.108  22.757  0.00  0.00    +0.000 NA
ATOM     28  C   UNL     1       0.013  12.236  21.497  0.00  0.00    +0.000 A 
ATOM     29  N   UNL     1       0.098  10.981  20.952  0.00  0.00    +0.000 N 
ATOM     30  H   UNL     1       0.322  10.768  19.990  0.00  0.00    +0.000 HD
ENDBRANCH  17  28
ENDBRANCH   1  22
BRANCH  13  31
ATOM     31  S   UNL     1      11.271  13.065  19.419  0.00  0.00    +0.000 S 
ATOM     32  C   UNL     1      11.607  12.574  17.714  0.00  0.00    +0.000 C 
ATOM     33  O   UNL     1      11.790  14.403  19.557  0.00  0.00    +0.000 OA
ATOM     34  O   UNL     1      11.695  11.997  20.270  0.00  0.00    +0.000 OA
ENDBRANCH  13  31
TORSDOF 3
ENDMDL
