MODEL 1
REMARK VINA RESULT:      -7.3      0.000      0.000
REMARK  Name = 
REMARK  5 active torsions:
REMARK  status: ('A' for Active; 'I' for Inactive)
REMARK    1  A    between atoms: C_1  and  C_2
REMARK    2  A    between atoms: C_2  and  C_3
REMARK    3  A    between atoms: C_2  and  C_4
REMARK    4  A    between atoms: C_7  and  N_8
REMARK    5  A    between atoms: C_18  and  C_19
REMARK                            x       y       z     vdW  Elec       q    Type
REMARK                         _______ _______ _______ _____ _____    ______ ____
ROOT
ATOM      1  N   UNL     1       2.266   7.998  18.876  0.00  0.00    +0.000 N 
ATOM      2  C   UNL     1       1.834   9.203  18.365  0.00  0.00    +0.000 C 
ATOM      3  O   UNL     1       2.036   9.580  17.212  0.00  0.00    +0.000 OA
ATOM      4  N   UNL     1       1.065   9.969  19.226  0.00  0.00    +0.000 N 
ATOM      5  C   UNL     1       0.420  11.172  18.688  0.00  0.00    +0.000 C 
ATOM      6  C   UNL     1      -1.035  11.292  19.170  0.00  0.00    +0.000 C 
ATOM      7  N   UNL     1      -1.099  11.172  20.631  0.00  0.00    +0.000 N 
ATOM      8  C   UNL     1      -1.774  12.060  21.430  0.00  0.00    +0.000 A 
ATOM      9  C   UNL     1      -2.840  12.851  20.975  0.00  0.00    +0.000 A 
ATOM     10  N   UNL     1      -3.524  13.747  21.736  0.00  0.00    +0.000 NA
ATOM     11  C   UNL     1      -3.096  13.845  23.013  0.00  0.00    +0.000 A 
ATOM     12  C   UNL     1      -2.045  13.088  23.491  0.00  0.00    +0.000 A 
ATOM     13  N   UNL     1      -1.383  12.188  22.720  0.00  0.00    +0.000 NA
ATOM     14  C   UNL     1      -0.398  10.029  21.235  0.00  0.00    +0.000 C 
ATOM     15  C   UNL     1       1.037   9.899  20.692  0.00  0.00    +0.000 C 
ATOM     16  H   UNL     1       1.774   7.657  19.683  0.00  0.00    +0.000 HD
ENDROOT
BRANCH   1  20
ATOM     17  C   UNL     1       4.681   5.148  16.848  0.00  0.00    +0.000 A 
ATOM     18  C   UNL     1       3.498   4.745  17.479  0.00  0.00    +0.000 A 
ATOM     19  C   UNL     1       2.675   5.677  18.123  0.00  0.00    +0.000 A 
ATOM     20  C   UNL     1       3.015   7.029  18.167  0.00  0.00    +0.000 A 
ATOM     21  C   UNL     1       4.169   7.445  17.494  0.00  0.00    +0.000 A 
ATOM     22  C   UNL     1       4.994   6.514  16.850  0.00  0.00    +0.000 A 
BRANCH  17  24
ATOM     23  C   UNL     1       5.456   4.160  14.659  0.00  0.00    +0.000 C 
ATOM     24  C   UNL     1       5.583   4.119  16.183  0.00  0.00    +0.000 C 
ATOM     25  C   UNL     1       7.050   4.291  16.591  0.00  0.00    +0.000 C 
ENDBRANCH  17  24
ENDBRANCH   1  20
BRANCH  11  26
ATOM     26  C   UNL     1      -3.789  14.759  23.864  0.00  0.00    +0.000 C 
ATOM     27  N   UNL     1      -4.393  15.492  24.535  0.00  0.00    +0.000 NA
ENDBRANCH  11  26
TORSDOF 3
ENDMDL
MODEL 2
REMARK VINA RESULT:      -7.2      2.911     10.477
REMARK  Name = 
REMARK  5 active torsions:
REMARK  status: ('A' for Active; 'I' for Inactive)
REMARK    1  A    between atoms: C_1  and  C_2
REMARK    2  A    between atoms: C_2  and  C_3
REMARK    3  A    between atoms: C_2  and  C_4
REMARK    4  A    between atoms: C_7  and  N_8
REMARK    5  A    between atoms: C_18  and  C_19
REMARK                            x       y       z     vdW  Elec       q    Type
REMARK                         _______ _______ _______ _____ _____    ______ ____
ROOT
ATOM      1  N   UNL     1      -1.151  10.623  18.889  0.00  0.00    +0.000 N 
ATOM      2  C   UNL     1      -0.400  10.117  19.928  0.00  0.00    +0.000 C 
ATOM      3  O   UNL     1      -0.700  10.224  21.116  0.00  0.00    +0.000 OA
ATOM      4  N   UNL     1       0.717   9.388  19.552  0.00  0.00    +0.000 N 
ATOM      5  C   UNL     1       1.454   8.669  20.598  0.00  0.00    +0.000 C 
ATOM      6  C   UNL     1       1.829   7.248  20.142  0.00  0.00    +0.000 C 
ATOM      7  N   UNL     1       2.509   7.293  18.843  0.00  0.00    +0.000 N 
ATOM      8  C   UNL     1       3.694   6.649  18.591  0.00  0.00    +0.000 A 
ATOM      9  C   UNL     1       4.132   5.530  19.314  0.00  0.00    +0.000 A 
ATOM     10  N   UNL     1       5.304   4.873  19.097  0.00  0.00    +0.000 NA
ATOM     11  C   UNL     1       6.064   5.388  18.107  0.00  0.00    +0.000 A 
ATOM     12  C   UNL     1       5.667   6.495  17.382  0.00  0.00    +0.000 A 
ATOM     13  N   UNL     1       4.486   7.127  17.603  0.00  0.00    +0.000 NA
ATOM     14  C   UNL     1       1.858   8.071  17.778  0.00  0.00    +0.000 C 
ATOM     15  C   UNL     1       1.441   9.467  18.278  0.00  0.00    +0.000 C 
ATOM     16  H   UNL     1      -1.002  10.201  17.989  0.00  0.00    +0.000 HD
ENDROOT
BRANCH   1  20
ATOM     17  C   UNL     1      -4.874  12.627  19.317  0.00  0.00    +0.000 A 
ATOM     18  C   UNL     1      -3.796  12.962  20.145  0.00  0.00    +0.000 A 
ATOM     19  C   UNL     1      -2.554  12.334  19.995  0.00  0.00    +0.000 A 
ATOM     20  C   UNL     1      -2.357  11.349  19.027  0.00  0.00    +0.000 A 
ATOM     21  C   UNL     1      -3.414  11.047  18.163  0.00  0.00    +0.000 A 
ATOM     22  C   UNL     1      -4.659  11.674  18.312  0.00  0.00    +0.000 A 
BRANCH  17  24
ATOM     23  C   UNL     1      -7.184  12.977  18.364  0.00  0.00    +0.000 C 
ATOM     24  C   UNL     1      -6.227  13.292  19.515  0.00  0.00    +0.000 C 
ATOM     25  C   UNL     1      -6.870  12.902  20.850  0.00  0.00    +0.000 C 
ENDBRANCH  17  24
ENDBRANCH   1  20
BRANCH  11  26
ATOM     26  C   UNL     1       7.300   4.730  17.824  0.00  0.00    +0.000 C 
ATOM     27  N   UNL     1       8.297   4.163  17.630  0.00  0.00    +0.000 NA
ENDBRANCH  11  26
TORSDOF 3
ENDMDL
MODEL 3
REMARK VINA RESULT:      -7.1      2.291     10.818
REMARK  Name = 
REMARK  5 active torsions:
REMARK  status: ('A' for Active; 'I' for Inactive)
REMARK    1  A    between atoms: C_1  and  C_2
REMARK    2  A    between atoms: C_2  and  C_3
REMARK    3  A    between atoms: C_2  and  C_4
REMARK    4  A    between atoms: C_7  and  N_8
REMARK    5  A    between atoms: C_18  and  C_19
REMARK                            x       y       z     vdW  Elec       q    Type
REMARK                         _______ _______ _______ _____ _____    ______ ____
ROOT
ATOM      1  N   UNL     1      -1.279  11.675  22.676  0.00  0.00    +0.000 N 
ATOM      2  C   UNL     1      -1.266  11.459  21.315  0.00  0.00    +0.000 C 
ATOM      3  O   UNL     1      -1.793  12.202  20.490  0.00  0.00    +0.000 OA
ATOM      4  N   UNL     1      -0.537  10.357  20.897  0.00  0.00    +0.000 N 
ATOM      5  C   UNL     1      -0.328  10.175  19.456  0.00  0.00    +0.000 C 
ATOM      6  C   UNL     1       1.126   9.778  19.146  0.00  0.00    +0.000 C 
ATOM      7  N   UNL     1       1.527   8.630  19.966  0.00  0.00    +0.000 N 
ATOM      8  C   UNL     1       2.125   7.509  19.449  0.00  0.00    +0.000 A 
ATOM      9  C   UNL     1       2.848   7.505  18.247  0.00  0.00    +0.000 A 
ATOM     10  N   UNL     1       3.445   6.411  17.702  0.00  0.00    +0.000 NA
ATOM     11  C   UNL     1       3.289   5.271  18.410  0.00  0.00    +0.000 A 
ATOM     12  C   UNL     1       2.576   5.239  19.592  0.00  0.00    +0.000 A 
ATOM     13  N   UNL     1       1.999   6.344  20.129  0.00  0.00    +0.000 NA
ATOM     14  C   UNL     1       1.265   8.721  21.410  0.00  0.00    +0.000 C 
ATOM     15  C   UNL     1      -0.180   9.174  21.692  0.00  0.00    +0.000 C 
ATOM     16  H   UNL     1      -0.558  11.214  23.204  0.00  0.00    +0.000 HD
ENDROOT
BRANCH   1  20
ATOM     17  C   UNL     1      -3.111  15.061  24.477  0.00  0.00    +0.000 A 
ATOM     18  C   UNL     1      -3.839  13.877  24.302  0.00  0.00    +0.000 A 
ATOM     19  C   UNL     1      -3.240  12.743  23.740  0.00  0.00    +0.000 A 
ATOM     20  C   UNL     1      -1.908  12.762  23.326  0.00  0.00    +0.000 A 
ATOM     21  C   UNL     1      -1.162  13.925  23.545  0.00  0.00    +0.000 A 
ATOM     22  C   UNL     1      -1.759  15.062  24.107  0.00  0.00    +0.000 A 
BRANCH  17  24
ATOM     23  C   UNL     1      -2.911  17.541  24.895  0.00  0.00    +0.000 C 
ATOM     24  C   UNL     1      -3.785  16.295  25.054  0.00  0.00    +0.000 C 
ATOM     25  C   UNL     1      -5.164  16.542  24.434  0.00  0.00    +0.000 C 
ENDBRANCH  17  24
ENDBRANCH   1  20
BRANCH  11  26
ATOM     26  C   UNL     1       3.909   4.093  17.893  0.00  0.00    +0.000 C 
ATOM     27  N   UNL     1       4.386   3.137  17.433  0.00  0.00    +0.000 NA
ENDBRANCH  11  26
TORSDOF 3
ENDMDL
MODEL 4
REMARK VINA RESULT:      -7.0      1.234      1.782
REMARK  Name = 
REMARK  5 active torsions:
REMARK  status: ('A' for Active; 'I' for Inactive)
REMARK    1  A    between atoms: C_1  and  C_2
REMARK    2  A    between atoms: C_2  and  C_3
REMARK    3  A    between atoms: C_2  and  C_4
REMARK    4  A    between atoms: C_7  and  N_8
REMARK    5  A    between atoms: C_18  and  C_19
REMARK                            x       y       z     vdW  Elec       q    Type
REMARK                         _______ _______ _______ _____ _____    ______ ____
ROOT
ATOM      1  N   UNL     1       1.736   8.362  19.736  0.00  0.00    +0.000 N 
ATOM      2  C   UNL     1       1.138   9.428  19.098  0.00  0.00    +0.000 C 
ATOM      3  O   UNL     1       1.041   9.540  17.877  0.00  0.00    +0.000 OA
ATOM      4  N   UNL     1       0.564  10.373  19.934  0.00  0.00    +0.000 N 
ATOM      5  C   UNL     1      -0.245  11.432  19.323  0.00  0.00    +0.000 C 
ATOM      6  C   UNL     1      -1.547  11.668  20.108  0.00  0.00    +0.000 C 
ATOM      7  N   UNL     1      -1.253  11.874  21.531  0.00  0.00    +0.000 N 
ATOM      8  C   UNL     1      -1.757  12.922  22.259  0.00  0.00    +0.000 A 
ATOM      9  C   UNL     1      -2.935  13.601  21.918  0.00  0.00    +0.000 A 
ATOM     10  N   UNL     1      -3.458  14.649  22.611  0.00  0.00    +0.000 NA
ATOM     11  C   UNL     1      -2.741  15.023  23.693  0.00  0.00    +0.000 A 
ATOM     12  C   UNL     1      -1.572  14.381  24.051  0.00  0.00    +0.000 A 
ATOM     13  N   UNL     1      -1.074  13.327  23.355  0.00  0.00    +0.000 NA
ATOM     14  C   UNL     1      -0.376  10.886  22.178  0.00  0.00    +0.000 C 
ATOM     15  C   UNL     1       0.892  10.628  21.343  0.00  0.00    +0.000 C 
ATOM     16  H   UNL     1       1.468   8.212  20.693  0.00  0.00    +0.000 HD
ENDROOT
BRANCH   1  20
ATOM     17  C   UNL     1       3.354   4.961  17.766  0.00  0.00    +0.000 A 
ATOM     18  C   UNL     1       3.756   6.248  17.390  0.00  0.00    +0.000 A 
ATOM     19  C   UNL     1       3.257   7.377  18.051  0.00  0.00    +0.000 A 
ATOM     20  C   UNL     1       2.336   7.255  19.092  0.00  0.00    +0.000 A 
ATOM     21  C   UNL     1       1.970   5.970  19.506  0.00  0.00    +0.000 A 
ATOM     22  C   UNL     1       2.468   4.838  18.845  0.00  0.00    +0.000 A 
BRANCH  17  24
ATOM     23  C   UNL     1       5.278   3.991  16.453  0.00  0.00    +0.000 C 
ATOM     24  C   UNL     1       3.876   3.746  17.016  0.00  0.00    +0.000 C 
ATOM     25  C   UNL     1       3.877   2.486  17.888  0.00  0.00    +0.000 C 
ENDBRANCH  17  24
ENDBRANCH   1  20
BRANCH  11  26
ATOM     26  C   UNL     1      -3.250  16.108  24.469  0.00  0.00    +0.000 C 
ATOM     27  N   UNL     1      -3.649  16.971  25.140  0.00  0.00    +0.000 NA
ENDBRANCH  11  26
TORSDOF 3
ENDMDL
MODEL 5
REMARK VINA RESULT:      -7.0      2.502     10.885
REMARK  Name = 
REMARK  5 active torsions:
REMARK  status: ('A' for Active; 'I' for Inactive)
REMARK    1  A    between atoms: C_1  and  C_2
REMARK    2  A    between atoms: C_2  and  C_3
REMARK    3  A    between atoms: C_2  and  C_4
REMARK    4  A    between atoms: C_7  and  N_8
REMARK    5  A    between atoms: C_18  and  C_19
REMARK                            x       y       z     vdW  Elec       q    Type
REMARK                         _______ _______ _______ _____ _____    ______ ____
ROOT
ATOM      1  N   UNL     1      -1.166  11.934  22.705  0.00  0.00    +0.000 N 
ATOM      2  C   UNL     1      -1.175  11.594  21.370  0.00  0.00    +0.000 C 
ATOM      3  O   UNL     1      -1.663  12.290  20.481  0.00  0.00    +0.000 OA
ATOM      4  N   UNL     1      -0.515  10.417  21.054  0.00  0.00    +0.000 N 
ATOM      5  C   UNL     1      -0.327  10.093  19.635  0.00  0.00    +0.000 C 
ATOM      6  C   UNL     1       1.098   9.584  19.361  0.00  0.00    +0.000 C 
ATOM      7  N   UNL     1       1.436   8.493  20.282  0.00  0.00    +0.000 N 
ATOM      8  C   UNL     1       1.963   7.296  19.869  0.00  0.00    +0.000 A 
ATOM      9  C   UNL     1       2.677   7.139  18.672  0.00  0.00    +0.000 A 
ATOM     10  N   UNL     1       3.204   5.967  18.229  0.00  0.00    +0.000 NA
ATOM     11  C   UNL     1       2.986   4.907  19.038  0.00  0.00    +0.000 A 
ATOM     12  C   UNL     1       2.280   5.025  20.219  0.00  0.00    +0.000 A 
ATOM     13  N   UNL     1       1.773   6.208  20.653  0.00  0.00    +0.000 NA
ATOM     14  C   UNL     1       1.190   8.731  21.713  0.00  0.00    +0.000 C 
ATOM     15  C   UNL     1      -0.224   9.293  21.953  0.00  0.00    +0.000 C 
ATOM     16  H   UNL     1      -0.471  11.481  23.273  0.00  0.00    +0.000 HD
ENDROOT
BRANCH   1  20
ATOM     17  C   UNL     1      -2.905  15.364  24.517  0.00  0.00    +0.000 A 
ATOM     18  C   UNL     1      -1.584  15.406  24.055  0.00  0.00    +0.000 A 
ATOM     19  C   UNL     1      -1.008  14.296  23.427  0.00  0.00    +0.000 A 
ATOM     20  C   UNL     1      -1.726  13.112  23.255  0.00  0.00    +0.000 A 
ATOM     21  C   UNL     1      -3.062  13.080  23.667  0.00  0.00    +0.000 A 
ATOM     22  C   UNL     1      -3.641  14.191  24.297  0.00  0.00    +0.000 A 
BRANCH  17  24
ATOM     23  C   UNL     1      -2.654  17.821  25.033  0.00  0.00    +0.000 C 
ATOM     24  C   UNL     1      -3.506  16.565  25.230  0.00  0.00    +0.000 C 
ATOM     25  C   UNL     1      -4.947  16.836  24.786  0.00  0.00    +0.000 C 
ENDBRANCH  17  24
ENDBRANCH   1  20
BRANCH  11  26
ATOM     26  C   UNL     1       3.531   3.652  18.630  0.00  0.00    +0.000 C 
ATOM     27  N   UNL     1       4.018   2.650  18.297  0.00  0.00    +0.000 NA
ENDBRANCH  11  26
TORSDOF 3
ENDMDL
MODEL 6
REMARK VINA RESULT:      -7.0      1.313      2.017
REMARK  Name = 
REMARK  5 active torsions:
REMARK  status: ('A' for Active; 'I' for Inactive)
REMARK    1  A    between atoms: C_1  and  C_2
REMARK    2  A    between atoms: C_2  and  C_3
REMARK    3  A    between atoms: C_2  and  C_4
REMARK    4  A    between atoms: C_7  and  N_8
REMARK    5  A    between atoms: C_18  and  C_19
REMARK                            x       y       z     vdW  Elec       q    Type
REMARK                         _______ _______ _______ _____ _____    ______ ____
ROOT
ATOM      1  N   UNL     1       2.181   8.034  18.563  0.00  0.00    +0.000 N 
ATOM      2  C   UNL     1       1.611   7.908  19.812  0.00  0.00    +0.000 C 
ATOM      3  O   UNL     1       1.849   6.990  20.594  0.00  0.00    +0.000 OA
ATOM      4  N   UNL     1       0.777   8.949  20.190  0.00  0.00    +0.000 N 
ATOM      5  C   UNL     1       0.287   8.971  21.572  0.00  0.00    +0.000 C 
ATOM      6  C   UNL     1       0.372  10.384  22.175  0.00  0.00    +0.000 C 
ATOM      7  N   UNL     1      -0.273  11.357  21.287  0.00  0.00    +0.000 N 
ATOM      8  C   UNL     1      -1.199  12.272  21.720  0.00  0.00    +0.000 A 
ATOM      9  C   UNL     1      -1.278  12.720  23.047  0.00  0.00    +0.000 A 
ATOM     10  N   UNL     1      -2.188  13.618  23.512  0.00  0.00    +0.000 NA
ATOM     11  C   UNL     1      -3.059  14.071  22.584  0.00  0.00    +0.000 A 
ATOM     12  C   UNL     1      -3.014  13.644  21.271  0.00  0.00    +0.000 A 
ATOM     13  N   UNL     1      -2.088  12.758  20.822  0.00  0.00    +0.000 NA
ATOM     14  C   UNL     1       0.119  11.326  19.870  0.00  0.00    +0.000 C 
ATOM     15  C   UNL     1       0.079   9.893  19.308  0.00  0.00    +0.000 C 
ATOM     16  H   UNL     1       2.179   8.957  18.167  0.00  0.00    +0.000 HD
ENDROOT
BRANCH   1  20
ATOM     17  C   UNL     1       4.797   5.228  16.733  0.00  0.00    +0.000 A 
ATOM     18  C   UNL     1       5.100   6.594  16.705  0.00  0.00    +0.000 A 
ATOM     19  C   UNL     1       4.266   7.528  17.331  0.00  0.00    +0.000 A 
ATOM     20  C   UNL     1       3.102   7.127  17.989  0.00  0.00    +0.000 A 
ATOM     21  C   UNL     1       2.821   5.759  18.065  0.00  0.00    +0.000 A 
ATOM     22  C   UNL     1       3.655   4.823  17.438  0.00  0.00    +0.000 A 
BRANCH  17  24
ATOM     23  C   UNL     1       5.551   4.333  14.498  0.00  0.00    +0.000 C 
ATOM     24  C   UNL     1       5.693   4.229  16.018  0.00  0.00    +0.000 C 
ATOM     25  C   UNL     1       7.164   4.387  16.417  0.00  0.00    +0.000 C 
ENDBRANCH  17  24
ENDBRANCH   1  20
BRANCH  11  26
ATOM     26  C   UNL     1      -4.027  15.029  23.012  0.00  0.00    +0.000 C 
ATOM     27  N   UNL     1      -4.827  15.781  23.397  0.00  0.00    +0.000 NA
ENDBRANCH  11  26
TORSDOF 3
ENDMDL
MODEL 7
REMARK VINA RESULT:      -6.8      1.308      1.623
REMARK  Name = 
REMARK  5 active torsions:
REMARK  status: ('A' for Active; 'I' for Inactive)
REMARK    1  A    between atoms: C_1  and  C_2
REMARK    2  A    between atoms: C_2  and  C_3
REMARK    3  A    between atoms: C_2  and  C_4
REMARK    4  A    between atoms: C_7  and  N_8
REMARK    5  A    between atoms: C_18  and  C_19
REMARK                            x       y       z     vdW  Elec       q    Type
REMARK                         _______ _______ _______ _____ _____    ______ ____
ROOT
ATOM      1  N   UNL     1       1.659   8.360  19.972  0.00  0.00    +0.000 N 
ATOM      2  C   UNL     1       1.094   9.414  19.287  0.00  0.00    +0.000 C 
ATOM      3  O   UNL     1       1.047   9.498  18.061  0.00  0.00    +0.000 OA
ATOM      4  N   UNL     1       0.493  10.380  20.078  0.00  0.00    +0.000 N 
ATOM      5  C   UNL     1      -0.285  11.430  19.410  0.00  0.00    +0.000 C 
ATOM      6  C   UNL     1      -1.615  11.690  20.136  0.00  0.00    +0.000 C 
ATOM      7  N   UNL     1      -1.378  11.927  21.565  0.00  0.00    +0.000 N 
ATOM      8  C   UNL     1      -1.905  12.994  22.248  0.00  0.00    +0.000 A 
ATOM      9  C   UNL     1      -3.064  13.672  21.844  0.00  0.00    +0.000 A 
ATOM     10  N   UNL     1      -3.607  14.738  22.492  0.00  0.00    +0.000 NA
ATOM     11  C   UNL     1      -2.933  15.133  23.594  0.00  0.00    +0.000 A 
ATOM     12  C   UNL     1      -1.783  14.493  24.014  0.00  0.00    +0.000 A 
ATOM     13  N   UNL     1      -1.264  13.421  23.362  0.00  0.00    +0.000 NA
ATOM     14  C   UNL     1      -0.534  10.950  22.270  0.00  0.00    +0.000 C 
ATOM     15  C   UNL     1       0.765  10.666  21.492  0.00  0.00    +0.000 C 
ATOM     16  H   UNL     1       1.351   8.233  20.921  0.00  0.00    +0.000 HD
ENDROOT
BRANCH   1  20
ATOM     17  C   UNL     1       3.693   5.083  18.187  0.00  0.00    +0.000 A 
ATOM     18  C   UNL     1       2.930   4.890  19.345  0.00  0.00    +0.000 A 
ATOM     19  C   UNL     1       2.227   5.952  19.926  0.00  0.00    +0.000 A 
ATOM     20  C   UNL     1       2.278   7.234  19.379  0.00  0.00    +0.000 A 
ATOM     21  C   UNL     1       2.996   7.422  18.194  0.00  0.00    +0.000 A 
ATOM     22  C   UNL     1       3.701   6.360  17.610  0.00  0.00    +0.000 A 
BRANCH  17  24
ATOM     23  C   UNL     1       3.693   2.617  17.651  0.00  0.00    +0.000 C 
ATOM     24  C   UNL     1       4.480   3.928  17.587  0.00  0.00    +0.000 C 
ATOM     25  C   UNL     1       4.908   4.211  16.144  0.00  0.00    +0.000 C 
ENDBRANCH  17  24
ENDBRANCH   1  20
BRANCH  11  26
ATOM     26  C   UNL     1      -3.466  16.238  24.323  0.00  0.00    +0.000 C 
ATOM     27  N   UNL     1      -3.930  17.108  24.940  0.00  0.00    +0.000 NA
ENDBRANCH  11  26
TORSDOF 3
ENDMDL
MODEL 8
REMARK VINA RESULT:      -6.8      1.818      2.888
REMARK  Name = 
REMARK  5 active torsions:
REMARK  status: ('A' for Active; 'I' for Inactive)
REMARK    1  A    between atoms: C_1  and  C_2
REMARK    2  A    between atoms: C_2  and  C_3
REMARK    3  A    between atoms: C_2  and  C_4
REMARK    4  A    between atoms: C_7  and  N_8
REMARK    5  A    between atoms: C_18  and  C_19
REMARK                            x       y       z     vdW  Elec       q    Type
REMARK                         _______ _______ _______ _____ _____    ______ ____
ROOT
ATOM      1  N   UNL     1       0.920   9.268  20.483  0.00  0.00    +0.000 N 
ATOM      2  C   UNL     1       0.160  10.200  19.811  0.00  0.00    +0.000 C 
ATOM      3  O   UNL     1      -0.036  10.190  18.597  0.00  0.00    +0.000 OA
ATOM      4  N   UNL     1      -0.460  11.147  20.611  0.00  0.00    +0.000 N 
ATOM      5  C   UNL     1      -1.428  12.052  19.983  0.00  0.00    +0.000 C 
ATOM      6  C   UNL     1      -2.690  12.213  20.848  0.00  0.00    +0.000 C 
ATOM      7  N   UNL     1      -2.323  12.576  22.221  0.00  0.00    +0.000 N 
ATOM      8  C   UNL     1      -2.893  13.623  22.900  0.00  0.00    +0.000 A 
ATOM      9  C   UNL     1      -4.163  14.136  22.600  0.00  0.00    +0.000 A 
ATOM     10  N   UNL     1      -4.754  15.178  23.246  0.00  0.00    +0.000 NA
ATOM     11  C   UNL     1      -4.012  15.724  24.233  0.00  0.00    +0.000 A 
ATOM     12  C   UNL     1      -2.754  15.248  24.548  0.00  0.00    +0.000 A 
ATOM     13  N   UNL     1      -2.187  14.198  23.902  0.00  0.00    +0.000 NA
ATOM     14  C   UNL     1      -1.294  11.753  22.874  0.00  0.00    +0.000 C 
ATOM     15  C   UNL     1      -0.067  11.562  21.964  0.00  0.00    +0.000 C 
ATOM     16  H   UNL     1       0.739   9.175  21.468  0.00  0.00    +0.000 HD
ENDROOT
BRANCH   1  20
ATOM     17  C   UNL     1       2.792   5.885  18.717  0.00  0.00    +0.000 A 
ATOM     18  C   UNL     1       2.777   7.112  18.043  0.00  0.00    +0.000 A 
ATOM     19  C   UNL     1       2.193   8.243  18.625  0.00  0.00    +0.000 A 
ATOM     20  C   UNL     1       1.598   8.179  19.886  0.00  0.00    +0.000 A 
ATOM     21  C   UNL     1       1.656   6.970  20.585  0.00  0.00    +0.000 A 
ATOM     22  C   UNL     1       2.239   5.836  20.004  0.00  0.00    +0.000 A 
BRANCH  17  24
ATOM     23  C   UNL     1       4.282   3.872  19.028  0.00  0.00    +0.000 C 
ATOM     24  C   UNL     1       3.397   4.656  18.057  0.00  0.00    +0.000 C 
ATOM     25  C   UNL     1       2.326   3.734  17.465  0.00  0.00    +0.000 C 
ENDBRANCH  17  24
ENDBRANCH   1  20
BRANCH  11  26
ATOM     26  C   UNL     1      -4.588  16.812  24.957  0.00  0.00    +0.000 C 
ATOM     27  N   UNL     1      -5.032  17.685  25.584  0.00  0.00    +0.000 NA
ENDBRANCH  11  26
TORSDOF 3
ENDMDL
MODEL 9
REMARK VINA RESULT:      -6.8      2.059      2.421
REMARK  Name = 
REMARK  5 active torsions:
REMARK  status: ('A' for Active; 'I' for Inactive)
REMARK    1  A    between atoms: C_1  and  C_2
REMARK    2  A    between atoms: C_2  and  C_3
REMARK    3  A    between atoms: C_2  and  C_4
REMARK    4  A    between atoms: C_7  and  N_8
REMARK    5  A    between atoms: C_18  and  C_19
REMARK                            x       y       z     vdW  Elec       q    Type
REMARK                         _______ _______ _______ _____ _____    ______ ____
ROOT
ATOM      1  N   UNL     1       1.595   7.635  20.669  0.00  0.00    +0.000 N 
ATOM      2  C   UNL     1       1.366   8.746  19.886  0.00  0.00    +0.000 C 
ATOM      3  O   UNL     1       1.587   8.800  18.677  0.00  0.00    +0.000 OA
ATOM      4  N   UNL     1       0.783   9.820  20.538  0.00  0.00    +0.000 N 
ATOM      5  C   UNL     1       0.345  10.962  19.728  0.00  0.00    +0.000 C 
ATOM      6  C   UNL     1      -1.045  11.458  20.163  0.00  0.00    +0.000 C 
ATOM      7  N   UNL     1      -1.071  11.695  21.611  0.00  0.00    +0.000 N 
ATOM      8  C   UNL     1      -1.544  12.854  22.174  0.00  0.00    +0.000 A 
ATOM      9  C   UNL     1      -2.466  13.699  21.541  0.00  0.00    +0.000 A 
ATOM     10  N   UNL     1      -2.947  14.858  22.066  0.00  0.00    +0.000 NA
ATOM     11  C   UNL     1      -2.458  15.171  23.286  0.00  0.00    +0.000 A 
ATOM     12  C   UNL     1      -1.542  14.365  23.933  0.00  0.00    +0.000 A 
ATOM     13  N   UNL     1      -1.085  13.204  23.399  0.00  0.00    +0.000 NA
ATOM     14  C   UNL     1      -0.565  10.615  22.471  0.00  0.00    +0.000 C 
ATOM     15  C   UNL     1       0.801  10.100  21.980  0.00  0.00    +0.000 C 
ATOM     16  H   UNL     1       1.082   7.588  21.532  0.00  0.00    +0.000 HD
ENDROOT
BRANCH   1  20
ATOM     17  C   UNL     1       3.379   4.005  19.362  0.00  0.00    +0.000 A 
ATOM     18  C   UNL     1       2.241   3.976  20.177  0.00  0.00    +0.000 A 
ATOM     19  C   UNL     1       1.623   5.162  20.589  0.00  0.00    +0.000 A 
ATOM     20  C   UNL     1       2.128   6.406  20.212  0.00  0.00    +0.000 A 
ATOM     21  C   UNL     1       3.233   6.442  19.355  0.00  0.00    +0.000 A 
ATOM     22  C   UNL     1       3.854   5.255  18.942  0.00  0.00    +0.000 A 
BRANCH  17  24
ATOM     23  C   UNL     1       4.575   1.934  20.167  0.00  0.00    +0.000 C 
ATOM     24  C   UNL     1       4.061   2.709  18.952  0.00  0.00    +0.000 C 
ATOM     25  C   UNL     1       3.142   1.815  18.113  0.00  0.00    +0.000 C 
ENDBRANCH  17  24
ENDBRANCH   1  20
BRANCH  11  26
ATOM     26  C   UNL     1      -2.940  16.370  23.894  0.00  0.00    +0.000 C 
ATOM     27  N   UNL     1      -3.297  17.370  24.368  0.00  0.00    +0.000 NA
ENDBRANCH  11  26
TORSDOF 3
ENDMDL
