MODEL 1
REMARK VINA RESULT:      -7.5      0.000      0.000
REMARK  Name = 
REMARK  4 active torsions:
REMARK  status: ('A' for Active; 'I' for Inactive)
REMARK    1  A    between atoms: C_2  and  OXT_3
REMARK    2  A    between atoms: C_2  and  CA_4
REMARK    3  A    between atoms: C_6  and  C_7
REMARK    4  A    between atoms: C_7  and  C_8
REMARK                            x       y       z     vdW  Elec       q    Type
REMARK                         _______ _______ _______ _____ _____    ______ ____
ROOT
ATOM      1  CA  UNL     1       6.571   4.640  15.775  0.00  0.00    +0.000 C 
ATOM      2  C   UNL     1       5.073   4.754  15.976  0.00  0.00    +0.000 C 
ATOM      3  C   UNL     1       4.985   5.292  17.397  0.00  0.00    +0.000 C 
ATOM      4  C   UNL     1       6.201   6.216  17.513  0.00  0.00    +0.000 C 
ATOM      5  N   UNL     1       7.077   5.916  16.366  0.00  0.00    +0.000 NA
ATOM      6  H   UNL     1       8.031   5.764  16.706  0.00  0.00    +0.000 HD
ENDROOT
BRANCH   1   8
ATOM      7  O   UNL     1       6.464   3.787  13.493  0.00  0.00    +0.000 OA
ATOM      8  C   UNL     1       6.943   4.568  14.297  0.00  0.00    +0.000 C 
BRANCH   8   9
ATOM      9  OXT UNL     1       7.858   5.518  13.969  0.00  0.00    +0.000 OA
ATOM     10  HXT UNL     1       7.481   6.004  13.194  0.00  0.00    +0.000 HD
ENDBRANCH   8   9
ENDBRANCH   1   8
BRANCH   3  11
ATOM     11  C   UNL     1       3.644   5.967  17.708  0.00  0.00    +0.000 C 
BRANCH  11  12
ATOM     12  C   UNL     1       2.771   5.166  18.645  0.00  0.00    +0.000 A 
ATOM     13  C   UNL     1       2.706   5.483  20.011  0.00  0.00    +0.000 A 
ATOM     14  C   UNL     1       1.919   4.722  20.885  0.00  0.00    +0.000 A 
ATOM     15  C   UNL     1       1.184   3.640  20.403  0.00  0.00    +0.000 A 
ATOM     16  C   UNL     1       1.226   3.336  19.047  0.00  0.00    +0.000 A 
ATOM     17  F   UNL     1       0.514   2.300  18.584  0.00  0.00    +0.000 F 
ATOM     18  C   UNL     1       2.003   4.092  18.176  0.00  0.00    +0.000 A 
ATOM     19  F   UNL     1       2.015   3.784  16.872  0.00  0.00    +0.000 F 
ENDBRANCH  11  12
ENDBRANCH   3  11
TORSDOF 4
ENDMDL
MODEL 2
REMARK VINA RESULT:      -7.4      1.350      1.645
REMARK  Name = 
REMARK  4 active torsions:
REMARK  status: ('A' for Active; 'I' for Inactive)
REMARK    1  A    between atoms: C_2  and  OXT_3
REMARK    2  A    between atoms: C_2  and  CA_4
REMARK    3  A    between atoms: C_6  and  C_7
REMARK    4  A    between atoms: C_7  and  C_8
REMARK                            x       y       z     vdW  Elec       q    Type
REMARK                         _______ _______ _______ _____ _____    ______ ____
ROOT
ATOM      1  CA  UNL     1       6.488   5.662  17.530  0.00  0.00    +0.000 C 
ATOM      2  C   UNL     1       5.120   5.073  17.812  0.00  0.00    +0.000 C 
ATOM      3  C   UNL     1       4.286   6.320  18.068  0.00  0.00    +0.000 C 
ATOM      4  C   UNL     1       4.879   7.358  17.110  0.00  0.00    +0.000 C 
ATOM      5  N   UNL     1       6.167   6.818  16.638  0.00  0.00    +0.000 NA
ATOM      6  H   UNL     1       6.891   7.533  16.754  0.00  0.00    +0.000 HD
ENDROOT
BRANCH   1   8
ATOM      7  O   UNL     1       7.415   4.515  15.587  0.00  0.00    +0.000 OA
ATOM      8  C   UNL     1       7.391   4.675  16.795  0.00  0.00    +0.000 C 
BRANCH   8   9
ATOM      9  OXT UNL     1       8.205   4.012  17.658  0.00  0.00    +0.000 OA
ATOM     10  HXT UNL     1       7.624   3.694  18.393  0.00  0.00    +0.000 HD
ENDBRANCH   8   9
ENDBRANCH   1   8
BRANCH   3  11
ATOM     11  C   UNL     1       2.780   6.088  17.899  0.00  0.00    +0.000 C 
BRANCH  11  12
ATOM     12  C   UNL     1       2.224   5.041  18.835  0.00  0.00    +0.000 A 
ATOM     13  C   UNL     1       2.366   5.174  20.224  0.00  0.00    +0.000 A 
ATOM     14  C   UNL     1       1.876   4.189  21.091  0.00  0.00    +0.000 A 
ATOM     15  C   UNL     1       1.233   3.063  20.578  0.00  0.00    +0.000 A 
ATOM     16  C   UNL     1       1.068   2.937  19.204  0.00  0.00    +0.000 A 
ATOM     17  F   UNL     1       0.445   1.858  18.712  0.00  0.00    +0.000 F 
ATOM     18  C   UNL     1       1.551   3.916  18.341  0.00  0.00    +0.000 A 
ATOM     19  F   UNL     1       1.367   3.775  17.021  0.00  0.00    +0.000 F 
ENDBRANCH  11  12
ENDBRANCH   3  11
TORSDOF 4
ENDMDL
MODEL 3
REMARK VINA RESULT:      -7.3      2.012      2.408
REMARK  Name = 
REMARK  4 active torsions:
REMARK  status: ('A' for Active; 'I' for Inactive)
REMARK    1  A    between atoms: C_2  and  OXT_3
REMARK    2  A    between atoms: C_2  and  CA_4
REMARK    3  A    between atoms: C_6  and  C_7
REMARK    4  A    between atoms: C_7  and  C_8
REMARK                            x       y       z     vdW  Elec       q    Type
REMARK                         _______ _______ _______ _____ _____    ______ ____
ROOT
ATOM      1  CA  UNL     1       6.360   5.110  17.352  0.00  0.00    +0.000 C 
ATOM      2  C   UNL     1       5.398   5.988  18.128  0.00  0.00    +0.000 C 
ATOM      3  C   UNL     1       4.100   5.792  17.358  0.00  0.00    +0.000 C 
ATOM      4  C   UNL     1       4.161   4.330  16.906  0.00  0.00    +0.000 C 
ATOM      5  N   UNL     1       5.550   3.878  17.105  0.00  0.00    +0.000 NA
ATOM      6  H   UNL     1       5.883   3.434  16.245  0.00  0.00    +0.000 HD
ENDROOT
BRANCH   1   8
ATOM      7  O   UNL     1       8.514   4.052  17.787  0.00  0.00    +0.000 OA
ATOM      8  C   UNL     1       7.599   4.762  18.170  0.00  0.00    +0.000 C 
BRANCH   8   9
ATOM      9  OXT UNL     1       7.582   5.375  19.383  0.00  0.00    +0.000 OA
ATOM     10  HXT UNL     1       8.363   5.024  19.878  0.00  0.00    +0.000 HD
ENDBRANCH   8   9
ENDBRANCH   1   8
BRANCH   3  11
ATOM     11  C   UNL     1       2.852   6.153  18.171  0.00  0.00    +0.000 C 
BRANCH  11  12
ATOM     12  C   UNL     1       2.327   5.009  19.006  0.00  0.00    +0.000 A 
ATOM     13  C   UNL     1       2.741   4.844  20.337  0.00  0.00    +0.000 A 
ATOM     14  C   UNL     1       2.276   3.767  21.102  0.00  0.00    +0.000 A 
ATOM     15  C   UNL     1       1.388   2.846  20.548  0.00  0.00    +0.000 A 
ATOM     16  C   UNL     1       0.956   3.017  19.238  0.00  0.00    +0.000 A 
ATOM     17  F   UNL     1       0.098   2.135  18.708  0.00  0.00    +0.000 F 
ATOM     18  C   UNL     1       1.413   4.089  18.477  0.00  0.00    +0.000 A 
ATOM     19  F   UNL     1       0.970   4.236  17.221  0.00  0.00    +0.000 F 
ENDBRANCH  11  12
ENDBRANCH   3  11
TORSDOF 4
ENDMDL
MODEL 4
REMARK VINA RESULT:      -7.3      1.530      1.920
REMARK  Name = 
REMARK  4 active torsions:
REMARK  status: ('A' for Active; 'I' for Inactive)
REMARK    1  A    between atoms: C_2  and  OXT_3
REMARK    2  A    between atoms: C_2  and  CA_4
REMARK    3  A    between atoms: C_6  and  C_7
REMARK    4  A    between atoms: C_7  and  C_8
REMARK                            x       y       z     vdW  Elec       q    Type
REMARK                         _______ _______ _______ _____ _____    ______ ____
ROOT
ATOM      1  CA  UNL     1       6.428   4.946  16.014  0.00  0.00    +0.000 C 
ATOM      2  C   UNL     1       4.958   4.663  16.252  0.00  0.00    +0.000 C 
ATOM      3  C   UNL     1       4.678   5.479  17.505  0.00  0.00    +0.000 C 
ATOM      4  C   UNL     1       5.565   6.717  17.340  0.00  0.00    +0.000 C 
ATOM      5  N   UNL     1       6.520   6.418  16.258  0.00  0.00    +0.000 NA
ATOM      6  H   UNL     1       7.467   6.638  16.579  0.00  0.00    +0.000 HD
ENDROOT
BRANCH   1   8
ATOM      7  O   UNL     1       6.340   3.768  13.880  0.00  0.00    +0.000 OA
ATOM      8  C   UNL     1       6.843   4.630  14.580  0.00  0.00    +0.000 C 
BRANCH   8   9
ATOM      9  OXT UNL     1       7.831   5.461  14.155  0.00  0.00    +0.000 OA
ATOM     10  HXT UNL     1       8.037   5.188  13.227  0.00  0.00    +0.000 HD
ENDBRANCH   8   9
ENDBRANCH   1   8
BRANCH   3  11
ATOM     11  C   UNL     1       3.191   5.787  17.710  0.00  0.00    +0.000 C 
BRANCH  11  12
ATOM     12  C   UNL     1       2.464   4.736  18.514  0.00  0.00    +0.000 A 
ATOM     13  C   UNL     1       1.668   3.770  17.879  0.00  0.00    +0.000 A 
ATOM     14  C   UNL     1       0.971   2.813  18.627  0.00  0.00    +0.000 A 
ATOM     15  C   UNL     1       1.067   2.806  20.019  0.00  0.00    +0.000 A 
ATOM     16  C   UNL     1       1.873   3.745  20.652  0.00  0.00    +0.000 A 
ATOM     17  F   UNL     1       1.970   3.734  21.988  0.00  0.00    +0.000 F 
ATOM     18  C   UNL     1       2.570   4.694  19.911  0.00  0.00    +0.000 A 
ATOM     19  F   UNL     1       3.349   5.580  20.547  0.00  0.00    +0.000 F 
ENDBRANCH  11  12
ENDBRANCH   3  11
TORSDOF 4
ENDMDL
MODEL 5
REMARK VINA RESULT:      -7.3      0.802      1.102
REMARK  Name = 
REMARK  4 active torsions:
REMARK  status: ('A' for Active; 'I' for Inactive)
REMARK    1  A    between atoms: C_2  and  OXT_3
REMARK    2  A    between atoms: C_2  and  CA_4
REMARK    3  A    between atoms: C_6  and  C_7
REMARK    4  A    between atoms: C_7  and  C_8
REMARK                            x       y       z     vdW  Elec       q    Type
REMARK                         _______ _______ _______ _____ _____    ______ ____
ROOT
ATOM      1  CA  UNL     1       6.618   5.065  15.969  0.00  0.00    +0.000 C 
ATOM      2  C   UNL     1       5.183   4.689  16.279  0.00  0.00    +0.000 C 
ATOM      3  C   UNL     1       4.911   5.493  17.543  0.00  0.00    +0.000 C 
ATOM      4  C   UNL     1       5.706   6.784  17.331  0.00  0.00    +0.000 C 
ATOM      5  N   UNL     1       6.626   6.541  16.204  0.00  0.00    +0.000 NA
ATOM      6  H   UNL     1       7.571   6.824  16.479  0.00  0.00    +0.000 HD
ENDROOT
BRANCH   1   8
ATOM      7  O   UNL     1       7.696   5.469  13.819  0.00  0.00    +0.000 OA
ATOM      8  C   UNL     1       6.983   4.768  14.518  0.00  0.00    +0.000 C 
BRANCH   8   9
ATOM      9  OXT UNL     1       6.442   3.594  14.100  0.00  0.00    +0.000 OA
ATOM     10  HXT UNL     1       6.891   2.885  14.623  0.00  0.00    +0.000 HD
ENDBRANCH   8   9
ENDBRANCH   1   8
BRANCH   3  11
ATOM     11  C   UNL     1       3.418   5.705  17.818  0.00  0.00    +0.000 C 
BRANCH  11  12
ATOM     12  C   UNL     1       2.803   4.617  18.667  0.00  0.00    +0.000 A 
ATOM     13  C   UNL     1       3.375   4.258  19.897  0.00  0.00    +0.000 A 
ATOM     14  C   UNL     1       2.821   3.231  20.670  0.00  0.00    +0.000 A 
ATOM     15  C   UNL     1       1.685   2.554  20.226  0.00  0.00    +0.000 A 
ATOM     16  C   UNL     1       1.101   2.921  19.020  0.00  0.00    +0.000 A 
ATOM     17  F   UNL     1       0.006   2.275  18.596  0.00  0.00    +0.000 F 
ATOM     18  C   UNL     1       1.646   3.945  18.251  0.00  0.00    +0.000 A 
ATOM     19  F   UNL     1       1.054   4.286  17.099  0.00  0.00    +0.000 F 
ENDBRANCH  11  12
ENDBRANCH   3  11
TORSDOF 4
ENDMDL
MODEL 6
REMARK VINA RESULT:      -7.3      2.502      2.777
REMARK  Name = 
REMARK  4 active torsions:
REMARK  status: ('A' for Active; 'I' for Inactive)
REMARK    1  A    between atoms: C_2  and  OXT_3
REMARK    2  A    between atoms: C_2  and  CA_4
REMARK    3  A    between atoms: C_6  and  C_7
REMARK    4  A    between atoms: C_7  and  C_8
REMARK                            x       y       z     vdW  Elec       q    Type
REMARK                         _______ _______ _______ _____ _____    ______ ____
ROOT
ATOM      1  CA  UNL     1       6.838   5.460  18.105  0.00  0.00    +0.000 C 
ATOM      2  C   UNL     1       5.633   6.377  18.177  0.00  0.00    +0.000 C 
ATOM      3  C   UNL     1       4.565   5.550  17.476  0.00  0.00    +0.000 C 
ATOM      4  C   UNL     1       4.898   4.110  17.875  0.00  0.00    +0.000 C 
ATOM      5  N   UNL     1       6.255   4.128  18.451  0.00  0.00    +0.000 NA
ATOM      6  H   UNL     1       6.817   3.398  18.002  0.00  0.00    +0.000 HD
ENDROOT
BRANCH   1   8
ATOM      7  O   UNL     1       8.305   5.117  20.023  0.00  0.00    +0.000 OA
ATOM      8  C   UNL     1       7.905   5.841  19.127  0.00  0.00    +0.000 C 
BRANCH   8   9
ATOM      9  OXT UNL     1       8.392   7.088  18.894  0.00  0.00    +0.000 OA
ATOM     10  HXT UNL     1       9.161   7.199  19.507  0.00  0.00    +0.000 HD
ENDBRANCH   8   9
ENDBRANCH   1   8
BRANCH   3  11
ATOM     11  C   UNL     1       3.137   5.989  17.818  0.00  0.00    +0.000 C 
BRANCH  11  12
ATOM     12  C   UNL     1       2.443   5.071  18.796  0.00  0.00    +0.000 A 
ATOM     13  C   UNL     1       2.619   5.233  20.179  0.00  0.00    +0.000 A 
ATOM     14  C   UNL     1       1.999   4.364  21.086  0.00  0.00    +0.000 A 
ATOM     15  C   UNL     1       1.191   3.327  20.621  0.00  0.00    +0.000 A 
ATOM     16  C   UNL     1       0.995   3.176  19.253  0.00  0.00    +0.000 A 
ATOM     17  F   UNL     1       0.214   2.182  18.807  0.00  0.00    +0.000 F 
ATOM     18  C   UNL     1       1.606   4.040  18.350  0.00  0.00    +0.000 A 
ATOM     19  F   UNL     1       1.388   3.879  17.038  0.00  0.00    +0.000 F 
ENDBRANCH  11  12
ENDBRANCH   3  11
TORSDOF 4
ENDMDL
MODEL 7
REMARK VINA RESULT:      -7.2      1.371      1.818
REMARK  Name = 
REMARK  4 active torsions:
REMARK  status: ('A' for Active; 'I' for Inactive)
REMARK    1  A    between atoms: C_2  and  OXT_3
REMARK    2  A    between atoms: C_2  and  CA_4
REMARK    3  A    between atoms: C_6  and  C_7
REMARK    4  A    between atoms: C_7  and  C_8
REMARK                            x       y       z     vdW  Elec       q    Type
REMARK                         _______ _______ _______ _____ _____    ______ ____
ROOT
ATOM      1  CA  UNL     1       6.911   4.605  15.169  0.00  0.00    +0.000 C 
ATOM      2  C   UNL     1       5.412   4.650  15.386  0.00  0.00    +0.000 C 
ATOM      3  C   UNL     1       5.317   4.953  16.874  0.00  0.00    +0.000 C 
ATOM      4  C   UNL     1       6.512   5.875  17.135  0.00  0.00    +0.000 C 
ATOM      5  N   UNL     1       7.390   5.783  15.955  0.00  0.00    +0.000 NA
ATOM      6  H   UNL     1       8.349   5.602  16.266  0.00  0.00    +0.000 HD
ENDROOT
BRANCH   1   8
ATOM      7  O   UNL     1       6.779   4.160  12.774  0.00  0.00    +0.000 OA
ATOM      8  C   UNL     1       7.279   4.779  13.698  0.00  0.00    +0.000 C 
BRANCH   8   9
ATOM      9  OXT UNL     1       8.218   5.747  13.532  0.00  0.00    +0.000 OA
ATOM     10  HXT UNL     1       8.706   5.804  14.391  0.00  0.00    +0.000 HD
ENDBRANCH   8   9
ENDBRANCH   1   8
BRANCH   3  11
ATOM     11  C   UNL     1       3.962   5.537  17.289  0.00  0.00    +0.000 C 
BRANCH  11  12
ATOM     12  C   UNL     1       3.031   4.518  17.902  0.00  0.00    +0.000 A 
ATOM     13  C   UNL     1       3.007   3.196  17.433  0.00  0.00    +0.000 A 
ATOM     14  C   UNL     1       2.123   2.258  17.982  0.00  0.00    +0.000 A 
ATOM     15  C   UNL     1       1.257   2.630  19.010  0.00  0.00    +0.000 A 
ATOM     16  C   UNL     1       1.293   3.932  19.494  0.00  0.00    +0.000 A 
ATOM     17  F   UNL     1       0.465   4.287  20.486  0.00  0.00    +0.000 F 
ATOM     18  C   UNL     1       2.173   4.865  18.954  0.00  0.00    +0.000 A 
ATOM     19  F   UNL     1       2.195   6.109  19.450  0.00  0.00    +0.000 F 
ENDBRANCH  11  12
ENDBRANCH   3  11
TORSDOF 4
ENDMDL
MODEL 8
REMARK VINA RESULT:      -7.2      2.856      3.383
REMARK  Name = 
REMARK  4 active torsions:
REMARK  status: ('A' for Active; 'I' for Inactive)
REMARK    1  A    between atoms: C_2  and  OXT_3
REMARK    2  A    between atoms: C_2  and  CA_4
REMARK    3  A    between atoms: C_6  and  C_7
REMARK    4  A    between atoms: C_7  and  C_8
REMARK                            x       y       z     vdW  Elec       q    Type
REMARK                         _______ _______ _______ _____ _____    ______ ____
ROOT
ATOM      1  CA  UNL     1       6.565   5.437  17.930  0.00  0.00    +0.000 C 
ATOM      2  C   UNL     1       5.253   6.195  17.959  0.00  0.00    +0.000 C 
ATOM      3  C   UNL     1       4.295   5.192  17.333  0.00  0.00    +0.000 C 
ATOM      4  C   UNL     1       4.813   3.837  17.825  0.00  0.00    +0.000 C 
ATOM      5  N   UNL     1       6.160   4.069  18.376  0.00  0.00    +0.000 NA
ATOM      6  H   UNL     1       6.808   3.387  17.970  0.00  0.00    +0.000 HD
ENDROOT
BRANCH   1   8
ATOM      7  O   UNL     1       8.297   6.982  18.680  0.00  0.00    +0.000 OA
ATOM      8  C   UNL     1       7.581   6.021  18.907  0.00  0.00    +0.000 C 
BRANCH   8   9
ATOM      9  OXT UNL     1       7.569   5.357  20.092  0.00  0.00    +0.000 OA
ATOM     10  HXT UNL     1       8.510   5.118  20.281  0.00  0.00    +0.000 HD
ENDBRANCH   8   9
ENDBRANCH   1   8
BRANCH   3  11
ATOM     11  C   UNL     1       2.824   5.468  17.667  0.00  0.00    +0.000 C 
BRANCH  11  12
ATOM     12  C   UNL     1       2.237   4.486  18.653  0.00  0.00    +0.000 A 
ATOM     13  C   UNL     1       1.368   3.471  18.223  0.00  0.00    +0.000 A 
ATOM     14  C   UNL     1       0.801   2.578  19.140  0.00  0.00    +0.000 A 
ATOM     15  C   UNL     1       1.101   2.685  20.498  0.00  0.00    +0.000 A 
ATOM     16  C   UNL     1       1.979   3.673  20.927  0.00  0.00    +0.000 A 
ATOM     17  F   UNL     1       2.272   3.772  22.231  0.00  0.00    +0.000 F 
ATOM     18  C   UNL     1       2.548   4.559  20.017  0.00  0.00    +0.000 A 
ATOM     19  F   UNL     1       3.401   5.494  20.457  0.00  0.00    +0.000 F 
ENDBRANCH  11  12
ENDBRANCH   3  11
TORSDOF 4
ENDMDL
MODEL 9
REMARK VINA RESULT:      -7.2      1.127      1.182
REMARK  Name = 
REMARK  4 active torsions:
REMARK  status: ('A' for Active; 'I' for Inactive)
REMARK    1  A    between atoms: C_2  and  OXT_3
REMARK    2  A    between atoms: C_2  and  CA_4
REMARK    3  A    between atoms: C_6  and  C_7
REMARK    4  A    between atoms: C_7  and  C_8
REMARK                            x       y       z     vdW  Elec       q    Type
REMARK                         _______ _______ _______ _____ _____    ______ ____
ROOT
ATOM      1  CA  UNL     1       6.943   4.599  15.202  0.00  0.00    +0.000 C 
ATOM      2  C   UNL     1       5.456   4.410  15.427  0.00  0.00    +0.000 C 
ATOM      3  C   UNL     1       5.312   4.763  16.900  0.00  0.00    +0.000 C 
ATOM      4  C   UNL     1       6.340   5.878  17.110  0.00  0.00    +0.000 C 
ATOM      5  N   UNL     1       7.223   5.874  15.929  0.00  0.00    +0.000 NA
ATOM      6  H   UNL     1       8.198   5.866  16.242  0.00  0.00    +0.000 HD
ENDROOT
BRANCH   1   8
ATOM      7  O   UNL     1       6.770   4.122  12.816  0.00  0.00    +0.000 OA
ATOM      8  C   UNL     1       7.279   4.760  13.722  0.00  0.00    +0.000 C 
BRANCH   8   9
ATOM      9  OXT UNL     1       8.200   5.740  13.527  0.00  0.00    +0.000 OA
ATOM     10  HXT UNL     1       8.459   6.055  14.428  0.00  0.00    +0.000 HD
ENDBRANCH   8   9
ENDBRANCH   1   8
BRANCH   3  11
ATOM     11  C   UNL     1       3.880   5.138  17.297  0.00  0.00    +0.000 C 
BRANCH  11  12
ATOM     12  C   UNL     1       3.264   4.187  18.296  0.00  0.00    +0.000 A 
ATOM     13  C   UNL     1       4.049   3.590  19.295  0.00  0.00    +0.000 A 
ATOM     14  C   UNL     1       3.484   2.687  20.204  0.00  0.00    +0.000 A 
ATOM     15  C   UNL     1       2.127   2.375  20.128  0.00  0.00    +0.000 A 
ATOM     16  C   UNL     1       1.340   2.981  19.157  0.00  0.00    +0.000 A 
ATOM     17  F   UNL     1       0.035   2.685  19.088  0.00  0.00    +0.000 F 
ATOM     18  C   UNL     1       1.897   3.882  18.255  0.00  0.00    +0.000 A 
ATOM     19  F   UNL     1       1.112   4.461  17.336  0.00  0.00    +0.000 F 
ENDBRANCH  11  12
ENDBRANCH   3  11
TORSDOF 4
ENDMDL
