MODEL 1
REMARK VINA RESULT:      -6.5      0.000      0.000
REMARK  Name = 
REMARK  4 active torsions:
REMARK  status: ('A' for Active; 'I' for Inactive)
REMARK    1  A    between atoms: N_3  and  O_4
REMARK    2  A    between atoms: N_5  and  C_6
REMARK    3  A    between atoms: C_9  and  N_10
REMARK    4  A    between atoms: N_13  and  O_14
REMARK                            x       y       z     vdW  Elec       q    Type
REMARK                         _______ _______ _______ _____ _____    ______ ____
ROOT
ATOM      1  C   UNL     1       4.452   5.230  18.978  0.00  0.00    +0.000 A 
ATOM      2  C   UNL     1       5.707   4.631  19.002  0.00  0.00    +0.000 A 
ATOM      3  C   UNL     1       6.611   4.816  17.952  0.00  0.00    +0.000 A 
ATOM      4  C   UNL     1       6.276   5.595  16.847  0.00  0.00    +0.000 A 
ATOM      5  C   UNL     1       5.024   6.222  16.829  0.00  0.00    +0.000 A 
ATOM      6  C   UNL     1       4.114   6.033  17.883  0.00  0.00    +0.000 A 
ENDROOT
BRANCH   1  10
ATOM      7  O   UNL     1       2.682   2.908  19.445  0.00  0.00    +0.000 OA
ATOM      8  C   UNL     1       2.665   3.938  20.114  0.00  0.00    +0.000 C 
ATOM      9  N   UNL     1       1.740   4.088  21.133  0.00  0.00    +0.000 N 
ATOM     10  N   UNL     1       3.501   5.028  20.000  0.00  0.00    +0.000 N 
ATOM     11  H   UNL     1       1.294   4.996  21.212  0.00  0.00    +0.000 HD
ATOM     12  H   UNL     1       3.547   5.635  20.806  0.00  0.00    +0.000 HD
BRANCH   9  13
ATOM     13  O   UNL     1       0.814   3.003  21.190  0.00  0.00    +0.000 OA
ATOM     14  H   UNL     1       1.231   2.341  20.591  0.00  0.00    +0.000 HD
ENDBRANCH   9  13
ENDBRANCH   1  10
BRANCH   4  15
ATOM     15  N   UNL     1       7.136   5.756  15.738  0.00  0.00    +0.000 N 
ATOM     16  C   UNL     1       6.968   5.191  14.491  0.00  0.00    +0.000 C 
ATOM     17  O   UNL     1       6.071   4.440  14.117  0.00  0.00    +0.000 OA
ATOM     18  N   UNL     1       7.951   5.577  13.593  0.00  0.00    +0.000 N 
ATOM     19  H   UNL     1       7.868   6.444  15.824  0.00  0.00    +0.000 HD
ATOM     20  H   UNL     1       8.904   5.633  13.930  0.00  0.00    +0.000 HD
BRANCH  18  21
ATOM     21  O   UNL     1       7.831   4.910  12.338  0.00  0.00    +0.000 OA
ATOM     22  H   UNL     1       8.774   4.779  12.081  0.00  0.00    +0.000 HD
ENDBRANCH  18  21
ENDBRANCH   4  15
TORSDOF 4
ENDMDL
MODEL 2
REMARK VINA RESULT:      -6.5      1.474      7.040
REMARK  Name = 
REMARK  4 active torsions:
REMARK  status: ('A' for Active; 'I' for Inactive)
REMARK    1  A    between atoms: N_3  and  O_4
REMARK    2  A    between atoms: N_5  and  C_6
REMARK    3  A    between atoms: C_9  and  N_10
REMARK    4  A    between atoms: N_13  and  O_14
REMARK                            x       y       z     vdW  Elec       q    Type
REMARK                         _______ _______ _______ _____ _____    ______ ____
ROOT
ATOM      1  C   UNL     1       4.907   4.810  16.437  0.00  0.00    +0.000 A 
ATOM      2  C   UNL     1       4.640   3.524  16.894  0.00  0.00    +0.000 A 
ATOM      3  C   UNL     1       4.062   3.313  18.149  0.00  0.00    +0.000 A 
ATOM      4  C   UNL     1       3.749   4.384  18.982  0.00  0.00    +0.000 A 
ATOM      5  C   UNL     1       3.990   5.683  18.518  0.00  0.00    +0.000 A 
ATOM      6  C   UNL     1       4.574   5.895  17.257  0.00  0.00    +0.000 A 
ENDROOT
BRANCH   1  10
ATOM      7  O   UNL     1       7.782   4.752  15.749  0.00  0.00    +0.000 OA
ATOM      8  C   UNL     1       6.889   5.070  14.968  0.00  0.00    +0.000 C 
ATOM      9  N   UNL     1       7.204   5.484  13.685  0.00  0.00    +0.000 N 
ATOM     10  N   UNL     1       5.529   5.055  15.195  0.00  0.00    +0.000 N 
ATOM     11  H   UNL     1       6.687   6.280  13.325  0.00  0.00    +0.000 HD
ATOM     12  H   UNL     1       4.944   5.050  14.372  0.00  0.00    +0.000 HD
BRANCH   9  13
ATOM     13  O   UNL     1       8.612   5.591  13.480  0.00  0.00    +0.000 OA
ATOM     14  H   UNL     1       8.672   6.318  12.817  0.00  0.00    +0.000 HD
ENDBRANCH   9  13
ENDBRANCH   1  10
BRANCH   4  15
ATOM     15  N   UNL     1       3.222   4.212  20.281  0.00  0.00    +0.000 N 
ATOM     16  C   UNL     1       2.388   3.191  20.691  0.00  0.00    +0.000 C 
ATOM     17  O   UNL     1       1.937   2.269  20.017  0.00  0.00    +0.000 OA
ATOM     18  N   UNL     1       2.080   3.262  22.040  0.00  0.00    +0.000 N 
ATOM     19  H   UNL     1       3.585   4.813  21.006  0.00  0.00    +0.000 HD
ATOM     20  H   UNL     1       1.890   4.175  22.435  0.00  0.00    +0.000 HD
BRANCH  18  21
ATOM     21  O   UNL     1       1.137   2.266  22.434  0.00  0.00    +0.000 OA
ATOM     22  H   UNL     1       1.694   1.654  22.970  0.00  0.00    +0.000 HD
ENDBRANCH  18  21
ENDBRANCH   4  15
TORSDOF 4
ENDMDL
MODEL 3
REMARK VINA RESULT:      -6.5      1.794      1.940
REMARK  Name = 
REMARK  4 active torsions:
REMARK  status: ('A' for Active; 'I' for Inactive)
REMARK    1  A    between atoms: N_3  and  O_4
REMARK    2  A    between atoms: N_5  and  C_6
REMARK    3  A    between atoms: C_9  and  N_10
REMARK    4  A    between atoms: N_13  and  O_14
REMARK                            x       y       z     vdW  Elec       q    Type
REMARK                         _______ _______ _______ _____ _____    ______ ____
ROOT
ATOM      1  C   UNL     1       3.960   3.413  19.161  0.00  0.00    +0.000 A 
ATOM      2  C   UNL     1       4.560   4.668  19.155  0.00  0.00    +0.000 A 
ATOM      3  C   UNL     1       5.057   5.220  17.971  0.00  0.00    +0.000 A 
ATOM      4  C   UNL     1       4.978   4.524  16.767  0.00  0.00    +0.000 A 
ATOM      5  C   UNL     1       4.351   3.272  16.761  0.00  0.00    +0.000 A 
ATOM      6  C   UNL     1       3.853   2.715  17.953  0.00  0.00    +0.000 A 
ENDROOT
BRANCH   1  10
ATOM      7  O   UNL     1       1.218   3.375  20.267  0.00  0.00    +0.000 OA
ATOM      8  C   UNL     1       2.197   2.890  20.827  0.00  0.00    +0.000 C 
ATOM      9  N   UNL     1       2.067   2.321  22.082  0.00  0.00    +0.000 N 
ATOM     10  N   UNL     1       3.487   2.810  20.345  0.00  0.00    +0.000 N 
ATOM     11  H   UNL     1       2.802   2.525  22.751  0.00  0.00    +0.000 HD
ATOM     12  H   UNL     1       4.081   2.125  20.789  0.00  0.00    +0.000 HD
BRANCH   9  13
ATOM     13  O   UNL     1       0.757   2.488  22.622  0.00  0.00    +0.000 OA
ATOM     14  H   UNL     1       0.184   2.254  21.856  0.00  0.00    +0.000 HD
ENDBRANCH   9  13
ENDBRANCH   1  10
BRANCH   4  15
ATOM     15  N   UNL     1       5.523   5.019  15.562  0.00  0.00    +0.000 N 
ATOM     16  C   UNL     1       6.858   5.016  15.212  0.00  0.00    +0.000 C 
ATOM     17  O   UNL     1       7.810   4.609  15.873  0.00  0.00    +0.000 OA
ATOM     18  N   UNL     1       7.078   5.523  13.942  0.00  0.00    +0.000 N 
ATOM     19  H   UNL     1       4.870   5.284  14.840  0.00  0.00    +0.000 HD
ATOM     20  H   UNL     1       6.548   6.338  13.659  0.00  0.00    +0.000 HD
BRANCH  18  21
ATOM     21  O   UNL     1       8.467   5.612  13.627  0.00  0.00    +0.000 OA
ATOM     22  H   UNL     1       8.823   4.783  14.025  0.00  0.00    +0.000 HD
ENDBRANCH  18  21
ENDBRANCH   4  15
TORSDOF 4
ENDMDL
MODEL 4
REMARK VINA RESULT:      -6.4      1.626      1.679
REMARK  Name = 
REMARK  4 active torsions:
REMARK  status: ('A' for Active; 'I' for Inactive)
REMARK    1  A    between atoms: N_3  and  O_4
REMARK    2  A    between atoms: N_5  and  C_6
REMARK    3  A    between atoms: C_9  and  N_10
REMARK    4  A    between atoms: N_13  and  O_14
REMARK                            x       y       z     vdW  Elec       q    Type
REMARK                         _______ _______ _______ _____ _____    ______ ____
ROOT
ATOM      1  C   UNL     1       3.226   4.418  18.354  0.00  0.00    +0.000 A 
ATOM      2  C   UNL     1       3.634   3.305  17.627  0.00  0.00    +0.000 A 
ATOM      3  C   UNL     1       4.454   3.442  16.504  0.00  0.00    +0.000 A 
ATOM      4  C   UNL     1       4.874   4.698  16.072  0.00  0.00    +0.000 A 
ATOM      5  C   UNL     1       4.490   5.821  16.814  0.00  0.00    +0.000 A 
ATOM      6  C   UNL     1       3.662   5.683  17.943  0.00  0.00    +0.000 A 
ENDROOT
BRANCH   1  10
ATOM      7  O   UNL     1       3.415   2.634  20.704  0.00  0.00    +0.000 OA
ATOM      8  C   UNL     1       2.488   3.412  20.498  0.00  0.00    +0.000 C 
ATOM      9  N   UNL     1       1.413   3.457  21.369  0.00  0.00    +0.000 N 
ATOM     10  N   UNL     1       2.365   4.319  19.466  0.00  0.00    +0.000 N 
ATOM     11  H   UNL     1       0.492   3.527  20.950  0.00  0.00    +0.000 HD
ATOM     12  H   UNL     1       1.709   5.071  19.616  0.00  0.00    +0.000 HD
BRANCH   9  13
ATOM     13  O   UNL     1       1.493   2.455  22.382  0.00  0.00    +0.000 OA
ATOM     14  H   UNL     1       2.330   1.990  22.151  0.00  0.00    +0.000 HD
ENDBRANCH   9  13
ENDBRANCH   1  10
BRANCH   4  15
ATOM     15  N   UNL     1       5.651   4.883  14.907  0.00  0.00    +0.000 N 
ATOM     16  C   UNL     1       6.956   5.331  14.863  0.00  0.00    +0.000 C 
ATOM     17  O   UNL     1       7.671   5.665  15.804  0.00  0.00    +0.000 OA
ATOM     18  N   UNL     1       7.467   5.360  13.575  0.00  0.00    +0.000 N 
ATOM     19  H   UNL     1       5.265   4.541  14.040  0.00  0.00    +0.000 HD
ATOM     20  H   UNL     1       6.861   5.686  12.833  0.00  0.00    +0.000 HD
BRANCH  18  21
ATOM     21  O   UNL     1       8.778   5.919  13.526  0.00  0.00    +0.000 OA
ATOM     22  H   UNL     1       8.592   6.887  13.534  0.00  0.00    +0.000 HD
ENDBRANCH  18  21
ENDBRANCH   4  15
TORSDOF 4
ENDMDL
MODEL 5
REMARK VINA RESULT:      -6.4      1.688      7.131
REMARK  Name = 
REMARK  4 active torsions:
REMARK  status: ('A' for Active; 'I' for Inactive)
REMARK    1  A    between atoms: N_3  and  O_4
REMARK    2  A    between atoms: N_5  and  C_6
REMARK    3  A    between atoms: C_9  and  N_10
REMARK    4  A    between atoms: N_13  and  O_14
REMARK                            x       y       z     vdW  Elec       q    Type
REMARK                         _______ _______ _______ _____ _____    ______ ____
ROOT
ATOM      1  C   UNL     1       4.914   4.573  16.033  0.00  0.00    +0.000 A 
ATOM      2  C   UNL     1       4.538   5.688  16.775  0.00  0.00    +0.000 A 
ATOM      3  C   UNL     1       3.687   5.563  17.877  0.00  0.00    +0.000 A 
ATOM      4  C   UNL     1       3.182   4.321  18.255  0.00  0.00    +0.000 A 
ATOM      5  C   UNL     1       3.579   3.191  17.529  0.00  0.00    +0.000 A 
ATOM      6  C   UNL     1       4.432   3.317  16.419  0.00  0.00    +0.000 A 
ENDROOT
BRANCH   1  10
ATOM      7  O   UNL     1       7.670   5.619  15.803  0.00  0.00    +0.000 OA
ATOM      8  C   UNL     1       6.995   5.231  14.853  0.00  0.00    +0.000 C 
ATOM      9  N   UNL     1       7.496   5.315  13.565  0.00  0.00    +0.000 N 
ATOM     10  N   UNL     1       5.736   4.670  14.891  0.00  0.00    +0.000 N 
ATOM     11  H   UNL     1       6.851   5.629  12.847  0.00  0.00    +0.000 HD
ATOM     12  H   UNL     1       5.465   4.140  14.075  0.00  0.00    +0.000 HD
BRANCH   9  13
ATOM     13  O   UNL     1       8.756   5.982  13.515  0.00  0.00    +0.000 OA
ATOM     14  H   UNL     1       8.505   6.882  13.203  0.00  0.00    +0.000 HD
ENDBRANCH   9  13
ENDBRANCH   1  10
BRANCH   4  15
ATOM     15  N   UNL     1       2.272   4.160  19.323  0.00  0.00    +0.000 N 
ATOM     16  C   UNL     1       2.439   3.335  20.416  0.00  0.00    +0.000 C 
ATOM     17  O   UNL     1       3.380   2.582  20.656  0.00  0.00    +0.000 OA
ATOM     18  N   UNL     1       1.396   3.432  21.323  0.00  0.00    +0.000 N 
ATOM     19  H   UNL     1       1.490   4.796  19.357  0.00  0.00    +0.000 HD
ATOM     20  H   UNL     1       0.455   3.497  20.957  0.00  0.00    +0.000 HD
BRANCH  18  21
ATOM     21  O   UNL     1       1.524   2.502  22.398  0.00  0.00    +0.000 OA
ATOM     22  H   UNL     1       2.480   2.265  22.355  0.00  0.00    +0.000 HD
ENDBRANCH  18  21
ENDBRANCH   4  15
TORSDOF 4
ENDMDL
MODEL 6
REMARK VINA RESULT:      -6.3      0.542      6.861
REMARK  Name = 
REMARK  4 active torsions:
REMARK  status: ('A' for Active; 'I' for Inactive)
REMARK    1  A    between atoms: N_3  and  O_4
REMARK    2  A    between atoms: N_5  and  C_6
REMARK    3  A    between atoms: C_9  and  N_10
REMARK    4  A    between atoms: N_13  and  O_14
REMARK                            x       y       z     vdW  Elec       q    Type
REMARK                         _______ _______ _______ _____ _____    ______ ____
ROOT
ATOM      1  C   UNL     1       5.950   5.438  16.821  0.00  0.00    +0.000 A 
ATOM      2  C   UNL     1       6.436   4.841  17.979  0.00  0.00    +0.000 A 
ATOM      3  C   UNL     1       5.593   4.586  19.064  0.00  0.00    +0.000 A 
ATOM      4  C   UNL     1       4.245   4.936  19.021  0.00  0.00    +0.000 A 
ATOM      5  C   UNL     1       3.743   5.513  17.848  0.00  0.00    +0.000 A 
ATOM      6  C   UNL     1       4.592   5.771  16.758  0.00  0.00    +0.000 A 
ENDROOT
BRANCH   1  10
ATOM      7  O   UNL     1       5.955   4.283  14.099  0.00  0.00    +0.000 OA
ATOM      8  C   UNL     1       6.764   5.116  14.499  0.00  0.00    +0.000 C 
ATOM      9  N   UNL     1       7.794   5.536  13.674  0.00  0.00    +0.000 N 
ATOM     10  N   UNL     1       6.783   5.747  15.725  0.00  0.00    +0.000 N 
ATOM     11  H   UNL     1       8.707   5.638  14.104  0.00  0.00    +0.000 HD
ATOM     12  H   UNL     1       7.316   6.604  15.772  0.00  0.00    +0.000 HD
BRANCH   9  13
ATOM     13  O   UNL     1       7.832   4.816  12.443  0.00  0.00    +0.000 OA
ATOM     14  H   UNL     1       8.799   4.719  12.287  0.00  0.00    +0.000 HD
ENDBRANCH   9  13
ENDBRANCH   1  10
BRANCH   4  15
ATOM     15  N   UNL     1       3.374   4.753  20.117  0.00  0.00    +0.000 N 
ATOM     16  C   UNL     1       2.860   3.549  20.555  0.00  0.00    +0.000 C 
ATOM     17  O   UNL     1       3.039   2.433  20.074  0.00  0.00    +0.000 OA
ATOM     18  N   UNL     1       2.075   3.684  21.689  0.00  0.00    +0.000 N 
ATOM     19  H   UNL     1       3.213   5.552  20.712  0.00  0.00    +0.000 HD
ATOM     20  H   UNL     1       1.449   4.478  21.739  0.00  0.00    +0.000 HD
BRANCH  18  21
ATOM     21  O   UNL     1       1.464   2.454  22.075  0.00  0.00    +0.000 OA
ATOM     22  H   UNL     1       1.365   1.991  21.210  0.00  0.00    +0.000 HD
ENDBRANCH  18  21
ENDBRANCH   4  15
TORSDOF 4
ENDMDL
MODEL 7
REMARK VINA RESULT:      -6.3      0.451      1.281
REMARK  Name = 
REMARK  4 active torsions:
REMARK  status: ('A' for Active; 'I' for Inactive)
REMARK    1  A    between atoms: N_3  and  O_4
REMARK    2  A    between atoms: N_5  and  C_6
REMARK    3  A    between atoms: C_9  and  N_10
REMARK    4  A    between atoms: N_13  and  O_14
REMARK                            x       y       z     vdW  Elec       q    Type
REMARK                         _______ _______ _______ _____ _____    ______ ____
ROOT
ATOM      1  C   UNL     1       4.328   5.127  18.978  0.00  0.00    +0.000 A 
ATOM      2  C   UNL     1       3.940   5.909  17.896  0.00  0.00    +0.000 A 
ATOM      3  C   UNL     1       4.787   6.088  16.798  0.00  0.00    +0.000 A 
ATOM      4  C   UNL     1       6.049   5.498  16.764  0.00  0.00    +0.000 A 
ATOM      5  C   UNL     1       6.435   4.688  17.838  0.00  0.00    +0.000 A 
ATOM      6  C   UNL     1       5.584   4.511  18.943  0.00  0.00    +0.000 A 
ENDROOT
BRANCH   1  10
ATOM      7  O   UNL     1       3.235   2.639  20.143  0.00  0.00    +0.000 OA
ATOM      8  C   UNL     1       2.992   3.766  20.565  0.00  0.00    +0.000 C 
ATOM      9  N   UNL     1       2.114   3.937  21.622  0.00  0.00    +0.000 N 
ATOM     10  N   UNL     1       3.516   4.961  20.119  0.00  0.00    +0.000 N 
ATOM     11  H   UNL     1       1.457   4.706  21.547  0.00  0.00    +0.000 HD
ATOM     12  H   UNL     1       3.448   5.739  20.760  0.00  0.00    +0.000 HD
BRANCH   9  13
ATOM     13  O   UNL     1       1.500   2.713  22.021  0.00  0.00    +0.000 OA
ATOM     14  H   UNL     1       2.274   2.111  22.115  0.00  0.00    +0.000 HD
ENDBRANCH   9  13
ENDBRANCH   1  10
BRANCH   4  15
ATOM     15  N   UNL     1       6.958   5.704  15.703  0.00  0.00    +0.000 N 
ATOM     16  C   UNL     1       6.890   5.128  14.451  0.00  0.00    +0.000 C 
ATOM     17  O   UNL     1       6.057   4.328  14.033  0.00  0.00    +0.000 OA
ATOM     18  N   UNL     1       7.898   5.565  13.607  0.00  0.00    +0.000 N 
ATOM     19  H   UNL     1       7.646   6.432  15.826  0.00  0.00    +0.000 HD
ATOM     20  H   UNL     1       8.827   5.674  13.995  0.00  0.00    +0.000 HD
BRANCH  18  21
ATOM     21  O   UNL     1       7.884   4.890  12.350  0.00  0.00    +0.000 OA
ATOM     22  H   UNL     1       6.983   5.102  12.011  0.00  0.00    +0.000 HD
ENDBRANCH  18  21
ENDBRANCH   4  15
TORSDOF 4
ENDMDL
MODEL 8
REMARK VINA RESULT:      -6.3      0.276      6.869
REMARK  Name = 
REMARK  4 active torsions:
REMARK  status: ('A' for Active; 'I' for Inactive)
REMARK    1  A    between atoms: N_3  and  O_4
REMARK    2  A    between atoms: N_5  and  C_6
REMARK    3  A    between atoms: C_9  and  N_10
REMARK    4  A    between atoms: N_13  and  O_14
REMARK                            x       y       z     vdW  Elec       q    Type
REMARK                         _______ _______ _______ _____ _____    ______ ____
ROOT
ATOM      1  C   UNL     1       6.020   5.696  16.824  0.00  0.00    +0.000 A 
ATOM      2  C   UNL     1       4.834   6.405  16.980  0.00  0.00    +0.000 A 
ATOM      3  C   UNL     1       4.003   6.183  18.082  0.00  0.00    +0.000 A 
ATOM      4  C   UNL     1       4.333   5.235  19.048  0.00  0.00    +0.000 A 
ATOM      5  C   UNL     1       5.539   4.536  18.911  0.00  0.00    +0.000 A 
ATOM      6  C   UNL     1       6.373   4.758  17.801  0.00  0.00    +0.000 A 
ENDROOT
BRANCH   1  10
ATOM      7  O   UNL     1       5.860   4.410  14.167  0.00  0.00    +0.000 OA
ATOM      8  C   UNL     1       6.754   5.178  14.512  0.00  0.00    +0.000 C 
ATOM      9  N   UNL     1       7.805   5.451  13.652  0.00  0.00    +0.000 N 
ATOM     10  N   UNL     1       6.859   5.865  15.703  0.00  0.00    +0.000 N 
ATOM     11  H   UNL     1       8.732   5.483  14.064  0.00  0.00    +0.000 HD
ATOM     12  H   UNL     1       7.474   6.665  15.698  0.00  0.00    +0.000 HD
BRANCH   9  13
ATOM     13  O   UNL     1       7.748   4.669  12.460  0.00  0.00    +0.000 OA
ATOM     14  H   UNL     1       8.541   4.092  12.551  0.00  0.00    +0.000 HD
ENDBRANCH   9  13
ENDBRANCH   1  10
BRANCH   4  15
ATOM     15  N   UNL     1       3.492   4.936  20.142  0.00  0.00    +0.000 N 
ATOM     16  C   UNL     1       2.589   3.896  20.212  0.00  0.00    +0.000 C 
ATOM     17  O   UNL     1       2.333   3.059  19.350  0.00  0.00    +0.000 OA
ATOM     18  N   UNL     1       1.944   3.829  21.437  0.00  0.00    +0.000 N 
ATOM     19  H   UNL     1       3.652   5.449  20.996  0.00  0.00    +0.000 HD
ATOM     20  H   UNL     1       1.653   4.698  21.866  0.00  0.00    +0.000 HD
BRANCH  18  21
ATOM     21  O   UNL     1       0.940   2.817  21.467  0.00  0.00    +0.000 OA
ATOM     22  H   UNL     1       0.210   3.233  20.951  0.00  0.00    +0.000 HD
ENDBRANCH  18  21
ENDBRANCH   4  15
TORSDOF 4
ENDMDL
MODEL 9
REMARK VINA RESULT:      -6.3      1.517      1.648
REMARK  Name = 
REMARK  4 active torsions:
REMARK  status: ('A' for Active; 'I' for Inactive)
REMARK    1  A    between atoms: N_3  and  O_4
REMARK    2  A    between atoms: N_5  and  C_6
REMARK    3  A    between atoms: C_9  and  N_10
REMARK    4  A    between atoms: N_13  and  O_14
REMARK                            x       y       z     vdW  Elec       q    Type
REMARK                         _______ _______ _______ _____ _____    ______ ____
ROOT
ATOM      1  C   UNL     1       3.371   4.195  19.080  0.00  0.00    +0.000 A 
ATOM      2  C   UNL     1       4.427   5.053  19.369  0.00  0.00    +0.000 A 
ATOM      3  C   UNL     1       5.496   5.201  18.480  0.00  0.00    +0.000 A 
ATOM      4  C   UNL     1       5.540   4.483  17.287  0.00  0.00    +0.000 A 
ATOM      5  C   UNL     1       4.467   3.639  16.977  0.00  0.00    +0.000 A 
ATOM      6  C   UNL     1       3.394   3.487  17.872  0.00  0.00    +0.000 A 
ENDROOT
BRANCH   1  10
ATOM      7  O   UNL     1       3.243   2.457  21.468  0.00  0.00    +0.000 OA
ATOM      8  C   UNL     1       2.297   3.110  21.035  0.00  0.00    +0.000 C 
ATOM      9  N   UNL     1       1.056   3.020  21.642  0.00  0.00    +0.000 N 
ATOM     10  N   UNL     1       2.300   3.990  19.974  0.00  0.00    +0.000 N 
ATOM     11  H   UNL     1       0.252   2.971  21.026  0.00  0.00    +0.000 HD
ATOM     12  H   UNL     1       1.539   4.654  19.949  0.00  0.00    +0.000 HD
BRANCH   9  13
ATOM     13  O   UNL     1       1.028   2.040  22.678  0.00  0.00    +0.000 OA
ATOM     14  H   UNL     1       0.981   2.595  23.491  0.00  0.00    +0.000 HD
ENDBRANCH   9  13
ENDBRANCH   1  10
BRANCH   4  15
ATOM     15  N   UNL     1       6.630   4.557  16.392  0.00  0.00    +0.000 N 
ATOM     16  C   UNL     1       6.645   5.220  15.182  0.00  0.00    +0.000 C 
ATOM     17  O   UNL     1       5.728   5.843  14.652  0.00  0.00    +0.000 OA
ATOM     18  N   UNL     1       7.878   5.157  14.553  0.00  0.00    +0.000 N 
ATOM     19  H   UNL     1       7.516   4.203  16.720  0.00  0.00    +0.000 HD
ATOM     20  H   UNL     1       8.379   4.278  14.583  0.00  0.00    +0.000 HD
BRANCH  18  21
ATOM     21  O   UNL     1       7.857   5.755  13.258  0.00  0.00    +0.000 OA
ATOM     22  H   UNL     1       8.800   6.014  13.134  0.00  0.00    +0.000 HD
ENDBRANCH  18  21
ENDBRANCH   4  15
TORSDOF 4
ENDMDL
