MODEL 1
REMARK VINA RESULT:      -7.9      0.000      0.000
REMARK  Name = 
REMARK  10 active torsions:
REMARK  status: ('A' for Active; 'I' for Inactive)
REMARK    1  A    between atoms: C_1  and  C_2
REMARK    2  A    between atoms: C_5  and  C_6
REMARK    3  A    between atoms: C_7  and  S_8
REMARK    4  A    between atoms: S_8  and  N_11
REMARK    5  A    between atoms: N_11  and  C_12
REMARK    6  A    between atoms: C_12  and  C_13
REMARK    7  A    between atoms: C_18  and  N_19
REMARK    8  A    between atoms: N_19  and  C_20
REMARK    9  A    between atoms: N_19  and  C_21
REMARK   10  A    between atoms: C_21  and  C_22
REMARK                            x       y       z     vdW  Elec       q    Type
REMARK                         _______ _______ _______ _____ _____    ______ ____
ROOT
ATOM      1  C   UNL     1       4.808   5.634  18.765  0.00  0.00    +0.000 A 
ATOM      2  C   UNL     1       3.479   5.988  19.140  0.00  0.00    +0.000 A 
ATOM      3  C   UNL     1       2.720   6.902  18.424  0.00  0.00    +0.000 A 
ATOM      4  C   UNL     1       3.297   7.451  17.314  0.00  0.00    +0.000 A 
ATOM      5  N   UNL     1       4.553   7.165  16.928  0.00  0.00    +0.000 NA
ATOM      6  C   UNL     1       5.330   6.281  17.624  0.00  0.00    +0.000 A 
ENDROOT
BRANCH   6   7
ATOM      7  N   UNL     1       6.606   6.182  17.111  0.00  0.00    +0.000 N 
ATOM      8  C   UNL     1       7.425   7.393  17.169  0.00  0.00    +0.000 C 
BRANCH   7   9
ATOM      9  C   UNL     1       7.108   5.052  16.373  0.00  0.00    +0.000 C 
BRANCH   9  10
ATOM     10  C   UNL     1       6.714   4.852  14.932  0.00  0.00    +0.000 A 
ATOM     11  C   UNL     1       7.652   5.232  13.952  0.00  0.00    +0.000 A 
ATOM     12  C   UNL     1       7.542   4.777  12.643  0.00  0.00    +0.000 A 
ATOM     13  C   UNL     1       6.477   3.955  12.290  0.00  0.00    +0.000 A 
ATOM     14  C   UNL     1       5.506   3.623  13.237  0.00  0.00    +0.000 A 
ATOM     15  C   UNL     1       5.620   4.070  14.556  0.00  0.00    +0.000 A 
ENDBRANCH   9  10
ENDBRANCH   7   9
ENDBRANCH   6   7
BRANCH   1  16
ATOM     16  C   UNL     1       5.382   4.515  19.640  0.00  0.00    +0.000 C 
BRANCH  16  17
ATOM     17  N   UNL     1       5.381   3.128  19.201  0.00  0.00    +0.000 NA
ATOM     18  H   UNL     1       5.691   2.884  18.277  0.00  0.00    +0.000 HD
BRANCH  17  19
ATOM     19  S   UNL     1       4.236   2.045  19.781  0.00  0.00    +0.000 S 
ATOM     20  O   UNL     1       4.284   2.099  21.217  0.00  0.00    +0.000 OA
ATOM     21  O   UNL     1       4.447   0.824  19.040  0.00  0.00    +0.000 OA
BRANCH  19  28
ATOM     22  C   UNL     1       1.424   2.599  21.698  0.00  0.00    +0.000 C 
ATOM     23  C   UNL     1       1.529   2.690  20.226  0.00  0.00    +0.000 A 
ATOM     24  N   UNL     1       0.445   3.050  19.523  0.00  0.00    +0.000 NA
ATOM     25  O   UNL     1       0.868   3.199  18.219  0.00  0.00    +0.000 OA
ATOM     26  C   UNL     1       2.195   2.913  18.135  0.00  0.00    +0.000 A 
ATOM     27  C   UNL     1       2.815   3.151  16.818  0.00  0.00    +0.000 C 
ATOM     28  C   UNL     1       2.642   2.506  19.371  0.00  0.00    +0.000 A 
ENDBRANCH  19  28
ENDBRANCH  17  19
ENDBRANCH  16  17
ENDBRANCH   1  16
TORSDOF 7
ENDMDL
MODEL 2
REMARK VINA RESULT:      -7.7      0.423      1.571
REMARK  Name = 
REMARK  10 active torsions:
REMARK  status: ('A' for Active; 'I' for Inactive)
REMARK    1  A    between atoms: C_1  and  C_2
REMARK    2  A    between atoms: C_5  and  C_6
REMARK    3  A    between atoms: C_7  and  S_8
REMARK    4  A    between atoms: S_8  and  N_11
REMARK    5  A    between atoms: N_11  and  C_12
REMARK    6  A    between atoms: C_12  and  C_13
REMARK    7  A    between atoms: C_18  and  N_19
REMARK    8  A    between atoms: N_19  and  C_20
REMARK    9  A    between atoms: N_19  and  C_21
REMARK   10  A    between atoms: C_21  and  C_22
REMARK                            x       y       z     vdW  Elec       q    Type
REMARK                         _______ _______ _______ _____ _____    ______ ____
ROOT
ATOM      1  C   UNL     1       4.841   5.665  18.712  0.00  0.00    +0.000 A 
ATOM      2  C   UNL     1       3.516   6.078  19.039  0.00  0.00    +0.000 A 
ATOM      3  C   UNL     1       2.792   6.959  18.250  0.00  0.00    +0.000 A 
ATOM      4  C   UNL     1       3.400   7.417  17.116  0.00  0.00    +0.000 A 
ATOM      5  N   UNL     1       4.654   7.074  16.771  0.00  0.00    +0.000 NA
ATOM      6  C   UNL     1       5.397   6.221  17.539  0.00  0.00    +0.000 A 
ENDROOT
BRANCH   6   7
ATOM      7  N   UNL     1       6.677   6.055  17.056  0.00  0.00    +0.000 N 
ATOM      8  C   UNL     1       7.565   7.213  17.158  0.00  0.00    +0.000 C 
BRANCH   7   9
ATOM      9  C   UNL     1       7.131   4.911  16.309  0.00  0.00    +0.000 C 
BRANCH   9  10
ATOM     10  C   UNL     1       6.778   4.770  14.850  0.00  0.00    +0.000 A 
ATOM     11  C   UNL     1       7.677   5.325  13.917  0.00  0.00    +0.000 A 
ATOM     12  C   UNL     1       7.634   4.955  12.577  0.00  0.00    +0.000 A 
ATOM     13  C   UNL     1       6.677   4.043  12.148  0.00  0.00    +0.000 A 
ATOM     14  C   UNL     1       5.739   3.535  13.050  0.00  0.00    +0.000 A 
ATOM     15  C   UNL     1       5.786   3.896  14.399  0.00  0.00    +0.000 A 
ENDBRANCH   9  10
ENDBRANCH   7   9
ENDBRANCH   6   7
BRANCH   1  16
ATOM     16  C   UNL     1       5.371   4.594  19.670  0.00  0.00    +0.000 C 
BRANCH  16  17
ATOM     17  N   UNL     1       5.409   3.189  19.295  0.00  0.00    +0.000 NA
ATOM     18  H   UNL     1       5.804   2.904  18.417  0.00  0.00    +0.000 HD
BRANCH  17  19
ATOM     19  S   UNL     1       4.214   2.130  19.815  0.00  0.00    +0.000 S 
ATOM     20  O   UNL     1       4.284   2.074  21.250  0.00  0.00    +0.000 OA
ATOM     21  O   UNL     1       4.347   0.957  18.982  0.00  0.00    +0.000 OA
BRANCH  19  28
ATOM     22  C   UNL     1       2.661   2.962  16.851  0.00  0.00    +0.000 C 
ATOM     23  C   UNL     1       2.087   3.049  18.212  0.00  0.00    +0.000 A 
ATOM     24  N   UNL     1       0.820   3.466  18.351  0.00  0.00    +0.000 NA
ATOM     25  O   UNL     1       0.509   3.303  19.684  0.00  0.00    +0.000 OA
ATOM     26  C   UNL     1       1.589   2.808  20.347  0.00  0.00    +0.000 A 
ATOM     27  C   UNL     1       1.364   2.464  21.763  0.00  0.00    +0.000 C 
ATOM     28  C   UNL     1       2.642   2.706  19.467  0.00  0.00    +0.000 A 
ENDBRANCH  19  28
ENDBRANCH  17  19
ENDBRANCH  16  17
ENDBRANCH   1  16
TORSDOF 7
ENDMDL
MODEL 3
REMARK VINA RESULT:      -7.6      1.949      4.450
REMARK  Name = 
REMARK  10 active torsions:
REMARK  status: ('A' for Active; 'I' for Inactive)
REMARK    1  A    between atoms: C_1  and  C_2
REMARK    2  A    between atoms: C_5  and  C_6
REMARK    3  A    between atoms: C_7  and  S_8
REMARK    4  A    between atoms: S_8  and  N_11
REMARK    5  A    between atoms: N_11  and  C_12
REMARK    6  A    between atoms: C_12  and  C_13
REMARK    7  A    between atoms: C_18  and  N_19
REMARK    8  A    between atoms: N_19  and  C_20
REMARK    9  A    between atoms: N_19  and  C_21
REMARK   10  A    between atoms: C_21  and  C_22
REMARK                            x       y       z     vdW  Elec       q    Type
REMARK                         _______ _______ _______ _____ _____    ______ ____
ROOT
ATOM      1  C   UNL     1       6.018   5.591  18.715  0.00  0.00    +0.000 A 
ATOM      2  C   UNL     1       7.319   5.712  19.286  0.00  0.00    +0.000 A 
ATOM      3  C   UNL     1       8.241   6.652  18.851  0.00  0.00    +0.000 A 
ATOM      4  C   UNL     1       7.845   7.488  17.845  0.00  0.00    +0.000 A 
ATOM      5  N   UNL     1       6.638   7.404  17.259  0.00  0.00    +0.000 NA
ATOM      6  C   UNL     1       5.715   6.475  17.656  0.00  0.00    +0.000 A 
ENDROOT
BRANCH   6   7
ATOM      7  N   UNL     1       4.573   6.504  16.885  0.00  0.00    +0.000 N 
ATOM      8  C   UNL     1       4.752   6.842  15.473  0.00  0.00    +0.000 C 
BRANCH   7   9
ATOM      9  C   UNL     1       3.232   6.409  17.400  0.00  0.00    +0.000 C 
BRANCH   9  10
ATOM     10  C   UNL     1       2.701   7.470  18.331  0.00  0.00    +0.000 A 
ATOM     11  C   UNL     1       2.268   8.677  17.745  0.00  0.00    +0.000 A 
ATOM     12  C   UNL     1       1.455   9.560  18.448  0.00  0.00    +0.000 A 
ATOM     13  C   UNL     1       1.084   9.259  19.753  0.00  0.00    +0.000 A 
ATOM     14  C   UNL     1       1.559   8.098  20.367  0.00  0.00    +0.000 A 
ATOM     15  C   UNL     1       2.367   7.203  19.660  0.00  0.00    +0.000 A 
ENDBRANCH   9  10
ENDBRANCH   7   9
ENDBRANCH   6   7
BRANCH   1  16
ATOM     16  C   UNL     1       5.150   4.568  19.452  0.00  0.00    +0.000 C 
BRANCH  16  17
ATOM     17  N   UNL     1       5.392   3.138  19.335  0.00  0.00    +0.000 NA
ATOM     18  H   UNL     1       5.948   2.773  18.582  0.00  0.00    +0.000 HD
BRANCH  17  19
ATOM     19  S   UNL     1       4.244   2.028  19.858  0.00  0.00    +0.000 S 
ATOM     20  O   UNL     1       4.244   2.057  21.295  0.00  0.00    +0.000 OA
ATOM     21  O   UNL     1       4.498   0.824  19.102  0.00  0.00    +0.000 OA
BRANCH  19  28
ATOM     22  C   UNL     1       1.409   2.688  21.705  0.00  0.00    +0.000 C 
ATOM     23  C   UNL     1       1.535   2.705  20.232  0.00  0.00    +0.000 A 
ATOM     24  N   UNL     1       0.462   3.033  19.497  0.00  0.00    +0.000 NA
ATOM     25  O   UNL     1       0.903   3.115  18.193  0.00  0.00    +0.000 OA
ATOM     26  C   UNL     1       2.229   2.820  18.141  0.00  0.00    +0.000 A 
ATOM     27  C   UNL     1       2.869   2.989  16.823  0.00  0.00    +0.000 C 
ATOM     28  C   UNL     1       2.658   2.474  19.402  0.00  0.00    +0.000 A 
ENDBRANCH  19  28
ENDBRANCH  17  19
ENDBRANCH  16  17
ENDBRANCH   1  16
TORSDOF 7
ENDMDL
MODEL 4
REMARK VINA RESULT:      -7.6      1.940      4.684
REMARK  Name = 
REMARK  10 active torsions:
REMARK  status: ('A' for Active; 'I' for Inactive)
REMARK    1  A    between atoms: C_1  and  C_2
REMARK    2  A    between atoms: C_5  and  C_6
REMARK    3  A    between atoms: C_7  and  S_8
REMARK    4  A    between atoms: S_8  and  N_11
REMARK    5  A    between atoms: N_11  and  C_12
REMARK    6  A    between atoms: C_12  and  C_13
REMARK    7  A    between atoms: C_18  and  N_19
REMARK    8  A    between atoms: N_19  and  C_20
REMARK    9  A    between atoms: N_19  and  C_21
REMARK   10  A    between atoms: C_21  and  C_22
REMARK                            x       y       z     vdW  Elec       q    Type
REMARK                         _______ _______ _______ _____ _____    ______ ____
ROOT
ATOM      1  C   UNL     1       6.146   5.658  18.745  0.00  0.00    +0.000 A 
ATOM      2  C   UNL     1       7.444   5.848  19.304  0.00  0.00    +0.000 A 
ATOM      3  C   UNL     1       8.331   6.800  18.824  0.00  0.00    +0.000 A 
ATOM      4  C   UNL     1       7.903   7.577  17.784  0.00  0.00    +0.000 A 
ATOM      5  N   UNL     1       6.697   7.425  17.209  0.00  0.00    +0.000 NA
ATOM      6  C   UNL     1       5.809   6.483  17.651  0.00  0.00    +0.000 A 
ENDROOT
BRANCH   6   7
ATOM      7  N   UNL     1       4.664   6.439  16.885  0.00  0.00    +0.000 N 
ATOM      8  C   UNL     1       4.824   6.726  15.459  0.00  0.00    +0.000 C 
BRANCH   7   9
ATOM      9  C   UNL     1       3.329   6.315  17.411  0.00  0.00    +0.000 C 
BRANCH   9  10
ATOM     10  C   UNL     1       2.775   7.376  18.328  0.00  0.00    +0.000 A 
ATOM     11  C   UNL     1       2.355   8.582  17.733  0.00  0.00    +0.000 A 
ATOM     12  C   UNL     1       1.525   9.465  18.415  0.00  0.00    +0.000 A 
ATOM     13  C   UNL     1       1.123   9.163  19.712  0.00  0.00    +0.000 A 
ATOM     14  C   UNL     1       1.584   8.002  20.336  0.00  0.00    +0.000 A 
ATOM     15  C   UNL     1       2.409   7.108  19.649  0.00  0.00    +0.000 A 
ENDBRANCH   9  10
ENDBRANCH   7   9
ENDBRANCH   6   7
BRANCH   1  16
ATOM     16  C   UNL     1       5.317   4.638  19.532  0.00  0.00    +0.000 C 
BRANCH  16  17
ATOM     17  N   UNL     1       5.433   3.209  19.284  0.00  0.00    +0.000 NA
ATOM     18  H   UNL     1       5.896   2.868  18.460  0.00  0.00    +0.000 HD
BRANCH  17  19
ATOM     19  S   UNL     1       4.246   2.148  19.817  0.00  0.00    +0.000 S 
ATOM     20  O   UNL     1       4.318   2.110  21.253  0.00  0.00    +0.000 OA
ATOM     21  O   UNL     1       4.386   0.966  18.999  0.00  0.00    +0.000 OA
BRANCH  19  28
ATOM     22  C   UNL     1       2.665   2.879  16.841  0.00  0.00    +0.000 C 
ATOM     23  C   UNL     1       2.103   3.009  18.203  0.00  0.00    +0.000 A 
ATOM     24  N   UNL     1       0.836   3.428  18.339  0.00  0.00    +0.000 NA
ATOM     25  O   UNL     1       0.537   3.308  19.680  0.00  0.00    +0.000 OA
ATOM     26  C   UNL     1       1.623   2.837  20.349  0.00  0.00    +0.000 A 
ATOM     27  C   UNL     1       1.412   2.540  21.778  0.00  0.00    +0.000 C 
ATOM     28  C   UNL     1       2.670   2.709  19.464  0.00  0.00    +0.000 A 
ENDBRANCH  19  28
ENDBRANCH  17  19
ENDBRANCH  16  17
ENDBRANCH   1  16
TORSDOF 7
ENDMDL
MODEL 5
REMARK VINA RESULT:      -7.5      4.029      6.242
REMARK  Name = 
REMARK  10 active torsions:
REMARK  status: ('A' for Active; 'I' for Inactive)
REMARK    1  A    between atoms: C_1  and  C_2
REMARK    2  A    between atoms: C_5  and  C_6
REMARK    3  A    between atoms: C_7  and  S_8
REMARK    4  A    between atoms: S_8  and  N_11
REMARK    5  A    between atoms: N_11  and  C_12
REMARK    6  A    between atoms: C_12  and  C_13
REMARK    7  A    between atoms: C_18  and  N_19
REMARK    8  A    between atoms: N_19  and  C_20
REMARK    9  A    between atoms: N_19  and  C_21
REMARK   10  A    between atoms: C_21  and  C_22
REMARK                            x       y       z     vdW  Elec       q    Type
REMARK                         _______ _______ _______ _____ _____    ______ ____
ROOT
ATOM      1  C   UNL     1       2.112   4.951  20.110  0.00  0.00    +0.000 A 
ATOM      2  C   UNL     1       1.751   4.269  21.309  0.00  0.00    +0.000 A 
ATOM      3  C   UNL     1       2.289   3.040  21.659  0.00  0.00    +0.000 A 
ATOM      4  C   UNL     1       3.209   2.500  20.805  0.00  0.00    +0.000 A 
ATOM      5  N   UNL     1       3.570   3.093  19.653  0.00  0.00    +0.000 NA
ATOM      6  C   UNL     1       3.043   4.297  19.274  0.00  0.00    +0.000 A 
ENDROOT
BRANCH   6   7
ATOM      7  N   UNL     1       3.486   4.698  18.032  0.00  0.00    +0.000 N 
ATOM      8  C   UNL     1       3.450   3.689  16.973  0.00  0.00    +0.000 C 
BRANCH   7   9
ATOM      9  C   UNL     1       4.137   5.953  17.758  0.00  0.00    +0.000 C 
BRANCH   9  10
ATOM     10  C   UNL     1       5.631   6.081  17.916  0.00  0.00    +0.000 A 
ATOM     11  C   UNL     1       6.261   7.129  17.214  0.00  0.00    +0.000 A 
ATOM     12  C   UNL     1       7.542   7.548  17.556  0.00  0.00    +0.000 A 
ATOM     13  C   UNL     1       8.220   6.908  18.589  0.00  0.00    +0.000 A 
ATOM     14  C   UNL     1       7.632   5.827  19.249  0.00  0.00    +0.000 A 
ATOM     15  C   UNL     1       6.339   5.411  18.915  0.00  0.00    +0.000 A 
ENDBRANCH   9  10
ENDBRANCH   7   9
ENDBRANCH   6   7
BRANCH   1  16
ATOM     16  C   UNL     1       1.478   6.342  20.017  0.00  0.00    +0.000 C 
BRANCH  16  17
ATOM     17  N   UNL     1       2.050   7.488  20.707  0.00  0.00    +0.000 NA
ATOM     18  H   UNL     1       2.932   7.411  21.182  0.00  0.00    +0.000 HD
BRANCH  17  19
ATOM     19  S   UNL     1       1.059   8.646  21.413  0.00  0.00    +0.000 S 
ATOM     20  O   UNL     1       1.807   9.261  22.476  0.00  0.00    +0.000 OA
ATOM     21  O   UNL     1      -0.209   7.989  21.632  0.00  0.00    +0.000 OA
BRANCH  19  28
ATOM     22  C   UNL     1      -0.441  11.713  21.896  0.00  0.00    +0.000 C 
ATOM     23  C   UNL     1       0.038  11.148  20.615  0.00  0.00    +0.000 A 
ATOM     24  N   UNL     1      -0.080  11.886  19.502  0.00  0.00    +0.000 NA
ATOM     25  O   UNL     1       0.575  11.187  18.510  0.00  0.00    +0.000 OA
ATOM     26  C   UNL     1       1.069  10.027  19.020  0.00  0.00    +0.000 A 
ATOM     27  C   UNL     1       1.904   9.231  18.101  0.00  0.00    +0.000 C 
ATOM     28  C   UNL     1       0.682   9.919  20.337  0.00  0.00    +0.000 A 
ENDBRANCH  19  28
ENDBRANCH  17  19
ENDBRANCH  16  17
ENDBRANCH   1  16
TORSDOF 7
ENDMDL
MODEL 6
REMARK VINA RESULT:      -7.2      1.748      2.956
REMARK  Name = 
REMARK  10 active torsions:
REMARK  status: ('A' for Active; 'I' for Inactive)
REMARK    1  A    between atoms: C_1  and  C_2
REMARK    2  A    between atoms: C_5  and  C_6
REMARK    3  A    between atoms: C_7  and  S_8
REMARK    4  A    between atoms: S_8  and  N_11
REMARK    5  A    between atoms: N_11  and  C_12
REMARK    6  A    between atoms: C_12  and  C_13
REMARK    7  A    between atoms: C_18  and  N_19
REMARK    8  A    between atoms: N_19  and  C_20
REMARK    9  A    between atoms: N_19  and  C_21
REMARK   10  A    between atoms: C_21  and  C_22
REMARK                            x       y       z     vdW  Elec       q    Type
REMARK                         _______ _______ _______ _____ _____    ______ ____
ROOT
ATOM      1  C   UNL     1       6.643   5.685  18.324  0.00  0.00    +0.000 A 
ATOM      2  C   UNL     1       7.703   6.192  19.132  0.00  0.00    +0.000 A 
ATOM      3  C   UNL     1       8.413   7.336  18.800  0.00  0.00    +0.000 A 
ATOM      4  C   UNL     1       8.044   7.983  17.655  0.00  0.00    +0.000 A 
ATOM      5  N   UNL     1       7.065   7.537  16.848  0.00  0.00    +0.000 NA
ATOM      6  C   UNL     1       6.360   6.402  17.141  0.00  0.00    +0.000 A 
ENDROOT
BRANCH   6   7
ATOM      7  N   UNL     1       5.454   6.075  16.156  0.00  0.00    +0.000 N 
ATOM      8  C   UNL     1       4.401   7.056  15.891  0.00  0.00    +0.000 C 
BRANCH   7   9
ATOM      9  C   UNL     1       5.365   4.788  15.516  0.00  0.00    +0.000 C 
BRANCH   9  10
ATOM     10  C   UNL     1       6.226   4.477  14.319  0.00  0.00    +0.000 A 
ATOM     11  C   UNL     1       5.711   3.559  13.381  0.00  0.00    +0.000 A 
ATOM     12  C   UNL     1       6.246   3.470  12.101  0.00  0.00    +0.000 A 
ATOM     13  C   UNL     1       7.319   4.282  11.748  0.00  0.00    +0.000 A 
ATOM     14  C   UNL     1       7.879   5.149  12.689  0.00  0.00    +0.000 A 
ATOM     15  C   UNL     1       7.337   5.249  13.973  0.00  0.00    +0.000 A 
ENDBRANCH   9  10
ENDBRANCH   7   9
ENDBRANCH   6   7
BRANCH   1  16
ATOM     16  C   UNL     1       5.938   4.489  18.971  0.00  0.00    +0.000 C 
BRANCH  16  17
ATOM     17  N   UNL     1       5.175   3.536  18.181  0.00  0.00    +0.000 NA
ATOM     18  H   UNL     1       5.458   3.305  17.245  0.00  0.00    +0.000 HD
BRANCH  17  19
ATOM     19  S   UNL     1       3.515   3.386  18.386  0.00  0.00    +0.000 S 
ATOM     20  O   UNL     1       3.091   2.238  17.632  0.00  0.00    +0.000 OA
ATOM     21  O   UNL     1       2.976   4.708  18.162  0.00  0.00    +0.000 OA
BRANCH  19  28
ATOM     22  C   UNL     1       0.690   4.083  20.238  0.00  0.00    +0.000 C 
ATOM     23  C   UNL     1       1.909   3.384  20.702  0.00  0.00    +0.000 A 
ATOM     24  N   UNL     1       1.951   2.933  21.964  0.00  0.00    +0.000 NA
ATOM     25  O   UNL     1       3.117   2.204  22.069  0.00  0.00    +0.000 OA
ATOM     26  C   UNL     1       3.781   2.232  20.882  0.00  0.00    +0.000 A 
ATOM     27  C   UNL     1       4.989   1.389  20.808  0.00  0.00    +0.000 C 
ATOM     28  C   UNL     1       3.091   3.038  20.005  0.00  0.00    +0.000 A 
ENDBRANCH  19  28
ENDBRANCH  17  19
ENDBRANCH  16  17
ENDBRANCH   1  16
TORSDOF 7
ENDMDL
MODEL 7
REMARK VINA RESULT:      -7.2      1.566      4.504
REMARK  Name = 
REMARK  10 active torsions:
REMARK  status: ('A' for Active; 'I' for Inactive)
REMARK    1  A    between atoms: C_1  and  C_2
REMARK    2  A    between atoms: C_5  and  C_6
REMARK    3  A    between atoms: C_7  and  S_8
REMARK    4  A    between atoms: S_8  and  N_11
REMARK    5  A    between atoms: N_11  and  C_12
REMARK    6  A    between atoms: C_12  and  C_13
REMARK    7  A    between atoms: C_18  and  N_19
REMARK    8  A    between atoms: N_19  and  C_20
REMARK    9  A    between atoms: N_19  and  C_21
REMARK   10  A    between atoms: C_21  and  C_22
REMARK                            x       y       z     vdW  Elec       q    Type
REMARK                         _______ _______ _______ _____ _____    ______ ____
ROOT
ATOM      1  C   UNL     1       5.462   4.290  15.414  0.00  0.00    +0.000 A 
ATOM      2  C   UNL     1       5.465   3.823  14.067  0.00  0.00    +0.000 A 
ATOM      3  C   UNL     1       6.493   4.106  13.181  0.00  0.00    +0.000 A 
ATOM      4  C   UNL     1       7.534   4.851  13.657  0.00  0.00    +0.000 A 
ATOM      5  N   UNL     1       7.571   5.333  14.913  0.00  0.00    +0.000 NA
ATOM      6  C   UNL     1       6.563   5.084  15.803  0.00  0.00    +0.000 A 
ENDROOT
BRANCH   6   7
ATOM      7  N   UNL     1       6.754   5.724  17.008  0.00  0.00    +0.000 N 
ATOM      8  C   UNL     1       7.635   5.054  17.966  0.00  0.00    +0.000 C 
BRANCH   7   9
ATOM      9  C   UNL     1       6.020   6.881  17.449  0.00  0.00    +0.000 C 
BRANCH   9  10
ATOM     10  C   UNL     1       4.596   6.740  17.924  0.00  0.00    +0.000 A 
ATOM     11  C   UNL     1       4.375   5.927  19.054  0.00  0.00    +0.000 A 
ATOM     12  C   UNL     1       3.186   6.008  19.770  0.00  0.00    +0.000 A 
ATOM     13  C   UNL     1       2.192   6.886  19.351  0.00  0.00    +0.000 A 
ATOM     14  C   UNL     1       2.373   7.649  18.196  0.00  0.00    +0.000 A 
ATOM     15  C   UNL     1       3.572   7.579  17.480  0.00  0.00    +0.000 A 
ENDBRANCH   9  10
ENDBRANCH   7   9
ENDBRANCH   6   7
BRANCH   1  16
ATOM     16  C   UNL     1       4.283   3.738  16.220  0.00  0.00    +0.000 C 
BRANCH  16  17
ATOM     17  N   UNL     1       4.483   3.029  17.475  0.00  0.00    +0.000 NA
ATOM     18  H   UNL     1       5.408   2.788  17.784  0.00  0.00    +0.000 HD
BRANCH  17  19
ATOM     19  S   UNL     1       3.332   1.945  18.040  0.00  0.00    +0.000 S 
ATOM     20  O   UNL     1       3.964   0.656  18.129  0.00  0.00    +0.000 OA
ATOM     21  O   UNL     1       2.152   2.181  17.242  0.00  0.00    +0.000 OA
BRANCH  19  28
ATOM     22  C   UNL     1       4.988   1.845  21.063  0.00  0.00    +0.000 C 
ATOM     23  C   UNL     1       3.574   2.215  20.835  0.00  0.00    +0.000 A 
ATOM     24  N   UNL     1       2.827   2.583  21.885  0.00  0.00    +0.000 NA
ATOM     25  O   UNL     1       1.624   3.012  21.366  0.00  0.00    +0.000 OA
ATOM     26  C   UNL     1       1.640   2.885  20.012  0.00  0.00    +0.000 A 
ATOM     27  C   UNL     1       0.462   3.423  19.307  0.00  0.00    +0.000 C 
ATOM     28  C   UNL     1       2.830   2.306  19.634  0.00  0.00    +0.000 A 
ENDBRANCH  19  28
ENDBRANCH  17  19
ENDBRANCH  16  17
ENDBRANCH   1  16
TORSDOF 7
ENDMDL
MODEL 8
REMARK VINA RESULT:      -7.2      0.407      1.027
REMARK  Name = 
REMARK  10 active torsions:
REMARK  status: ('A' for Active; 'I' for Inactive)
REMARK    1  A    between atoms: C_1  and  C_2
REMARK    2  A    between atoms: C_5  and  C_6
REMARK    3  A    between atoms: C_7  and  S_8
REMARK    4  A    between atoms: S_8  and  N_11
REMARK    5  A    between atoms: N_11  and  C_12
REMARK    6  A    between atoms: C_12  and  C_13
REMARK    7  A    between atoms: C_18  and  N_19
REMARK    8  A    between atoms: N_19  and  C_20
REMARK    9  A    between atoms: N_19  and  C_21
REMARK   10  A    between atoms: C_21  and  C_22
REMARK                            x       y       z     vdW  Elec       q    Type
REMARK                         _______ _______ _______ _____ _____    ______ ____
ROOT
ATOM      1  C   UNL     1       4.733   5.689  18.859  0.00  0.00    +0.000 A 
ATOM      2  C   UNL     1       3.361   6.006  19.082  0.00  0.00    +0.000 A 
ATOM      3  C   UNL     1       2.673   6.930  18.310  0.00  0.00    +0.000 A 
ATOM      4  C   UNL     1       3.367   7.527  17.296  0.00  0.00    +0.000 A 
ATOM      5  N   UNL     1       4.666   7.278  17.055  0.00  0.00    +0.000 NA
ATOM      6  C   UNL     1       5.374   6.385  17.811  0.00  0.00    +0.000 A 
ENDROOT
BRANCH   6   7
ATOM      7  N   UNL     1       6.703   6.327  17.452  0.00  0.00    +0.000 N 
ATOM      8  C   UNL     1       7.414   7.604  17.384  0.00  0.00    +0.000 C 
BRANCH   7   9
ATOM      9  C   UNL     1       7.373   5.146  16.971  0.00  0.00    +0.000 C 
BRANCH   9  10
ATOM     10  C   UNL     1       7.043   4.590  15.609  0.00  0.00    +0.000 A 
ATOM     11  C   UNL     1       5.920   3.743  15.518  0.00  0.00    +0.000 A 
ATOM     12  C   UNL     1       5.332   3.466  14.289  0.00  0.00    +0.000 A 
ATOM     13  C   UNL     1       5.873   4.014  13.132  0.00  0.00    +0.000 A 
ATOM     14  C   UNL     1       7.023   4.803  13.201  0.00  0.00    +0.000 A 
ATOM     15  C   UNL     1       7.611   5.092  14.436  0.00  0.00    +0.000 A 
ENDBRANCH   9  10
ENDBRANCH   7   9
ENDBRANCH   6   7
BRANCH   1  16
ATOM     16  C   UNL     1       5.223   4.551  19.760  0.00  0.00    +0.000 C 
BRANCH  16  17
ATOM     17  N   UNL     1       5.307   3.181  19.279  0.00  0.00    +0.000 NA
ATOM     18  H   UNL     1       5.663   2.982  18.360  0.00  0.00    +0.000 HD
BRANCH  17  19
ATOM     19  S   UNL     1       4.196   2.025  19.782  0.00  0.00    +0.000 S 
ATOM     20  O   UNL     1       4.262   1.963  21.217  0.00  0.00    +0.000 OA
ATOM     21  O   UNL     1       4.427   0.874  18.941  0.00  0.00    +0.000 OA
BRANCH  19  28
ATOM     22  C   UNL     1       1.466   2.621  21.802  0.00  0.00    +0.000 C 
ATOM     23  C   UNL     1       1.510   2.681  20.325  0.00  0.00    +0.000 A 
ATOM     24  N   UNL     1       0.397   3.025  19.661  0.00  0.00    +0.000 NA
ATOM     25  O   UNL     1       0.765   3.146  18.338  0.00  0.00    +0.000 OA
ATOM     26  C   UNL     1       2.087   2.858  18.204  0.00  0.00    +0.000 A 
ATOM     27  C   UNL     1       2.652   3.068  16.857  0.00  0.00    +0.000 C 
ATOM     28  C   UNL     1       2.586   2.477  19.428  0.00  0.00    +0.000 A 
ENDBRANCH  19  28
ENDBRANCH  17  19
ENDBRANCH  16  17
ENDBRANCH   1  16
TORSDOF 7
ENDMDL
MODEL 9
REMARK VINA RESULT:      -7.2      4.144      6.032
REMARK  Name = 
REMARK  10 active torsions:
REMARK  status: ('A' for Active; 'I' for Inactive)
REMARK    1  A    between atoms: C_1  and  C_2
REMARK    2  A    between atoms: C_5  and  C_6
REMARK    3  A    between atoms: C_7  and  S_8
REMARK    4  A    between atoms: S_8  and  N_11
REMARK    5  A    between atoms: N_11  and  C_12
REMARK    6  A    between atoms: C_12  and  C_13
REMARK    7  A    between atoms: C_18  and  N_19
REMARK    8  A    between atoms: N_19  and  C_20
REMARK    9  A    between atoms: N_19  and  C_21
REMARK   10  A    between atoms: C_21  and  C_22
REMARK                            x       y       z     vdW  Elec       q    Type
REMARK                         _______ _______ _______ _____ _____    ______ ____
ROOT
ATOM      1  C   UNL     1       1.970   5.100  20.079  0.00  0.00    +0.000 A 
ATOM      2  C   UNL     1       0.881   4.230  20.380  0.00  0.00    +0.000 A 
ATOM      3  C   UNL     1       0.691   3.020  19.729  0.00  0.00    +0.000 A 
ATOM      4  C   UNL     1       1.612   2.676  18.780  0.00  0.00    +0.000 A 
ATOM      5  N   UNL     1       2.645   3.468  18.445  0.00  0.00    +0.000 NA
ATOM      6  C   UNL     1       2.847   4.674  19.058  0.00  0.00    +0.000 A 
ENDROOT
BRANCH   6   7
ATOM      7  N   UNL     1       3.914   5.365  18.524  0.00  0.00    +0.000 N 
ATOM      8  C   UNL     1       3.596   6.613  17.828  0.00  0.00    +0.000 C 
BRANCH   7   9
ATOM      9  C   UNL     1       5.261   4.863  18.444  0.00  0.00    +0.000 C 
BRANCH   9  10
ATOM     10  C   UNL     1       5.888   4.586  17.101  0.00  0.00    +0.000 A 
ATOM     11  C   UNL     1       5.061   4.012  16.114  0.00  0.00    +0.000 A 
ATOM     12  C   UNL     1       5.425   4.041  14.773  0.00  0.00    +0.000 A 
ATOM     13  C   UNL     1       6.632   4.624  14.402  0.00  0.00    +0.000 A 
ATOM     14  C   UNL     1       7.490   5.138  15.377  0.00  0.00    +0.000 A 
ATOM     15  C   UNL     1       7.122   5.121  16.726  0.00  0.00    +0.000 A 
ENDBRANCH   9  10
ENDBRANCH   7   9
ENDBRANCH   6   7
BRANCH   1  16
ATOM     16  C   UNL     1       2.028   6.307  21.020  0.00  0.00    +0.000 C 
BRANCH  16  17
ATOM     17  N   UNL     1       1.836   7.664  20.531  0.00  0.00    +0.000 NA
ATOM     18  H   UNL     1       2.551   8.119  19.991  0.00  0.00    +0.000 HD
BRANCH  17  19
ATOM     19  S   UNL     1       0.913   8.766  21.400  0.00  0.00    +0.000 S 
ATOM     20  O   UNL     1       1.711   9.215  22.508  0.00  0.00    +0.000 OA
ATOM     21  O   UNL     1      -0.377   8.139  21.572  0.00  0.00    +0.000 OA
BRANCH  19  28
ATOM     22  C   UNL     1       1.160   9.473  18.034  0.00  0.00    +0.000 C 
ATOM     23  C   UNL     1       0.722  10.392  19.107  0.00  0.00    +0.000 A 
ATOM     24  N   UNL     1       0.346  11.636  18.776  0.00  0.00    +0.000 NA
ATOM     25  O   UNL     1      -0.148  12.205  19.930  0.00  0.00    +0.000 OA
ATOM     26  C   UNL     1      -0.053  11.315  20.954  0.00  0.00    +0.000 A 
ATOM     27  C   UNL     1      -0.660  11.743  22.229  0.00  0.00    +0.000 C 
ATOM     28  C   UNL     1       0.569  10.176  20.497  0.00  0.00    +0.000 A 
ENDBRANCH  19  28
ENDBRANCH  17  19
ENDBRANCH  16  17
ENDBRANCH   1  16
TORSDOF 7
ENDMDL
