MODEL 1
REMARK VINA RESULT:      -6.9      0.000      0.000
REMARK  Name = 
REMARK  6 active torsions:
REMARK  status: ('A' for Active; 'I' for Inactive)
REMARK    1  A    between atoms: C_1  and  C_2
REMARK    2  A    between atoms: C_2  and  C_3
REMARK    3  A    between atoms: C_2  and  C_4
REMARK    4  A    between atoms: C_7  and  C_8
REMARK    5  A    between atoms: C_13  and  C_15
REMARK    6  A    between atoms: N_20  and  C_21
REMARK                            x       y       z     vdW  Elec       q    Type
REMARK                         _______ _______ _______ _____ _____    ______ ____
ROOT
ATOM      1  C   UNL     1       1.059  10.576  19.216  0.00  0.00    +0.000 C 
ATOM      2  C   UNL     1       1.757  10.379  17.860  0.00  0.00    +0.000 C 
ATOM      3  C   UNL     1       1.819   8.918  17.438  0.00  0.00    +0.000 C 
ATOM      4  C   UNL     1       2.442   8.064  18.526  0.00  0.00    +0.000 C 
ATOM      5  N   UNL     1       1.696   8.175  19.776  0.00  0.00    +0.000 N 
ATOM      6  C   UNL     1       1.524   7.120  20.686  0.00  0.00    +0.000 C 
ATOM      7  O   UNL     1       1.025   7.261  21.800  0.00  0.00    +0.000 OA
ATOM      8  C   UNL     1       1.481   9.538  20.274  0.00  0.00    +0.000 C 
ENDROOT
BRANCH   6   9
ATOM      9  C   UNL     1       1.939   5.697  20.300  0.00  0.00    +0.000 A 
ATOM     10  C   UNL     1       0.872   4.675  20.349  0.00  0.00    +0.000 A 
ATOM     11  C   UNL     1       1.200   3.432  20.004  0.00  0.00    +0.000 A 
ATOM     12  C   UNL     1       2.573   3.111  19.537  0.00  0.00    +0.000 A 
ATOM     13  O   UNL     1       2.814   1.970  19.156  0.00  0.00    +0.000 OA
ATOM     14  N   UNL     1       3.480   4.160  19.569  0.00  0.00    +0.000 N 
ATOM     15  C   UNL     1       4.820   3.986  19.035  0.00  0.00    +0.000 C 
ATOM     16  N   UNL     1       3.171   5.438  19.981  0.00  0.00    +0.000 NA
ENDBRANCH   6   9
BRANCH   1  20
ATOM     17  C   UNL     1      -2.408  10.634  17.988  0.00  0.00    +0.000 A 
ATOM     18  C   UNL     1      -2.692  11.565  18.969  0.00  0.00    +0.000 A 
ATOM     19  S   UNL     1      -1.347  11.763  20.006  0.00  0.00    +0.000 S 
ATOM     20  C   UNL     1      -0.439  10.673  19.022  0.00  0.00    +0.000 A 
ATOM     21  N   UNL     1      -1.124  10.105  18.050  0.00  0.00    +0.000 NA
BRANCH  17  23
ATOM     22  C   UNL     1      -4.389  11.278  16.594  0.00  0.00    +0.000 C 
ATOM     23  C   UNL     1      -3.329  10.211  16.875  0.00  0.00    +0.000 C 
ATOM     24  C   UNL     1      -2.558   9.867  15.602  0.00  0.00    +0.000 C 
ENDBRANCH  17  23
ENDBRANCH   1  20
TORSDOF 3
ENDMDL
MODEL 2
REMARK VINA RESULT:      -6.7      3.125      4.911
REMARK  Name = 
REMARK  6 active torsions:
REMARK  status: ('A' for Active; 'I' for Inactive)
REMARK    1  A    between atoms: C_1  and  C_2
REMARK    2  A    between atoms: C_2  and  C_3
REMARK    3  A    between atoms: C_2  and  C_4
REMARK    4  A    between atoms: C_7  and  C_8
REMARK    5  A    between atoms: C_13  and  C_15
REMARK    6  A    between atoms: N_20  and  C_21
REMARK                            x       y       z     vdW  Elec       q    Type
REMARK                         _______ _______ _______ _____ _____    ______ ____
ROOT
ATOM      1  C   UNL     1       0.393  10.937  20.203  0.00  0.00    +0.000 C 
ATOM      2  C   UNL     1       0.315  10.329  21.614  0.00  0.00    +0.000 C 
ATOM      3  C   UNL     1       1.367   9.255  21.849  0.00  0.00    +0.000 C 
ATOM      4  C   UNL     1       1.310   8.192  20.769  0.00  0.00    +0.000 C 
ATOM      5  N   UNL     1       1.503   8.775  19.444  0.00  0.00    +0.000 N 
ATOM      6  C   UNL     1       2.171   8.132  18.391  0.00  0.00    +0.000 C 
ATOM      7  O   UNL     1       2.198   8.565  17.241  0.00  0.00    +0.000 OA
ATOM      8  C   UNL     1       0.609   9.886  19.099  0.00  0.00    +0.000 C 
ENDROOT
BRANCH   6   9
ATOM      9  C   UNL     1       2.946   6.836  18.649  0.00  0.00    +0.000 A 
ATOM     10  C   UNL     1       4.269   6.731  17.999  0.00  0.00    +0.000 A 
ATOM     11  C   UNL     1       4.972   5.623  18.218  0.00  0.00    +0.000 A 
ATOM     12  C   UNL     1       4.459   4.566  19.128  0.00  0.00    +0.000 A 
ATOM     13  O   UNL     1       5.170   3.595  19.363  0.00  0.00    +0.000 OA
ATOM     14  N   UNL     1       3.191   4.783  19.647  0.00  0.00    +0.000 N 
ATOM     15  C   UNL     1       2.635   3.868  20.630  0.00  0.00    +0.000 C 
ATOM     16  N   UNL     1       2.425   5.897  19.381  0.00  0.00    +0.000 NA
ENDBRANCH   6   9
BRANCH   1  20
ATOM     17  C   UNL     1       2.454  13.927  20.786  0.00  0.00    +0.000 A 
ATOM     18  C   UNL     1       2.686  13.977  19.425  0.00  0.00    +0.000 A 
ATOM     19  S   UNL     1       2.039  12.591  18.662  0.00  0.00    +0.000 S 
ATOM     20  C   UNL     1       1.403  12.065  20.177  0.00  0.00    +0.000 A 
ATOM     21  N   UNL     1       1.747  12.809  21.209  0.00  0.00    +0.000 NA
BRANCH  17  23
ATOM     22  C   UNL     1       4.247  14.716  22.351  0.00  0.00    +0.000 C 
ATOM     23  C   UNL     1       2.848  14.978  21.790  0.00  0.00    +0.000 C 
ATOM     24  C   UNL     1       2.757  16.385  21.201  0.00  0.00    +0.000 C 
ENDBRANCH  17  23
ENDBRANCH   1  20
TORSDOF 3
ENDMDL
MODEL 3
REMARK VINA RESULT:      -6.6      3.057      7.893
REMARK  Name = 
REMARK  6 active torsions:
REMARK  status: ('A' for Active; 'I' for Inactive)
REMARK    1  A    between atoms: C_1  and  C_2
REMARK    2  A    between atoms: C_2  and  C_3
REMARK    3  A    between atoms: C_2  and  C_4
REMARK    4  A    between atoms: C_7  and  C_8
REMARK    5  A    between atoms: C_13  and  C_15
REMARK    6  A    between atoms: N_20  and  C_21
REMARK                            x       y       z     vdW  Elec       q    Type
REMARK                         _______ _______ _______ _____ _____    ______ ____
ROOT
ATOM      1  C   UNL     1       1.836   8.489  20.641  0.00  0.00    +0.000 C 
ATOM      2  C   UNL     1       1.135   8.523  22.009  0.00  0.00    +0.000 C 
ATOM      3  C   UNL     1      -0.370   8.722  21.893  0.00  0.00    +0.000 C 
ATOM      4  C   UNL     1      -0.693   9.947  21.059  0.00  0.00    +0.000 C 
ATOM      5  N   UNL     1      -0.115   9.841  19.722  0.00  0.00    +0.000 N 
ATOM      6  C   UNL     1      -0.721  10.346  18.561  0.00  0.00    +0.000 C 
ATOM      7  O   UNL     1      -0.161  10.386  17.467  0.00  0.00    +0.000 OA
ATOM      8  C   UNL     1       1.325   9.568  19.668  0.00  0.00    +0.000 C 
ENDROOT
BRANCH   6   9
ATOM      9  C   UNL     1      -2.164  10.857  18.606  0.00  0.00    +0.000 A 
ATOM     10  C   UNL     1      -3.126  10.160  17.728  0.00  0.00    +0.000 A 
ATOM     11  C   UNL     1      -4.391  10.572  17.758  0.00  0.00    +0.000 A 
ATOM     12  C   UNL     1      -4.816  11.653  18.684  0.00  0.00    +0.000 A 
ATOM     13  O   UNL     1      -6.004  11.952  18.735  0.00  0.00    +0.000 OA
ATOM     14  N   UNL     1      -3.803  12.238  19.430  0.00  0.00    +0.000 N 
ATOM     15  C   UNL     1      -4.119  13.230  20.443  0.00  0.00    +0.000 C 
ATOM     16  N   UNL     1      -2.479  11.864  19.365  0.00  0.00    +0.000 NA
ENDBRANCH   6   9
BRANCH   1  20
ATOM     17  C   UNL     1       1.654   4.868  20.019  0.00  0.00    +0.000 A 
ATOM     18  C   UNL     1       2.453   5.064  18.909  0.00  0.00    +0.000 A 
ATOM     19  S   UNL     1       2.688   6.735  18.636  0.00  0.00    +0.000 S 
ATOM     20  C   UNL     1       1.797   7.087  20.072  0.00  0.00    +0.000 A 
ATOM     21  N   UNL     1       1.257   6.037  20.657  0.00  0.00    +0.000 NA
BRANCH  17  23
ATOM     22  C   UNL     1       1.061   2.490  19.492  0.00  0.00    +0.000 C 
ATOM     23  C   UNL     1       1.247   3.536  20.592  0.00  0.00    +0.000 C 
ATOM     24  C   UNL     1       2.243   3.045  21.642  0.00  0.00    +0.000 C 
ENDBRANCH  17  23
ENDBRANCH   1  20
TORSDOF 3
ENDMDL
MODEL 4
REMARK VINA RESULT:      -6.6      3.049      4.689
REMARK  Name = 
REMARK  6 active torsions:
REMARK  status: ('A' for Active; 'I' for Inactive)
REMARK    1  A    between atoms: C_1  and  C_2
REMARK    2  A    between atoms: C_2  and  C_3
REMARK    3  A    between atoms: C_2  and  C_4
REMARK    4  A    between atoms: C_7  and  C_8
REMARK    5  A    between atoms: C_13  and  C_15
REMARK    6  A    between atoms: N_20  and  C_21
REMARK                            x       y       z     vdW  Elec       q    Type
REMARK                         _______ _______ _______ _____ _____    ______ ____
ROOT
ATOM      1  C   UNL     1       0.435  10.732  20.057  0.00  0.00    +0.000 C 
ATOM      2  C   UNL     1       0.278  10.161  21.476  0.00  0.00    +0.000 C 
ATOM      3  C   UNL     1       1.310   9.089  21.796  0.00  0.00    +0.000 C 
ATOM      4  C   UNL     1       1.305   7.999  20.742  0.00  0.00    +0.000 C 
ATOM      5  N   UNL     1       1.573   8.546  19.415  0.00  0.00    +0.000 N 
ATOM      6  C   UNL     1       2.293   7.873  18.417  0.00  0.00    +0.000 C 
ATOM      7  O   UNL     1       2.385   8.275  17.259  0.00  0.00    +0.000 OA
ATOM      8  C   UNL     1       0.705   9.651  18.993  0.00  0.00    +0.000 C 
ENDROOT
BRANCH   6   9
ATOM      9  C   UNL     1       3.045   6.580  18.750  0.00  0.00    +0.000 A 
ATOM     10  C   UNL     1       2.226   5.352  18.816  0.00  0.00    +0.000 A 
ATOM     11  C   UNL     1       2.855   4.212  19.088  0.00  0.00    +0.000 A 
ATOM     12  C   UNL     1       4.331   4.180  19.261  0.00  0.00    +0.000 A 
ATOM     13  O   UNL     1       4.880   3.098  19.436  0.00  0.00    +0.000 OA
ATOM     14  N   UNL     1       4.969   5.410  19.202  0.00  0.00    +0.000 N 
ATOM     15  C   UNL     1       6.419   5.486  19.251  0.00  0.00    +0.000 C 
ATOM     16  N   UNL     1       4.324   6.608  18.981  0.00  0.00    +0.000 NA
ENDBRANCH   6   9
BRANCH   1  20
ATOM     17  C   UNL     1       2.494  13.714  20.688  0.00  0.00    +0.000 A 
ATOM     18  C   UNL     1       2.768  13.756  19.334  0.00  0.00    +0.000 A 
ATOM     19  S   UNL     1       2.137  12.369  18.558  0.00  0.00    +0.000 S 
ATOM     20  C   UNL     1       1.452  11.854  20.056  0.00  0.00    +0.000 A 
ATOM     21  N   UNL     1       1.768  12.601  21.094  0.00  0.00    +0.000 NA
BRANCH  17  23
ATOM     22  C   UNL     1       4.313  14.614  22.160  0.00  0.00    +0.000 C 
ATOM     23  C   UNL     1       2.863  14.767  21.698  0.00  0.00    +0.000 C 
ATOM     24  C   UNL     1       2.613  16.176  21.163  0.00  0.00    +0.000 C 
ENDBRANCH  17  23
ENDBRANCH   1  20
TORSDOF 3
ENDMDL
MODEL 5
REMARK VINA RESULT:      -6.5      1.009      1.054
REMARK  Name = 
REMARK  6 active torsions:
REMARK  status: ('A' for Active; 'I' for Inactive)
REMARK    1  A    between atoms: C_1  and  C_2
REMARK    2  A    between atoms: C_2  and  C_3
REMARK    3  A    between atoms: C_2  and  C_4
REMARK    4  A    between atoms: C_7  and  C_8
REMARK    5  A    between atoms: C_13  and  C_15
REMARK    6  A    between atoms: N_20  and  C_21
REMARK                            x       y       z     vdW  Elec       q    Type
REMARK                         _______ _______ _______ _____ _____    ______ ____
ROOT
ATOM      1  C   UNL     1       1.292  10.259  19.429  0.00  0.00    +0.000 C 
ATOM      2  C   UNL     1       2.015  10.328  18.073  0.00  0.00    +0.000 C 
ATOM      3  C   UNL     1       2.074   8.979  17.370  0.00  0.00    +0.000 C 
ATOM      4  C   UNL     1       2.669   7.919  18.278  0.00  0.00    +0.000 C 
ATOM      5  N   UNL     1       1.899   7.788  19.511  0.00  0.00    +0.000 N 
ATOM      6  C   UNL     1       1.700   6.576  20.190  0.00  0.00    +0.000 C 
ATOM      7  O   UNL     1       1.180   6.499  21.301  0.00  0.00    +0.000 OA
ATOM      8  C   UNL     1       1.685   9.027  20.266  0.00  0.00    +0.000 C 
ENDROOT
BRANCH   6   9
ATOM      9  C   UNL     1       2.112   5.252  19.537  0.00  0.00    +0.000 A 
ATOM     10  C   UNL     1       1.556   4.992  18.193  0.00  0.00    +0.000 A 
ATOM     11  C   UNL     1       1.908   3.858  17.594  0.00  0.00    +0.000 A 
ATOM     12  C   UNL     1       2.869   2.925  18.240  0.00  0.00    +0.000 A 
ATOM     13  O   UNL     1       3.226   1.927  17.622  0.00  0.00    +0.000 OA
ATOM     14  N   UNL     1       3.288   3.281  19.513  0.00  0.00    +0.000 N 
ATOM     15  C   UNL     1       4.307   2.499  20.193  0.00  0.00    +0.000 C 
ATOM     16  N   UNL     1       2.884   4.422  20.171  0.00  0.00    +0.000 NA
ENDBRANCH   6   9
BRANCH   1  20
ATOM     17  C   UNL     1      -2.174  10.393  18.205  0.00  0.00    +0.000 A 
ATOM     18  C   UNL     1      -2.412  11.397  19.124  0.00  0.00    +0.000 A 
ATOM     19  S   UNL     1      -1.055  11.601  20.144  0.00  0.00    +0.000 S 
ATOM     20  C   UNL     1      -0.201  10.411  19.231  0.00  0.00    +0.000 A 
ATOM     21  N   UNL     1      -0.915   9.813  18.299  0.00  0.00    +0.000 NA
BRANCH  17  23
ATOM     22  C   UNL     1      -4.400  10.778  17.117  0.00  0.00    +0.000 C 
ATOM     23  C   UNL     1      -3.119   9.942  17.123  0.00  0.00    +0.000 C 
ATOM     24  C   UNL     1      -2.454   9.962  15.748  0.00  0.00    +0.000 C 
ENDBRANCH  17  23
ENDBRANCH   1  20
TORSDOF 3
ENDMDL
MODEL 6
REMARK VINA RESULT:      -6.5      4.889      7.458
REMARK  Name = 
REMARK  6 active torsions:
REMARK  status: ('A' for Active; 'I' for Inactive)
REMARK    1  A    between atoms: C_1  and  C_2
REMARK    2  A    between atoms: C_2  and  C_3
REMARK    3  A    between atoms: C_2  and  C_4
REMARK    4  A    between atoms: C_7  and  C_8
REMARK    5  A    between atoms: C_13  and  C_15
REMARK    6  A    between atoms: N_20  and  C_21
REMARK                            x       y       z     vdW  Elec       q    Type
REMARK                         _______ _______ _______ _____ _____    ______ ____
ROOT
ATOM      1  C   UNL     1       4.121   6.570  19.284  0.00  0.00    +0.000 C 
ATOM      2  C   UNL     1       3.350   7.480  18.313  0.00  0.00    +0.000 C 
ATOM      3  C   UNL     1       3.407   6.986  16.875  0.00  0.00    +0.000 C 
ATOM      4  C   UNL     1       4.841   6.768  16.431  0.00  0.00    +0.000 C 
ATOM      5  N   UNL     1       5.521   5.811  17.298  0.00  0.00    +0.000 N 
ATOM      6  C   UNL     1       6.488   4.896  16.853  0.00  0.00    +0.000 C 
ATOM      7  O   UNL     1       7.161   4.200  17.610  0.00  0.00    +0.000 OA
ATOM      8  C   UNL     1       5.484   6.110  18.734  0.00  0.00    +0.000 C 
ENDROOT
BRANCH   6   9
ATOM      9  C   UNL     1       6.730   4.700  15.353  0.00  0.00    +0.000 A 
ATOM     10  C   UNL     1       5.822   3.756  14.668  0.00  0.00    +0.000 A 
ATOM     11  C   UNL     1       5.998   3.578  13.361  0.00  0.00    +0.000 A 
ATOM     12  C   UNL     1       7.033   4.348  12.623  0.00  0.00    +0.000 A 
ATOM     13  O   UNL     1       7.113   4.210  11.407  0.00  0.00    +0.000 OA
ATOM     14  N   UNL     1       7.832   5.177  13.396  0.00  0.00    +0.000 N 
ATOM     15  C   UNL     1       8.803   6.054  12.766  0.00  0.00    +0.000 C 
ATOM     16  N   UNL     1       7.702   5.326  14.760  0.00  0.00    +0.000 NA
ENDBRANCH   6   9
BRANCH   1  20
ATOM     17  C   UNL     1       2.203   3.464  19.730  0.00  0.00    +0.000 A 
ATOM     18  C   UNL     1       1.276   4.192  20.451  0.00  0.00    +0.000 A 
ATOM     19  S   UNL     1       1.841   5.787  20.701  0.00  0.00    +0.000 S 
ATOM     20  C   UNL     1       3.235   5.434  19.747  0.00  0.00    +0.000 A 
ATOM     21  N   UNL     1       3.337   4.177  19.362  0.00  0.00    +0.000 NA
BRANCH  17  23
ATOM     22  C   UNL     1       0.704   1.796  18.609  0.00  0.00    +0.000 C 
ATOM     23  C   UNL     1       2.053   2.032  19.289  0.00  0.00    +0.000 C 
ATOM     24  C   UNL     1       3.201   1.598  18.378  0.00  0.00    +0.000 C 
ENDBRANCH  17  23
ENDBRANCH   1  20
TORSDOF 3
ENDMDL
MODEL 7
REMARK VINA RESULT:      -6.5      0.896      1.434
REMARK  Name = 
REMARK  6 active torsions:
REMARK  status: ('A' for Active; 'I' for Inactive)
REMARK    1  A    between atoms: C_1  and  C_2
REMARK    2  A    between atoms: C_2  and  C_3
REMARK    3  A    between atoms: C_2  and  C_4
REMARK    4  A    between atoms: C_7  and  C_8
REMARK    5  A    between atoms: C_13  and  C_15
REMARK    6  A    between atoms: N_20  and  C_21
REMARK                            x       y       z     vdW  Elec       q    Type
REMARK                         _______ _______ _______ _____ _____    ______ ____
ROOT
ATOM      1  C   UNL     1       1.178  10.415  19.336  0.00  0.00    +0.000 C 
ATOM      2  C   UNL     1       1.892  10.409  17.974  0.00  0.00    +0.000 C 
ATOM      3  C   UNL     1       1.990   9.016  17.368  0.00  0.00    +0.000 C 
ATOM      4  C   UNL     1       2.620   8.042  18.344  0.00  0.00    +0.000 C 
ATOM      5  N   UNL     1       1.860   7.975  19.589  0.00  0.00    +0.000 N 
ATOM      6  C   UNL     1       1.702   6.809  20.354  0.00  0.00    +0.000 C 
ATOM      7  O   UNL     1       1.190   6.796  21.471  0.00  0.00    +0.000 OA
ATOM      8  C   UNL     1       1.612   9.259  20.256  0.00  0.00    +0.000 C 
ENDROOT
BRANCH   6   9
ATOM      9  C   UNL     1       2.151   5.456  19.794  0.00  0.00    +0.000 A 
ATOM     10  C   UNL     1       3.611   5.245  19.700  0.00  0.00    +0.000 A 
ATOM     11  C   UNL     1       4.030   4.072  19.232  0.00  0.00    +0.000 A 
ATOM     12  C   UNL     1       3.059   3.006  18.874  0.00  0.00    +0.000 A 
ATOM     13  O   UNL     1       3.489   1.914  18.518  0.00  0.00    +0.000 OA
ATOM     14  N   UNL     1       1.720   3.351  18.984  0.00  0.00    +0.000 N 
ATOM     15  C   UNL     1       0.687   2.354  18.763  0.00  0.00    +0.000 C 
ATOM     16  N   UNL     1       1.270   4.582  19.409  0.00  0.00    +0.000 NA
ENDBRANCH   6   9
BRANCH   1  20
ATOM     17  C   UNL     1      -2.287  10.445  18.102  0.00  0.00    +0.000 A 
ATOM     18  C   UNL     1      -2.574  11.395  19.064  0.00  0.00    +0.000 A 
ATOM     19  S   UNL     1      -1.231  11.614  20.099  0.00  0.00    +0.000 S 
ATOM     20  C   UNL     1      -0.320  10.507  19.137  0.00  0.00    +0.000 A 
ATOM     21  N   UNL     1      -1.003   9.919  18.176  0.00  0.00    +0.000 NA
BRANCH  17  23
ATOM     22  C   UNL     1      -4.445  10.895  16.907  0.00  0.00    +0.000 C 
ATOM     23  C   UNL     1      -3.207  10.000  16.996  0.00  0.00    +0.000 C 
ATOM     24  C   UNL     1      -2.486   9.941  15.650  0.00  0.00    +0.000 C 
ENDBRANCH  17  23
ENDBRANCH   1  20
TORSDOF 3
ENDMDL
MODEL 8
REMARK VINA RESULT:      -6.4      2.526      3.972
REMARK  Name = 
REMARK  6 active torsions:
REMARK  status: ('A' for Active; 'I' for Inactive)
REMARK    1  A    between atoms: C_1  and  C_2
REMARK    2  A    between atoms: C_2  and  C_3
REMARK    3  A    between atoms: C_2  and  C_4
REMARK    4  A    between atoms: C_7  and  C_8
REMARK    5  A    between atoms: C_13  and  C_15
REMARK    6  A    between atoms: N_20  and  C_21
REMARK                            x       y       z     vdW  Elec       q    Type
REMARK                         _______ _______ _______ _____ _____    ______ ____
ROOT
ATOM      1  C   UNL     1      -2.191  12.242  18.287  0.00  0.00    +0.000 C 
ATOM      2  C   UNL     1      -2.612  11.263  17.178  0.00  0.00    +0.000 C 
ATOM      3  C   UNL     1      -2.172   9.833  17.458  0.00  0.00    +0.000 C 
ATOM      4  C   UNL     1      -0.683   9.768  17.737  0.00  0.00    +0.000 C 
ATOM      5  N   UNL     1      -0.320  10.615  18.869  0.00  0.00    +0.000 N 
ATOM      6  C   UNL     1       0.690  10.306  19.792  0.00  0.00    +0.000 C 
ATOM      7  O   UNL     1       1.088  11.091  20.650  0.00  0.00    +0.000 OA
ATOM      8  C   UNL     1      -0.750  12.015  18.782  0.00  0.00    +0.000 C 
ENDROOT
BRANCH   6   9
ATOM      9  C   UNL     1       1.338   8.918  19.786  0.00  0.00    +0.000 A 
ATOM     10  C   UNL     1       0.981   8.030  20.912  0.00  0.00    +0.000 A 
ATOM     11  C   UNL     1       1.517   6.813  20.925  0.00  0.00    +0.000 A 
ATOM     12  C   UNL     1       2.393   6.356  19.814  0.00  0.00    +0.000 A 
ATOM     13  O   UNL     1       2.805   5.202  19.826  0.00  0.00    +0.000 OA
ATOM     14  N   UNL     1       2.666   7.302  18.838  0.00  0.00    +0.000 N 
ATOM     15  C   UNL     1       3.422   6.934  17.653  0.00  0.00    +0.000 C 
ATOM     16  N   UNL     1       2.168   8.587  18.842  0.00  0.00    +0.000 NA
ENDBRANCH   6   9
BRANCH   1  20
ATOM     17  C   UNL     1      -5.214  12.348  20.379  0.00  0.00    +0.000 A 
ATOM     18  C   UNL     1      -4.441  12.886  21.390  0.00  0.00    +0.000 A 
ATOM     19  S   UNL     1      -2.791  12.874  20.944  0.00  0.00    +0.000 S 
ATOM     20  C   UNL     1      -3.223  12.249  19.394  0.00  0.00    +0.000 A 
ATOM     21  N   UNL     1      -4.500  11.956  19.254  0.00  0.00    +0.000 NA
BRANCH  17  23
ATOM     22  C   UNL     1      -7.162  10.925  19.696  0.00  0.00    +0.000 C 
ATOM     23  C   UNL     1      -6.714  12.214  20.388  0.00  0.00    +0.000 C 
ATOM     24  C   UNL     1      -7.280  12.292  21.805  0.00  0.00    +0.000 C 
ENDBRANCH  17  23
ENDBRANCH   1  20
TORSDOF 3
ENDMDL
MODEL 9
REMARK VINA RESULT:      -6.4      2.968      5.249
REMARK  Name = 
REMARK  6 active torsions:
REMARK  status: ('A' for Active; 'I' for Inactive)
REMARK    1  A    between atoms: C_1  and  C_2
REMARK    2  A    between atoms: C_2  and  C_3
REMARK    3  A    between atoms: C_2  and  C_4
REMARK    4  A    between atoms: C_7  and  C_8
REMARK    5  A    between atoms: C_13  and  C_15
REMARK    6  A    between atoms: N_20  and  C_21
REMARK                            x       y       z     vdW  Elec       q    Type
REMARK                         _______ _______ _______ _____ _____    ______ ____
ROOT
ATOM      1  C   UNL     1      -3.890  12.009  18.031  0.00  0.00    +0.000 C 
ATOM      2  C   UNL     1      -4.325  10.667  17.419  0.00  0.00    +0.000 C 
ATOM      3  C   UNL     1      -3.558   9.484  17.993  0.00  0.00    +0.000 C 
ATOM      4  C   UNL     1      -2.062   9.700  17.881  0.00  0.00    +0.000 C 
ATOM      5  N   UNL     1      -1.652  10.921  18.570  0.00  0.00    +0.000 N 
ATOM      6  C   UNL     1      -0.432  11.071  19.247  0.00  0.00    +0.000 C 
ATOM      7  O   UNL     1      -0.033  12.145  19.694  0.00  0.00    +0.000 OA
ATOM      8  C   UNL     1      -2.363  12.143  18.180  0.00  0.00    +0.000 C 
ENDROOT
BRANCH   6   9
ATOM      9  C   UNL     1       0.466   9.855  19.492  0.00  0.00    +0.000 A 
ATOM     10  C   UNL     1       0.311   9.187  20.801  0.00  0.00    +0.000 A 
ATOM     11  C   UNL     1       1.067   8.118  21.035  0.00  0.00    +0.000 A 
ATOM     12  C   UNL     1       1.987   7.594  19.991  0.00  0.00    +0.000 A 
ATOM     13  O   UNL     1       2.610   6.563  20.219  0.00  0.00    +0.000 OA
ATOM     14  N   UNL     1       2.053   8.337  18.822  0.00  0.00    +0.000 N 
ATOM     15  C   UNL     1       2.836   7.860  17.695  0.00  0.00    +0.000 C 
ATOM     16  N   UNL     1       1.321   9.480  18.588  0.00  0.00    +0.000 NA
ENDBRANCH   6   9
BRANCH   1  20
ATOM     17  C   UNL     1      -5.018  12.634  21.477  0.00  0.00    +0.000 A 
ATOM     18  C   UNL     1      -6.198  11.988  21.160  0.00  0.00    +0.000 A 
ATOM     19  S   UNL     1      -6.248  11.632  19.488  0.00  0.00    +0.000 S 
ATOM     20  C   UNL     1      -4.653  12.267  19.314  0.00  0.00    +0.000 A 
ATOM     21  N   UNL     1      -4.155  12.818  20.403  0.00  0.00    +0.000 NA
BRANCH  17  23
ATOM     22  C   UNL     1      -5.752  12.986  23.847  0.00  0.00    +0.000 C 
ATOM     23  C   UNL     1      -4.596  13.082  22.851  0.00  0.00    +0.000 C 
ATOM     24  C   UNL     1      -3.383  12.301  23.353  0.00  0.00    +0.000 C 
ENDBRANCH  17  23
ENDBRANCH   1  20
TORSDOF 3
ENDMDL
