MODEL 1
REMARK VINA RESULT:      -7.0      0.000      0.000
REMARK  Name = 
REMARK  7 active torsions:
REMARK  status: ('A' for Active; 'I' for Inactive)
REMARK    1  A    between atoms: C_1  and  N_2
REMARK    2  A    between atoms: N_2  and  C_3
REMARK    3  A    between atoms: N_2  and  C_12
REMARK    4  A    between atoms: C_14  and  N_15
REMARK    5  A    between atoms: N_15  and  S_16
REMARK    6  A    between atoms: S_16  and  N_19
REMARK    7  A    between atoms: C_22  and  C_23
REMARK                            x       y       z     vdW  Elec       q    Type
REMARK                         _______ _______ _______ _____ _____    ______ ____
ROOT
ATOM      1  C   UNL     1       5.058   6.376  18.055  0.00  0.00    +0.000 C 
ATOM      2  C   UNL     1       6.188   6.814  17.088  0.00  0.00    +0.000 C 
ATOM      3  C   UNL     1       5.223   6.646  15.900  0.00  0.00    +0.000 C 
ATOM      4  C   UNL     1       4.059   6.704  16.916  0.00  0.00    +0.000 C 
ENDROOT
BRANCH   1   6
ATOM      5  C   UNL     1       6.177   4.359  19.070  0.00  0.00    +0.000 C 
ATOM      6  N   UNL     1       5.004   4.985  18.455  0.00  0.00    +0.000 N 
BRANCH   6   7
ATOM      7  C   UNL     1       3.862   4.144  18.387  0.00  0.00    +0.000 A 
ATOM      8  N   UNL     1       3.876   3.103  17.497  0.00  0.00    +0.000 NA
ATOM      9  C   UNL     1       2.872   2.212  17.463  0.00  0.00    +0.000 A 
ATOM     10  N   UNL     1       1.783   2.182  18.233  0.00  0.00    +0.000 NA
ATOM     11  C   UNL     1       1.757   3.227  19.069  0.00  0.00    +0.000 A 
ATOM     12  N   UNL     1       0.763   3.425  19.986  0.00  0.00    +0.000 N 
ATOM     13  C   UNL     1       0.982   4.597  20.657  0.00  0.00    +0.000 A 
ATOM     14  C   UNL     1       2.153   5.140  20.169  0.00  0.00    +0.000 A 
ATOM     15  C   UNL     1       2.695   4.249  19.191  0.00  0.00    +0.000 A 
ATOM     16  H   UNL     1      -0.001   2.781  20.128  0.00  0.00    +0.000 HD
ENDBRANCH   6   7
ENDBRANCH   1   6
BRANCH   3  17
ATOM     17  N   UNL     1       5.320   5.403  15.048  0.00  0.00    +0.000 NA
ATOM     18  H   UNL     1       4.918   5.582  14.127  0.00  0.00    +0.000 HD
BRANCH  17  19
ATOM     19  S   UNL     1       6.782   4.616  14.771  0.00  0.00    +0.000 S 
ATOM     20  O   UNL     1       7.693   5.594  14.237  0.00  0.00    +0.000 OA
ATOM     21  O   UNL     1       7.108   3.780  15.904  0.00  0.00    +0.000 OA
BRANCH  19  22
ATOM     22  N   UNL     1       6.259   3.640  13.522  0.00  0.00    +0.000 NA
ATOM     23  C   UNL     1       4.799   3.524  13.308  0.00  0.00    +0.000 C 
ATOM     24  C   UNL     1       4.615   3.489  11.792  0.00  0.00    +0.000 C 
ATOM     25  C   UNL     1       5.963   3.017  11.258  0.00  0.00    +0.000 C 
ATOM     26  C   UNL     1       6.938   3.711  12.207  0.00  0.00    +0.000 C 
BRANCH  25  27
ATOM     27  C   UNL     1       6.097   1.553  11.335  0.00  0.00    +0.000 C 
ATOM     28  N   UNL     1       6.196   0.399  11.405  0.00  0.00    +0.000 NA
ENDBRANCH  25  27
ENDBRANCH  19  22
ENDBRANCH  17  19
ENDBRANCH   3  17
TORSDOF 6
ENDMDL
MODEL 2
REMARK VINA RESULT:      -6.8      5.079      8.436
REMARK  Name = 
REMARK  7 active torsions:
REMARK  status: ('A' for Active; 'I' for Inactive)
REMARK    1  A    between atoms: C_1  and  N_2
REMARK    2  A    between atoms: N_2  and  C_3
REMARK    3  A    between atoms: N_2  and  C_12
REMARK    4  A    between atoms: C_14  and  N_15
REMARK    5  A    between atoms: N_15  and  S_16
REMARK    6  A    between atoms: S_16  and  N_19
REMARK    7  A    between atoms: C_22  and  C_23
REMARK                            x       y       z     vdW  Elec       q    Type
REMARK                         _______ _______ _______ _____ _____    ______ ____
ROOT
ATOM      1  C   UNL     1       2.776   5.114  19.009  0.00  0.00    +0.000 C 
ATOM      2  C   UNL     1       2.743   5.122  20.560  0.00  0.00    +0.000 C 
ATOM      3  C   UNL     1       1.660   6.215  20.520  0.00  0.00    +0.000 C 
ATOM      4  C   UNL     1       1.394   5.813  19.050  0.00  0.00    +0.000 C 
ENDROOT
BRANCH   1   6
ATOM      5  C   UNL     1       3.408   7.185  17.719  0.00  0.00    +0.000 C 
ATOM      6  N   UNL     1       3.783   5.914  18.344  0.00  0.00    +0.000 N 
BRANCH   6   7
ATOM      7  C   UNL     1       5.173   5.629  18.296  0.00  0.00    +0.000 A 
ATOM      8  N   UNL     1       5.882   5.654  19.467  0.00  0.00    +0.000 NA
ATOM      9  C   UNL     1       7.173   5.289  19.500  0.00  0.00    +0.000 A 
ATOM     10  N   UNL     1       7.925   4.863  18.484  0.00  0.00    +0.000 NA
ATOM     11  C   UNL     1       7.237   4.883  17.336  0.00  0.00    +0.000 A 
ATOM     12  N   UNL     1       7.763   4.471  16.143  0.00  0.00    +0.000 N 
ATOM     13  C   UNL     1       6.845   4.656  15.147  0.00  0.00    +0.000 A 
ATOM     14  C   UNL     1       5.705   5.175  15.726  0.00  0.00    +0.000 A 
ATOM     15  C   UNL     1       5.916   5.274  17.137  0.00  0.00    +0.000 A 
ATOM     16  H   UNL     1       8.691   4.087  16.047  0.00  0.00    +0.000 HD
ENDBRANCH   6   7
ENDBRANCH   1   6
BRANCH   3  17
ATOM     17  N   UNL     1       2.057   7.650  20.770  0.00  0.00    +0.000 NA
ATOM     18  H   UNL     1       2.341   8.089  19.894  0.00  0.00    +0.000 HD
BRANCH  17  19
ATOM     19  S   UNL     1       1.029   8.748  21.528  0.00  0.00    +0.000 S 
ATOM     20  O   UNL     1      -0.280   8.149  21.555  0.00  0.00    +0.000 OA
ATOM     21  O   UNL     1       1.670   9.282  22.707  0.00  0.00    +0.000 OA
BRANCH  19  22
ATOM     22  N   UNL     1       1.054   9.913  20.333  0.00  0.00    +0.000 NA
ATOM     23  C   UNL     1       0.485   9.555  19.014  0.00  0.00    +0.000 C 
ATOM     24  C   UNL     1      -0.235  10.813  18.532  0.00  0.00    +0.000 C 
ATOM     25  C   UNL     1       0.428  11.950  19.301  0.00  0.00    +0.000 C 
ATOM     26  C   UNL     1       0.671  11.306  20.665  0.00  0.00    +0.000 C 
BRANCH  25  27
ATOM     27  C   UNL     1       1.694  12.364  18.675  0.00  0.00    +0.000 C 
ATOM     28  N   UNL     1       2.690  12.701  18.183  0.00  0.00    +0.000 NA
ENDBRANCH  25  27
ENDBRANCH  19  22
ENDBRANCH  17  19
ENDBRANCH   3  17
TORSDOF 6
ENDMDL
MODEL 3
REMARK VINA RESULT:      -6.8      0.950      1.585
REMARK  Name = 
REMARK  7 active torsions:
REMARK  status: ('A' for Active; 'I' for Inactive)
REMARK    1  A    between atoms: C_1  and  N_2
REMARK    2  A    between atoms: N_2  and  C_3
REMARK    3  A    between atoms: N_2  and  C_12
REMARK    4  A    between atoms: C_14  and  N_15
REMARK    5  A    between atoms: N_15  and  S_16
REMARK    6  A    between atoms: S_16  and  N_19
REMARK    7  A    between atoms: C_22  and  C_23
REMARK                            x       y       z     vdW  Elec       q    Type
REMARK                         _______ _______ _______ _____ _____    ______ ____
ROOT
ATOM      1  C   UNL     1       5.986   5.551  18.544  0.00  0.00    +0.000 C 
ATOM      2  C   UNL     1       6.590   4.125  18.466  0.00  0.00    +0.000 C 
ATOM      3  C   UNL     1       7.292   4.506  17.150  0.00  0.00    +0.000 C 
ATOM      4  C   UNL     1       7.078   5.989  17.536  0.00  0.00    +0.000 C 
ENDROOT
BRANCH   1   6
ATOM      5  C   UNL     1       4.279   7.042  17.441  0.00  0.00    +0.000 C 
ATOM      6  N   UNL     1       4.646   5.754  18.033  0.00  0.00    +0.000 N 
BRANCH   6   7
ATOM      7  C   UNL     1       3.624   4.770  17.967  0.00  0.00    +0.000 A 
ATOM      8  N   UNL     1       3.636   3.892  16.916  0.00  0.00    +0.000 NA
ATOM      9  C   UNL     1       2.762   2.875  16.858  0.00  0.00    +0.000 A 
ATOM     10  N   UNL     1       1.814   2.563  17.744  0.00  0.00    +0.000 NA
ATOM     11  C   UNL     1       1.782   3.452  18.744  0.00  0.00    +0.000 A 
ATOM     12  N   UNL     1       0.921   3.354  19.802  0.00  0.00    +0.000 N 
ATOM     13  C   UNL     1       1.087   4.429  20.632  0.00  0.00    +0.000 A 
ATOM     14  C   UNL     1       2.091   5.211  20.098  0.00  0.00    +0.000 A 
ATOM     15  C   UNL     1       2.588   4.573  18.920  0.00  0.00    +0.000 A 
ATOM     16  H   UNL     1       0.276   2.588  19.926  0.00  0.00    +0.000 HD
ENDBRANCH   6   7
ENDBRANCH   1   6
BRANCH   3  17
ATOM     17  N   UNL     1       6.691   4.052  15.841  0.00  0.00    +0.000 NA
ATOM     18  H   UNL     1       5.721   3.770  15.985  0.00  0.00    +0.000 HD
BRANCH  17  19
ATOM     19  S   UNL     1       6.694   5.023  14.466  0.00  0.00    +0.000 S 
ATOM     20  O   UNL     1       5.624   5.974  14.620  0.00  0.00    +0.000 OA
ATOM     21  O   UNL     1       8.048   5.414  14.149  0.00  0.00    +0.000 OA
BRANCH  19  22
ATOM     22  N   UNL     1       6.211   3.850  13.382  0.00  0.00    +0.000 NA
ATOM     23  C   UNL     1       4.761   3.571  13.276  0.00  0.00    +0.000 C 
ATOM     24  C   UNL     1       4.506   3.324  11.790  0.00  0.00    +0.000 C 
ATOM     25  C   UNL     1       5.866   2.916  11.234  0.00  0.00    +0.000 C 
ATOM     26  C   UNL     1       6.813   3.815  12.028  0.00  0.00    +0.000 C 
BRANCH  25  27
ATOM     27  C   UNL     1       6.151   1.493  11.483  0.00  0.00    +0.000 C 
ATOM     28  N   UNL     1       6.365   0.369  11.679  0.00  0.00    +0.000 NA
ENDBRANCH  25  27
ENDBRANCH  19  22
ENDBRANCH  17  19
ENDBRANCH   3  17
TORSDOF 6
ENDMDL
MODEL 4
REMARK VINA RESULT:      -6.7      3.284      6.965
REMARK  Name = 
REMARK  7 active torsions:
REMARK  status: ('A' for Active; 'I' for Inactive)
REMARK    1  A    between atoms: C_1  and  N_2
REMARK    2  A    between atoms: N_2  and  C_3
REMARK    3  A    between atoms: N_2  and  C_12
REMARK    4  A    between atoms: C_14  and  N_15
REMARK    5  A    between atoms: N_15  and  S_16
REMARK    6  A    between atoms: S_16  and  N_19
REMARK    7  A    between atoms: C_22  and  C_23
REMARK                            x       y       z     vdW  Elec       q    Type
REMARK                         _______ _______ _______ _____ _____    ______ ____
ROOT
ATOM      1  C   UNL     1       5.169   5.400  15.698  0.00  0.00    +0.000 C 
ATOM      2  C   UNL     1       4.474   4.054  15.363  0.00  0.00    +0.000 C 
ATOM      3  C   UNL     1       3.995   3.950  16.823  0.00  0.00    +0.000 C 
ATOM      4  C   UNL     1       4.267   5.467  16.955  0.00  0.00    +0.000 C 
ENDROOT
BRANCH   1   6
ATOM      5  C   UNL     1       7.566   5.088  14.984  0.00  0.00    +0.000 C 
ATOM      6  N   UNL     1       6.579   5.375  16.028  0.00  0.00    +0.000 N 
BRANCH   6   7
ATOM      7  C   UNL     1       7.142   5.691  17.293  0.00  0.00    +0.000 A 
ATOM      8  N   UNL     1       7.302   4.679  18.201  0.00  0.00    +0.000 NA
ATOM      9  C   UNL     1       7.927   4.896  19.370  0.00  0.00    +0.000 A 
ATOM     10  N   UNL     1       8.463   6.036  19.809  0.00  0.00    +0.000 NA
ATOM     11  C   UNL     1       8.262   7.028  18.933  0.00  0.00    +0.000 A 
ATOM     12  N   UNL     1       8.732   8.298  19.124  0.00  0.00    +0.000 N 
ATOM     13  C   UNL     1       8.328   9.098  18.091  0.00  0.00    +0.000 A 
ATOM     14  C   UNL     1       7.606   8.312  17.216  0.00  0.00    +0.000 A 
ATOM     15  C   UNL     1       7.601   6.970  17.709  0.00  0.00    +0.000 A 
ATOM     16  H   UNL     1       9.295   8.571  19.915  0.00  0.00    +0.000 HD
ENDBRANCH   6   7
ENDBRANCH   1   6
BRANCH   3  17
ATOM     17  N   UNL     1       4.737   3.042  17.774  0.00  0.00    +0.000 NA
ATOM     18  H   UNL     1       5.558   3.523  18.143  0.00  0.00    +0.000 HD
BRANCH  17  19
ATOM     19  S   UNL     1       3.986   2.322  19.098  0.00  0.00    +0.000 S 
ATOM     20  O   UNL     1       3.166   1.254  18.587  0.00  0.00    +0.000 OA
ATOM     21  O   UNL     1       4.948   2.131  20.159  0.00  0.00    +0.000 OA
BRANCH  19  22
ATOM     22  N   UNL     1       2.998   3.605  19.499  0.00  0.00    +0.000 NA
ATOM     23  C   UNL     1       1.565   3.503  19.143  0.00  0.00    +0.000 C 
ATOM     24  C   UNL     1       0.812   4.135  20.313  0.00  0.00    +0.000 C 
ATOM     25  C   UNL     1       1.838   5.048  20.975  0.00  0.00    +0.000 C 
ATOM     26  C   UNL     1       3.122   4.231  20.837  0.00  0.00    +0.000 C 
BRANCH  25  27
ATOM     27  C   UNL     1       1.951   6.338  20.275  0.00  0.00    +0.000 C 
ATOM     28  N   UNL     1       2.045   7.359  19.731  0.00  0.00    +0.000 NA
ENDBRANCH  25  27
ENDBRANCH  19  22
ENDBRANCH  17  19
ENDBRANCH   3  17
TORSDOF 6
ENDMDL
MODEL 5
REMARK VINA RESULT:      -6.6      0.709      1.745
REMARK  Name = 
REMARK  7 active torsions:
REMARK  status: ('A' for Active; 'I' for Inactive)
REMARK    1  A    between atoms: C_1  and  N_2
REMARK    2  A    between atoms: N_2  and  C_3
REMARK    3  A    between atoms: N_2  and  C_12
REMARK    4  A    between atoms: C_14  and  N_15
REMARK    5  A    between atoms: N_15  and  S_16
REMARK    6  A    between atoms: S_16  and  N_19
REMARK    7  A    between atoms: C_22  and  C_23
REMARK                            x       y       z     vdW  Elec       q    Type
REMARK                         _______ _______ _______ _____ _____    ______ ____
ROOT
ATOM      1  C   UNL     1       4.991   6.783  18.057  0.00  0.00    +0.000 C 
ATOM      2  C   UNL     1       6.180   7.004  17.086  0.00  0.00    +0.000 C 
ATOM      3  C   UNL     1       5.267   6.634  15.902  0.00  0.00    +0.000 C 
ATOM      4  C   UNL     1       4.058   6.912  16.827  0.00  0.00    +0.000 C 
ENDROOT
BRANCH   1   6
ATOM      5  C   UNL     1       6.080   4.728  19.028  0.00  0.00    +0.000 C 
ATOM      6  N   UNL     1       4.874   5.496  18.710  0.00  0.00    +0.000 N 
BRANCH   6   7
ATOM      7  C   UNL     1       3.667   4.903  19.168  0.00  0.00    +0.000 A 
ATOM      8  N   UNL     1       2.926   5.580  20.100  0.00  0.00    +0.000 NA
ATOM      9  C   UNL     1       1.726   5.122  20.490  0.00  0.00    +0.000 A 
ATOM     10  N   UNL     1       1.095   4.025  20.066  0.00  0.00    +0.000 NA
ATOM     11  C   UNL     1       1.846   3.349  19.189  0.00  0.00    +0.000 A 
ATOM     12  N   UNL     1       1.427   2.200  18.578  0.00  0.00    +0.000 N 
ATOM     13  C   UNL     1       2.424   1.713  17.779  0.00  0.00    +0.000 A 
ATOM     14  C   UNL     1       3.489   2.586  17.869  0.00  0.00    +0.000 A 
ATOM     15  C   UNL     1       3.117   3.671  18.723  0.00  0.00    +0.000 A 
ATOM     16  H   UNL     1       0.510   1.800  18.712  0.00  0.00    +0.000 HD
ENDBRANCH   6   7
ENDBRANCH   1   6
BRANCH   3  17
ATOM     17  N   UNL     1       5.363   5.251  15.307  0.00  0.00    +0.000 NA
ATOM     18  H   UNL     1       4.779   5.191  14.472  0.00  0.00    +0.000 HD
BRANCH  17  19
ATOM     19  S   UNL     1       6.838   4.551  14.893  0.00  0.00    +0.000 S 
ATOM     20  O   UNL     1       7.673   5.604  14.374  0.00  0.00    +0.000 OA
ATOM     21  O   UNL     1       7.267   3.660  15.945  0.00  0.00    +0.000 OA
BRANCH  19  22
ATOM     22  N   UNL     1       6.282   3.636  13.613  0.00  0.00    +0.000 NA
ATOM     23  C   UNL     1       4.817   3.550  13.417  0.00  0.00    +0.000 C 
ATOM     24  C   UNL     1       4.610   3.580  11.904  0.00  0.00    +0.000 C 
ATOM     25  C   UNL     1       5.942   3.113  11.329  0.00  0.00    +0.000 C 
ATOM     26  C   UNL     1       6.942   3.753  12.291  0.00  0.00    +0.000 C 
BRANCH  25  27
ATOM     27  C   UNL     1       6.056   1.645  11.343  0.00  0.00    +0.000 C 
ATOM     28  N   UNL     1       6.135   0.487  11.350  0.00  0.00    +0.000 NA
ENDBRANCH  25  27
ENDBRANCH  19  22
ENDBRANCH  17  19
ENDBRANCH   3  17
TORSDOF 6
ENDMDL
MODEL 6
REMARK VINA RESULT:      -6.6      9.898     13.188
REMARK  Name = 
REMARK  7 active torsions:
REMARK  status: ('A' for Active; 'I' for Inactive)
REMARK    1  A    between atoms: C_1  and  N_2
REMARK    2  A    between atoms: N_2  and  C_3
REMARK    3  A    between atoms: N_2  and  C_12
REMARK    4  A    between atoms: C_14  and  N_15
REMARK    5  A    between atoms: N_15  and  S_16
REMARK    6  A    between atoms: S_16  and  N_19
REMARK    7  A    between atoms: C_22  and  C_23
REMARK                            x       y       z     vdW  Elec       q    Type
REMARK                         _______ _______ _______ _____ _____    ______ ____
ROOT
ATOM      1  C   UNL     1      -1.620  10.648  17.873  0.00  0.00    +0.000 C 
ATOM      2  C   UNL     1      -2.901   9.904  18.331  0.00  0.00    +0.000 C 
ATOM      3  C   UNL     1      -3.759  10.956  17.603  0.00  0.00    +0.000 C 
ATOM      4  C   UNL     1      -2.495  11.340  16.798  0.00  0.00    +0.000 C 
ENDROOT
BRANCH   1   6
ATOM      5  C   UNL     1      -0.697  12.948  18.332  0.00  0.00    +0.000 C 
ATOM      6  N   UNL     1      -1.016  11.593  18.789  0.00  0.00    +0.000 N 
BRANCH   6   7
ATOM      7  C   UNL     1      -0.759  11.367  20.167  0.00  0.00    +0.000 A 
ATOM      8  N   UNL     1      -1.346  12.200  21.082  0.00  0.00    +0.000 NA
ATOM      9  C   UNL     1      -1.227  11.971  22.399  0.00  0.00    +0.000 A 
ATOM     10  N   UNL     1      -0.579  10.969  22.997  0.00  0.00    +0.000 NA
ATOM     11  C   UNL     1       0.028  10.186  22.097  0.00  0.00    +0.000 A 
ATOM     12  N   UNL     1       0.741   9.071  22.438  0.00  0.00    +0.000 N 
ATOM     13  C   UNL     1       1.283   8.509  21.315  0.00  0.00    +0.000 A 
ATOM     14  C   UNL     1       0.884   9.273  20.237  0.00  0.00    +0.000 A 
ATOM     15  C   UNL     1       0.033  10.319  20.711  0.00  0.00    +0.000 A 
ATOM     16  H   UNL     1       0.830   8.735  23.385  0.00  0.00    +0.000 HD
ENDBRANCH   6   7
ENDBRANCH   1   6
BRANCH   3  17
ATOM     17  N   UNL     1      -4.411  12.054  18.408  0.00  0.00    +0.000 NA
ATOM     18  H   UNL     1      -4.031  12.960  18.131  0.00  0.00    +0.000 HD
BRANCH  17  19
ATOM     19  S   UNL     1      -6.082  12.251  18.469  0.00  0.00    +0.000 S 
ATOM     20  O   UNL     1      -6.380  13.517  17.849  0.00  0.00    +0.000 OA
ATOM     21  O   UNL     1      -6.732  11.020  18.086  0.00  0.00    +0.000 OA
BRANCH  19  22
ATOM     22  N   UNL     1      -6.209  12.428  20.124  0.00  0.00    +0.000 NA
ATOM     23  C   UNL     1      -4.954  12.556  20.898  0.00  0.00    +0.000 C 
ATOM     24  C   UNL     1      -5.255  13.583  21.988  0.00  0.00    +0.000 C 
ATOM     25  C   UNL     1      -6.773  13.551  22.130  0.00  0.00    +0.000 C 
ATOM     26  C   UNL     1      -7.220  13.357  20.683  0.00  0.00    +0.000 C 
BRANCH  25  27
ATOM     27  C   UNL     1      -7.217  12.432  22.979  0.00  0.00    +0.000 C 
ATOM     28  N   UNL     1      -7.571  11.558  23.655  0.00  0.00    +0.000 NA
ENDBRANCH  25  27
ENDBRANCH  19  22
ENDBRANCH  17  19
ENDBRANCH   3  17
TORSDOF 6
ENDMDL
MODEL 7
REMARK VINA RESULT:      -6.6     10.533     12.844
REMARK  Name = 
REMARK  7 active torsions:
REMARK  status: ('A' for Active; 'I' for Inactive)
REMARK    1  A    between atoms: C_1  and  N_2
REMARK    2  A    between atoms: N_2  and  C_3
REMARK    3  A    between atoms: N_2  and  C_12
REMARK    4  A    between atoms: C_14  and  N_15
REMARK    5  A    between atoms: N_15  and  S_16
REMARK    6  A    between atoms: S_16  and  N_19
REMARK    7  A    between atoms: C_22  and  C_23
REMARK                            x       y       z     vdW  Elec       q    Type
REMARK                         _______ _______ _______ _____ _____    ______ ____
ROOT
ATOM      1  C   UNL     1      -4.302  10.767  16.944  0.00  0.00    +0.000 C 
ATOM      2  C   UNL     1      -3.107  11.349  16.144  0.00  0.00    +0.000 C 
ATOM      3  C   UNL     1      -2.232  11.262  17.408  0.00  0.00    +0.000 C 
ATOM      4  C   UNL     1      -3.266  10.264  17.981  0.00  0.00    +0.000 C 
ENDROOT
BRANCH   1   6
ATOM      5  C   UNL     1      -5.983  12.621  16.648  0.00  0.00    +0.000 C 
ATOM      6  N   UNL     1      -5.255  11.695  17.518  0.00  0.00    +0.000 N 
BRANCH   6   7
ATOM      7  C   UNL     1      -5.637  11.755  18.884  0.00  0.00    +0.000 A 
ATOM      8  N   UNL     1      -5.235  12.835  19.623  0.00  0.00    +0.000 NA
ATOM      9  C   UNL     1      -5.655  13.000  20.887  0.00  0.00    +0.000 A 
ATOM     10  N   UNL     1      -6.477  12.211  21.583  0.00  0.00    +0.000 NA
ATOM     11  C   UNL     1      -6.829  11.136  20.867  0.00  0.00    +0.000 A 
ATOM     12  N   UNL     1      -7.686  10.178  21.332  0.00  0.00    +0.000 N 
ATOM     13  C   UNL     1      -7.813   9.183  20.403  0.00  0.00    +0.000 A 
ATOM     14  C   UNL     1      -7.037   9.531  19.316  0.00  0.00    +0.000 A 
ATOM     15  C   UNL     1      -6.443  10.807  19.570  0.00  0.00    +0.000 A 
ATOM     16  H   UNL     1      -8.144  10.229  22.230  0.00  0.00    +0.000 HD
ENDBRANCH   6   7
ENDBRANCH   1   6
BRANCH   3  17
ATOM     17  N   UNL     1      -1.979  12.515  18.212  0.00  0.00    +0.000 NA
ATOM     18  H   UNL     1      -2.716  12.634  18.908  0.00  0.00    +0.000 HD
BRANCH  17  19
ATOM     19  S   UNL     1      -0.528  12.785  19.021  0.00  0.00    +0.000 S 
ATOM     20  O   UNL     1       0.420  11.824  18.519  0.00  0.00    +0.000 OA
ATOM     21  O   UNL     1      -0.253  14.203  19.068  0.00  0.00    +0.000 OA
BRANCH  19  22
ATOM     22  N   UNL     1      -1.036  12.290  20.531  0.00  0.00    +0.000 NA
ATOM     23  C   UNL     1      -0.852  10.864  20.883  0.00  0.00    +0.000 C 
ATOM     24  C   UNL     1      -0.451  10.861  22.357  0.00  0.00    +0.000 C 
ATOM     25  C   UNL     1      -0.974  12.188  22.896  0.00  0.00    +0.000 C 
ATOM     26  C   UNL     1      -0.727  13.126  21.715  0.00  0.00    +0.000 C 
BRANCH  25  27
ATOM     27  C   UNL     1      -2.408  12.114  23.224  0.00  0.00    +0.000 C 
ATOM     28  N   UNL     1      -3.535  12.049  23.493  0.00  0.00    +0.000 NA
ENDBRANCH  25  27
ENDBRANCH  19  22
ENDBRANCH  17  19
ENDBRANCH   3  17
TORSDOF 6
ENDMDL
MODEL 8
REMARK VINA RESULT:      -6.4      5.312      8.555
REMARK  Name = 
REMARK  7 active torsions:
REMARK  status: ('A' for Active; 'I' for Inactive)
REMARK    1  A    between atoms: C_1  and  N_2
REMARK    2  A    between atoms: N_2  and  C_3
REMARK    3  A    between atoms: N_2  and  C_12
REMARK    4  A    between atoms: C_14  and  N_15
REMARK    5  A    between atoms: N_15  and  S_16
REMARK    6  A    between atoms: S_16  and  N_19
REMARK    7  A    between atoms: C_22  and  C_23
REMARK                            x       y       z     vdW  Elec       q    Type
REMARK                         _______ _______ _______ _____ _____    ______ ____
ROOT
ATOM      1  C   UNL     1       2.985   6.356  17.835  0.00  0.00    +0.000 C 
ATOM      2  C   UNL     1       1.503   6.537  18.258  0.00  0.00    +0.000 C 
ATOM      3  C   UNL     1       1.864   7.888  18.904  0.00  0.00    +0.000 C 
ATOM      4  C   UNL     1       3.156   7.881  18.053  0.00  0.00    +0.000 C 
ENDROOT
BRANCH   1   6
ATOM      5  C   UNL     1       3.268   4.780  19.782  0.00  0.00    +0.000 C 
ATOM      6  N   UNL     1       3.848   5.573  18.695  0.00  0.00    +0.000 N 
BRANCH   6   7
ATOM      7  C   UNL     1       5.252   5.420  18.545  0.00  0.00    +0.000 A 
ATOM      8  N   UNL     1       6.039   5.536  19.660  0.00  0.00    +0.000 NA
ATOM      9  C   UNL     1       7.359   5.294  19.599  0.00  0.00    +0.000 A 
ATOM     10  N   UNL     1       8.071   4.921  18.535  0.00  0.00    +0.000 NA
ATOM     11  C   UNL     1       7.300   4.853  17.442  0.00  0.00    +0.000 A 
ATOM     12  N   UNL     1       7.773   4.468  16.218  0.00  0.00    +0.000 N 
ATOM     13  C   UNL     1       6.770   4.545  15.292  0.00  0.00    +0.000 A 
ATOM     14  C   UNL     1       5.632   4.966  15.949  0.00  0.00    +0.000 A 
ATOM     15  C   UNL     1       5.937   5.113  17.338  0.00  0.00    +0.000 A 
ATOM     16  H   UNL     1       8.724   4.171  16.057  0.00  0.00    +0.000 HD
ENDBRANCH   6   7
ENDBRANCH   1   6
BRANCH   3  17
ATOM     17  N   UNL     1       2.038   7.959  20.402  0.00  0.00    +0.000 NA
ATOM     18  H   UNL     1       2.981   8.279  20.626  0.00  0.00    +0.000 HD
BRANCH  17  19
ATOM     19  S   UNL     1       1.001   8.848  21.386  0.00  0.00    +0.000 S 
ATOM     20  O   UNL     1      -0.267   8.164  21.388  0.00  0.00    +0.000 OA
ATOM     21  O   UNL     1       1.686   9.229  22.599  0.00  0.00    +0.000 OA
BRANCH  19  22
ATOM     22  N   UNL     1       0.878  10.190  20.400  0.00  0.00    +0.000 NA
ATOM     23  C   UNL     1      -0.243  10.230  19.435  0.00  0.00    +0.000 C 
ATOM     24  C   UNL     1      -0.708  11.685  19.419  0.00  0.00    +0.000 C 
ATOM     25  C   UNL     1       0.498  12.475  19.914  0.00  0.00    +0.000 C 
ATOM     26  C   UNL     1       1.070  11.540  20.979  0.00  0.00    +0.000 C 
BRANCH  25  27
ATOM     27  C   UNL     1       1.472  12.713  18.836  0.00  0.00    +0.000 C 
ATOM     28  N   UNL     1       2.245  12.909  17.992  0.00  0.00    +0.000 NA
ENDBRANCH  25  27
ENDBRANCH  19  22
ENDBRANCH  17  19
ENDBRANCH   3  17
TORSDOF 6
ENDMDL
MODEL 9
REMARK VINA RESULT:      -6.4      2.698      3.764
REMARK  Name = 
REMARK  7 active torsions:
REMARK  status: ('A' for Active; 'I' for Inactive)
REMARK    1  A    between atoms: C_1  and  N_2
REMARK    2  A    between atoms: N_2  and  C_3
REMARK    3  A    between atoms: N_2  and  C_12
REMARK    4  A    between atoms: C_14  and  N_15
REMARK    5  A    between atoms: N_15  and  S_16
REMARK    6  A    between atoms: S_16  and  N_19
REMARK    7  A    between atoms: C_22  and  C_23
REMARK                            x       y       z     vdW  Elec       q    Type
REMARK                         _______ _______ _______ _____ _____    ______ ____
ROOT
ATOM      1  C   UNL     1       3.815   4.896  19.419  0.00  0.00    +0.000 C 
ATOM      2  C   UNL     1       4.319   3.530  18.883  0.00  0.00    +0.000 C 
ATOM      3  C   UNL     1       5.442   4.256  18.121  0.00  0.00    +0.000 C 
ATOM      4  C   UNL     1       5.206   5.470  19.051  0.00  0.00    +0.000 C 
ENDROOT
BRANCH   1   6
ATOM      5  C   UNL     1       1.780   4.754  17.938  0.00  0.00    +0.000 C 
ATOM      6  N   UNL     1       2.739   5.553  18.707  0.00  0.00    +0.000 N 
BRANCH   6   7
ATOM      7  C   UNL     1       2.449   6.943  18.736  0.00  0.00    +0.000 A 
ATOM      8  N   UNL     1       2.739   7.689  17.625  0.00  0.00    +0.000 NA
ATOM      9  C   UNL     1       2.390   8.983  17.554  0.00  0.00    +0.000 A 
ATOM     10  N   UNL     1       1.743   9.705  18.472  0.00  0.00    +0.000 NA
ATOM     11  C   UNL     1       1.503   8.978  19.571  0.00  0.00    +0.000 A 
ATOM     12  N   UNL     1       0.831   9.467  20.656  0.00  0.00    +0.000 N 
ATOM     13  C   UNL     1       0.785   8.515  21.637  0.00  0.00    +0.000 A 
ATOM     14  C   UNL     1       1.423   7.391  21.152  0.00  0.00    +0.000 A 
ATOM     15  C   UNL     1       1.840   7.649  19.809  0.00  0.00    +0.000 A 
ATOM     16  H   UNL     1       0.434  10.394  20.694  0.00  0.00    +0.000 HD
ENDBRANCH   6   7
ENDBRANCH   1   6
BRANCH   3  17
ATOM     17  N   UNL     1       5.286   4.496  16.639  0.00  0.00    +0.000 NA
ATOM     18  H   UNL     1       4.341   4.825  16.439  0.00  0.00    +0.000 HD
BRANCH  17  19
ATOM     19  S   UNL     1       6.321   5.506  15.777  0.00  0.00    +0.000 S 
ATOM     20  O   UNL     1       5.716   6.813  15.760  0.00  0.00    +0.000 OA
ATOM     21  O   UNL     1       7.684   5.281  16.199  0.00  0.00    +0.000 OA
BRANCH  19  22
ATOM     22  N   UNL     1       6.103   4.801  14.281  0.00  0.00    +0.000 NA
ATOM     23  C   UNL     1       6.985   5.245  13.179  0.00  0.00    +0.000 C 
ATOM     24  C   UNL     1       7.295   3.982  12.377  0.00  0.00    +0.000 C 
ATOM     25  C   UNL     1       6.150   3.031  12.709  0.00  0.00    +0.000 C 
ATOM     26  C   UNL     1       5.909   3.334  14.187  0.00  0.00    +0.000 C 
BRANCH  25  27
ATOM     27  C   UNL     1       4.952   3.320  11.904  0.00  0.00    +0.000 C 
ATOM     28  N   UNL     1       4.000   3.547  11.279  0.00  0.00    +0.000 NA
ENDBRANCH  25  27
ENDBRANCH  19  22
ENDBRANCH  17  19
ENDBRANCH   3  17
TORSDOF 6
ENDMDL
