MODEL 1
REMARK VINA RESULT:      -8.1      0.000      0.000
REMARK  Name = 
REMARK  5 active torsions:
REMARK  status: ('A' for Active; 'I' for Inactive)
REMARK    1  A    between atoms: C_2  and  C_3
REMARK    2  A    between atoms: C_3  and  N_4
REMARK    3  A    between atoms: N_4  and  C_5
REMARK    4  A    between atoms: C_10  and  C_11
REMARK    5  A    between atoms: C_12  and  C_13
REMARK                            x       y       z     vdW  Elec       q    Type
REMARK                         _______ _______ _______ _____ _____    ______ ____
ROOT
ATOM      1  C   UNL     1       6.003   3.882  12.910  0.00  0.00    +0.000 A 
ATOM      2  C   UNL     1       7.239   4.531  13.059  0.00  0.00    +0.000 A 
ATOM      3  C   UNL     1       7.643   4.984  14.323  0.00  0.00    +0.000 A 
ATOM      4  C   UNL     1       6.863   4.807  15.435  0.00  0.00    +0.000 A 
ATOM      5  N   UNL     1       7.305   5.280  16.620  0.00  0.00    +0.000 NA
ATOM      6  C   UNL     1       6.526   5.086  17.705  0.00  0.00    +0.000 A 
ATOM      7  C   UNL     1       7.072   5.646  18.983  0.00  0.00    +0.000 C 
ATOM      8  C   UNL     1       5.295   4.395  17.619  0.00  0.00    +0.000 A 
ATOM      9  N   UNL     1       4.849   3.919  16.424  0.00  0.00    +0.000 NA
ATOM     10  C   UNL     1       5.624   4.140  15.334  0.00  0.00    +0.000 A 
ATOM     11  C   UNL     1       5.220   3.727  14.064  0.00  0.00    +0.000 A 
ENDROOT
BRANCH   8  12
ATOM     12  C   UNL     1       4.440   4.128  18.803  0.00  0.00    +0.000 A 
ATOM     13  C   UNL     1       4.522   2.891  19.471  0.00  0.00    +0.000 A 
ATOM     14  C   UNL     1       3.586   2.468  20.405  0.00  0.00    +0.000 A 
ATOM     15  C   UNL     1       2.608   3.355  20.792  0.00  0.00    +0.000 A 
ATOM     16 CL   UNL     1       1.442   2.851  21.953  0.00  0.00    +0.000 Cl
ATOM     17  C   UNL     1       2.563   4.644  20.259  0.00  0.00    +0.000 A 
ATOM     18  C   UNL     1       3.476   5.025  19.248  0.00  0.00    +0.000 A 
ENDBRANCH   8  12
BRANCH   1  19
ATOM     19  N   UNL     1       5.582   3.482  11.655  0.00  0.00    +0.000 N 
ATOM     20  H   UNL     1       6.150   3.705  10.847  0.00  0.00    +0.000 HD
BRANCH  19  21
ATOM     21  C   UNL     1       4.275   2.895  11.423  0.00  0.00    +0.000 C 
BRANCH  21  23
ATOM     22  C   UNL     1       2.832   4.361   9.489  0.00  0.00    +0.000 C 
ATOM     23  C   UNL     1       3.498   3.684  10.382  0.00  0.00    +0.000 C 
ENDBRANCH  21  23
ENDBRANCH  19  21
ENDBRANCH   1  19
TORSDOF 4
ENDMDL
MODEL 2
REMARK VINA RESULT:      -7.8      1.519      1.822
REMARK  Name = 
REMARK  5 active torsions:
REMARK  status: ('A' for Active; 'I' for Inactive)
REMARK    1  A    between atoms: C_2  and  C_3
REMARK    2  A    between atoms: C_3  and  N_4
REMARK    3  A    between atoms: N_4  and  C_5
REMARK    4  A    between atoms: C_10  and  C_11
REMARK    5  A    between atoms: C_12  and  C_13
REMARK                            x       y       z     vdW  Elec       q    Type
REMARK                         _______ _______ _______ _____ _____    ______ ____
ROOT
ATOM      1  C   UNL     1       5.822   3.542  12.335  0.00  0.00    +0.000 A 
ATOM      2  C   UNL     1       7.166   3.952  12.327  0.00  0.00    +0.000 A 
ATOM      3  C   UNL     1       7.673   4.704  13.397  0.00  0.00    +0.000 A 
ATOM      4  C   UNL     1       6.892   5.051  14.467  0.00  0.00    +0.000 A 
ATOM      5  N   UNL     1       7.439   5.789  15.458  0.00  0.00    +0.000 NA
ATOM      6  C   UNL     1       6.657   6.113  16.508  0.00  0.00    +0.000 A 
ATOM      7  C   UNL     1       7.325   6.940  17.563  0.00  0.00    +0.000 C 
ATOM      8  C   UNL     1       5.311   5.683  16.589  0.00  0.00    +0.000 A 
ATOM      9  N   UNL     1       4.759   4.942  15.590  0.00  0.00    +0.000 NA
ATOM     10  C   UNL     1       5.543   4.642  14.526  0.00  0.00    +0.000 A 
ATOM     11  C   UNL     1       5.044   3.925  13.438  0.00  0.00    +0.000 A 
ENDROOT
BRANCH   8  12
ATOM     12  C   UNL     1       4.440   5.986  17.753  0.00  0.00    +0.000 A 
ATOM     13  C   UNL     1       4.398   5.108  18.853  0.00  0.00    +0.000 A 
ATOM     14  C   UNL     1       3.430   5.178  19.844  0.00  0.00    +0.000 A 
ATOM     15  C   UNL     1       2.551   6.237  19.820  0.00  0.00    +0.000 A 
ATOM     16 CL   UNL     1       1.346   6.344  21.045  0.00  0.00    +0.000 Cl
ATOM     17  C   UNL     1       2.635   7.212  18.825  0.00  0.00    +0.000 A 
ATOM     18  C   UNL     1       3.576   7.075  17.779  0.00  0.00    +0.000 A 
ENDBRANCH   8  12
BRANCH   1  19
ATOM     19  N   UNL     1       5.309   2.846  11.256  0.00  0.00    +0.000 N 
ATOM     20  H   UNL     1       5.927   2.574  10.502  0.00  0.00    +0.000 HD
BRANCH  19  21
ATOM     21  C   UNL     1       3.885   2.628  11.078  0.00  0.00    +0.000 C 
BRANCH  21  23
ATOM     22  C   UNL     1       2.773   4.546   9.329  0.00  0.00    +0.000 C 
ATOM     23  C   UNL     1       3.287   3.660  10.136  0.00  0.00    +0.000 C 
ENDBRANCH  21  23
ENDBRANCH  19  21
ENDBRANCH   1  19
TORSDOF 4
ENDMDL
MODEL 3
REMARK VINA RESULT:      -7.2      5.341      8.020
REMARK  Name = 
REMARK  5 active torsions:
REMARK  status: ('A' for Active; 'I' for Inactive)
REMARK    1  A    between atoms: C_2  and  C_3
REMARK    2  A    between atoms: C_3  and  N_4
REMARK    3  A    between atoms: N_4  and  C_5
REMARK    4  A    between atoms: C_10  and  C_11
REMARK    5  A    between atoms: C_12  and  C_13
REMARK                            x       y       z     vdW  Elec       q    Type
REMARK                         _______ _______ _______ _____ _____    ______ ____
ROOT
ATOM      1  C   UNL     1       0.557  10.749  18.895  0.00  0.00    +0.000 A 
ATOM      2  C   UNL     1       0.241  10.316  20.193  0.00  0.00    +0.000 A 
ATOM      3  C   UNL     1       0.724   9.082  20.655  0.00  0.00    +0.000 A 
ATOM      4  C   UNL     1       1.509   8.277  19.872  0.00  0.00    +0.000 A 
ATOM      5  N   UNL     1       1.928   7.095  20.374  0.00  0.00    +0.000 NA
ATOM      6  C   UNL     1       2.709   6.321  19.591  0.00  0.00    +0.000 A 
ATOM      7  C   UNL     1       3.128   5.021  20.206  0.00  0.00    +0.000 C 
ATOM      8  C   UNL     1       3.098   6.733  18.295  0.00  0.00    +0.000 A 
ATOM      9  N   UNL     1       2.674   7.923  17.789  0.00  0.00    +0.000 NA
ATOM     10  C   UNL     1       1.868   8.684  18.570  0.00  0.00    +0.000 A 
ATOM     11  C   UNL     1       1.352   9.897  18.113  0.00  0.00    +0.000 A 
ENDROOT
BRANCH   8  12
ATOM     12  C   UNL     1       3.992   5.922  17.430  0.00  0.00    +0.000 A 
ATOM     13  C   UNL     1       4.992   6.549  16.663  0.00  0.00    +0.000 A 
ATOM     14  C   UNL     1       5.683   5.907  15.644  0.00  0.00    +0.000 A 
ATOM     15  C   UNL     1       5.472   4.559  15.466  0.00  0.00    +0.000 A 
ATOM     16 CL   UNL     1       6.323   3.744  14.211  0.00  0.00    +0.000 Cl
ATOM     17  C   UNL     1       4.589   3.860  16.290  0.00  0.00    +0.000 A 
ATOM     18  C   UNL     1       3.835   4.551  17.267  0.00  0.00    +0.000 A 
ENDBRANCH   8  12
BRANCH   1  19
ATOM     19  N   UNL     1       0.039  11.940  18.421  0.00  0.00    +0.000 N 
ATOM     20  H   UNL     1       0.649  12.743  18.327  0.00  0.00    +0.000 HD
BRANCH  19  21
ATOM     21  C   UNL     1      -1.382  12.138  18.204  0.00  0.00    +0.000 C 
BRANCH  21  23
ATOM     22  C   UNL     1      -2.529   9.916  16.893  0.00  0.00    +0.000 C 
ATOM     23  C   UNL     1      -2.000  10.942  17.498  0.00  0.00    +0.000 C 
ENDBRANCH  21  23
ENDBRANCH  19  21
ENDBRANCH   1  19
TORSDOF 4
ENDMDL
MODEL 4
REMARK VINA RESULT:      -7.2      0.601      1.158
REMARK  Name = 
REMARK  5 active torsions:
REMARK  status: ('A' for Active; 'I' for Inactive)
REMARK    1  A    between atoms: C_2  and  C_3
REMARK    2  A    between atoms: C_3  and  N_4
REMARK    3  A    between atoms: N_4  and  C_5
REMARK    4  A    between atoms: C_10  and  C_11
REMARK    5  A    between atoms: C_12  and  C_13
REMARK                            x       y       z     vdW  Elec       q    Type
REMARK                         _______ _______ _______ _____ _____    ______ ____
ROOT
ATOM      1  C   UNL     1       6.276   3.965  13.137  0.00  0.00    +0.000 A 
ATOM      2  C   UNL     1       7.368   4.778  13.482  0.00  0.00    +0.000 A 
ATOM      3  C   UNL     1       7.533   5.200  14.810  0.00  0.00    +0.000 A 
ATOM      4  C   UNL     1       6.656   4.834  15.796  0.00  0.00    +0.000 A 
ATOM      5  N   UNL     1       6.865   5.287  17.051  0.00  0.00    +0.000 NA
ATOM      6  C   UNL     1       5.996   4.908  18.011  0.00  0.00    +0.000 A 
ATOM      7  C   UNL     1       6.282   5.454  19.376  0.00  0.00    +0.000 C 
ATOM      8  C   UNL     1       4.908   4.049  17.726  0.00  0.00    +0.000 A 
ATOM      9  N   UNL     1       4.696   3.595  16.461  0.00  0.00    +0.000 NA
ATOM     10  C   UNL     1       5.558   4.001  15.498  0.00  0.00    +0.000 A 
ATOM     11  C   UNL     1       5.388   3.619  14.166  0.00  0.00    +0.000 A 
ENDROOT
BRANCH   8  12
ATOM     12  C   UNL     1       3.961   3.580  18.770  0.00  0.00    +0.000 A 
ATOM     13  C   UNL     1       2.723   4.227  18.946  0.00  0.00    +0.000 A 
ATOM     14  C   UNL     1       1.911   4.026  20.052  0.00  0.00    +0.000 A 
ATOM     15  C   UNL     1       2.270   3.049  20.953  0.00  0.00    +0.000 A 
ATOM     16 CL   UNL     1       1.272   2.780  22.329  0.00  0.00    +0.000 Cl
ATOM     17  C   UNL     1       3.420   2.284  20.754  0.00  0.00    +0.000 A 
ATOM     18  C   UNL     1       4.276   2.563  19.664  0.00  0.00    +0.000 A 
ENDBRANCH   8  12
BRANCH   1  19
ATOM     19  N   UNL     1       6.085   3.593  11.820  0.00  0.00    +0.000 N 
ATOM     20  H   UNL     1       6.636   4.035  11.095  0.00  0.00    +0.000 HD
BRANCH  19  21
ATOM     21  C   UNL     1       5.010   2.708  11.410  0.00  0.00    +0.000 C 
BRANCH  21  23
ATOM     22  C   UNL     1       3.052   4.104   9.929  0.00  0.00    +0.000 C 
ATOM     23  C   UNL     1       3.957   3.460  10.612  0.00  0.00    +0.000 C 
ENDBRANCH  21  23
ENDBRANCH  19  21
ENDBRANCH   1  19
TORSDOF 4
ENDMDL
MODEL 5
REMARK VINA RESULT:      -7.2      3.264      4.676
REMARK  Name = 
REMARK  5 active torsions:
REMARK  status: ('A' for Active; 'I' for Inactive)
REMARK    1  A    between atoms: C_2  and  C_3
REMARK    2  A    between atoms: C_3  and  N_4
REMARK    3  A    between atoms: N_4  and  C_5
REMARK    4  A    between atoms: C_10  and  C_11
REMARK    5  A    between atoms: C_12  and  C_13
REMARK                            x       y       z     vdW  Elec       q    Type
REMARK                         _______ _______ _______ _____ _____    ______ ____
ROOT
ATOM      1  C   UNL     1       6.509   4.997  15.397  0.00  0.00    +0.000 A 
ATOM      2  C   UNL     1       6.114   3.694  15.741  0.00  0.00    +0.000 A 
ATOM      3  C   UNL     1       5.041   3.499  16.622  0.00  0.00    +0.000 A 
ATOM      4  C   UNL     1       4.351   4.552  17.162  0.00  0.00    +0.000 A 
ATOM      5  N   UNL     1       3.337   4.294  18.016  0.00  0.00    +0.000 NA
ATOM      6  C   UNL     1       2.663   5.345  18.530  0.00  0.00    +0.000 A 
ATOM      7  C   UNL     1       1.559   4.986  19.476  0.00  0.00    +0.000 C 
ATOM      8  C   UNL     1       2.989   6.676  18.177  0.00  0.00    +0.000 A 
ATOM      9  N   UNL     1       4.012   6.936  17.319  0.00  0.00    +0.000 NA
ATOM     10  C   UNL     1       4.701   5.877  16.827  0.00  0.00    +0.000 A 
ATOM     11  C   UNL     1       5.793   6.055  15.977  0.00  0.00    +0.000 A 
ENDROOT
BRANCH   8  12
ATOM     12  C   UNL     1       2.236   7.849  18.692  0.00  0.00    +0.000 A 
ATOM     13  C   UNL     1       1.936   7.950  20.064  0.00  0.00    +0.000 A 
ATOM     14  C   UNL     1       1.024   8.862  20.576  0.00  0.00    +0.000 A 
ATOM     15  C   UNL     1       0.490   9.797  19.720  0.00  0.00    +0.000 A 
ATOM     16 CL   UNL     1      -0.639  10.940  20.338  0.00  0.00    +0.000 Cl
ATOM     17  C   UNL     1       0.858   9.825  18.374  0.00  0.00    +0.000 A 
ATOM     18  C   UNL     1       1.725   8.835  17.857  0.00  0.00    +0.000 A 
ENDBRANCH   8  12
BRANCH   1  19
ATOM     19  N   UNL     1       7.600   5.191  14.570  0.00  0.00    +0.000 N 
ATOM     20  H   UNL     1       8.499   5.413  14.979  0.00  0.00    +0.000 HD
BRANCH  19  21
ATOM     21  C   UNL     1       7.479   5.248  13.125  0.00  0.00    +0.000 C 
BRANCH  21  23
ATOM     22  C   UNL     1       5.884   3.129  12.155  0.00  0.00    +0.000 C 
ATOM     23  C   UNL     1       6.621   4.107  12.602  0.00  0.00    +0.000 C 
ENDBRANCH  21  23
ENDBRANCH  19  21
ENDBRANCH   1  19
TORSDOF 4
ENDMDL
MODEL 6
REMARK VINA RESULT:      -7.1      3.540      4.991
REMARK  Name = 
REMARK  5 active torsions:
REMARK  status: ('A' for Active; 'I' for Inactive)
REMARK    1  A    between atoms: C_2  and  C_3
REMARK    2  A    between atoms: C_3  and  N_4
REMARK    3  A    between atoms: N_4  and  C_5
REMARK    4  A    between atoms: C_10  and  C_11
REMARK    5  A    between atoms: C_12  and  C_13
REMARK                            x       y       z     vdW  Elec       q    Type
REMARK                         _______ _______ _______ _____ _____    ______ ____
ROOT
ATOM      1  C   UNL     1       5.524   5.313  15.687  0.00  0.00    +0.000 A 
ATOM      2  C   UNL     1       5.284   4.013  16.160  0.00  0.00    +0.000 A 
ATOM      3  C   UNL     1       4.422   3.813  17.248  0.00  0.00    +0.000 A 
ATOM      4  C   UNL     1       3.792   4.859  17.869  0.00  0.00    +0.000 A 
ATOM      5  N   UNL     1       2.985   4.598  18.920  0.00  0.00    +0.000 NA
ATOM      6  C   UNL     1       2.366   5.640  19.513  0.00  0.00    +0.000 A 
ATOM      7  C   UNL     1       1.496   5.280  20.678  0.00  0.00    +0.000 C 
ATOM      8  C   UNL     1       2.534   6.965  19.044  0.00  0.00    +0.000 A 
ATOM      9  N   UNL     1       3.349   7.227  17.987  0.00  0.00    +0.000 NA
ATOM     10  C   UNL     1       3.988   6.179  17.413  0.00  0.00    +0.000 A 
ATOM     11  C   UNL     1       4.876   6.364  16.352  0.00  0.00    +0.000 A 
ENDROOT
BRANCH   8  12
ATOM     12  C   UNL     1       1.831   8.125  19.648  0.00  0.00    +0.000 A 
ATOM     13  C   UNL     1       1.583   8.159  21.034  0.00  0.00    +0.000 A 
ATOM     14  C   UNL     1       0.713   9.062  21.628  0.00  0.00    +0.000 A 
ATOM     15  C   UNL     1       0.172  10.055  20.843  0.00  0.00    +0.000 A 
ATOM     16 CL   UNL     1      -0.905  11.189  21.563  0.00  0.00    +0.000 Cl
ATOM     17  C   UNL     1       0.493  10.148  19.488  0.00  0.00    +0.000 A 
ATOM     18  C   UNL     1       1.316   9.167  18.887  0.00  0.00    +0.000 A 
ENDBRANCH   8  12
BRANCH   1  19
ATOM     19  N   UNL     1       6.415   5.515  14.649  0.00  0.00    +0.000 N 
ATOM     20  H   UNL     1       6.577   6.455  14.310  0.00  0.00    +0.000 HD
BRANCH  19  21
ATOM     21  C   UNL     1       7.010   4.417  13.910  0.00  0.00    +0.000 C 
BRANCH  21  23
ATOM     22  C   UNL     1       5.229   3.423  11.957  0.00  0.00    +0.000 C 
ATOM     23  C   UNL     1       6.051   3.881  12.859  0.00  0.00    +0.000 C 
ENDBRANCH  21  23
ENDBRANCH  19  21
ENDBRANCH   1  19
TORSDOF 4
ENDMDL
MODEL 7
REMARK VINA RESULT:      -7.1      1.411      1.679
REMARK  Name = 
REMARK  5 active torsions:
REMARK  status: ('A' for Active; 'I' for Inactive)
REMARK    1  A    between atoms: C_2  and  C_3
REMARK    2  A    between atoms: C_3  and  N_4
REMARK    3  A    between atoms: N_4  and  C_5
REMARK    4  A    between atoms: C_10  and  C_11
REMARK    5  A    between atoms: C_12  and  C_13
REMARK                            x       y       z     vdW  Elec       q    Type
REMARK                         _______ _______ _______ _____ _____    ______ ____
ROOT
ATOM      1  C   UNL     1       6.229   3.657  12.984  0.00  0.00    +0.000 A 
ATOM      2  C   UNL     1       7.377   4.452  13.130  0.00  0.00    +0.000 A 
ATOM      3  C   UNL     1       7.671   5.034  14.372  0.00  0.00    +0.000 A 
ATOM      4  C   UNL     1       6.867   4.845  15.464  0.00  0.00    +0.000 A 
ATOM      5  N   UNL     1       7.201   5.446  16.627  0.00  0.00    +0.000 NA
ATOM      6  C   UNL     1       6.402   5.239  17.695  0.00  0.00    +0.000 A 
ATOM      7  C   UNL     1       6.825   5.943  18.947  0.00  0.00    +0.000 C 
ATOM      8  C   UNL     1       5.260   4.406  17.615  0.00  0.00    +0.000 A 
ATOM      9  N   UNL     1       4.924   3.802  16.443  0.00  0.00    +0.000 NA
ATOM     10  C   UNL     1       5.716   4.036  15.368  0.00  0.00    +0.000 A 
ATOM     11  C   UNL     1       5.418   3.493  14.117  0.00  0.00    +0.000 A 
ENDROOT
BRANCH   8  12
ATOM     12  C   UNL     1       4.389   4.125  18.784  0.00  0.00    +0.000 A 
ATOM     13  C   UNL     1       4.544   2.929  19.510  0.00  0.00    +0.000 A 
ATOM     14  C   UNL     1       3.613   2.475  20.434  0.00  0.00    +0.000 A 
ATOM     15  C   UNL     1       2.556   3.298  20.749  0.00  0.00    +0.000 A 
ATOM     16 CL   UNL     1       1.394   2.755  21.897  0.00  0.00    +0.000 Cl
ATOM     17  C   UNL     1       2.429   4.555  20.156  0.00  0.00    +0.000 A 
ATOM     18  C   UNL     1       3.344   4.962  19.157  0.00  0.00    +0.000 A 
ENDBRANCH   8  12
BRANCH   1  19
ATOM     19  N   UNL     1       5.911   3.127  11.748  0.00  0.00    +0.000 N 
ATOM     20  H   UNL     1       4.977   3.255  11.379  0.00  0.00    +0.000 HD
BRANCH  19  21
ATOM     21  C   UNL     1       6.812   2.251  11.022  0.00  0.00    +0.000 C 
BRANCH  21  23
ATOM     22  C   UNL     1       6.045  -0.452  11.299  0.00  0.00    +0.000 C 
ATOM     23  C   UNL     1       6.399   0.796  11.171  0.00  0.00    +0.000 C 
ENDBRANCH  21  23
ENDBRANCH  19  21
ENDBRANCH   1  19
TORSDOF 4
ENDMDL
MODEL 8
REMARK VINA RESULT:      -7.1      3.572      5.033
REMARK  Name = 
REMARK  5 active torsions:
REMARK  status: ('A' for Active; 'I' for Inactive)
REMARK    1  A    between atoms: C_2  and  C_3
REMARK    2  A    between atoms: C_3  and  N_4
REMARK    3  A    between atoms: N_4  and  C_5
REMARK    4  A    between atoms: C_10  and  C_11
REMARK    5  A    between atoms: C_12  and  C_13
REMARK                            x       y       z     vdW  Elec       q    Type
REMARK                         _______ _______ _______ _____ _____    ______ ____
ROOT
ATOM      1  C   UNL     1       5.770   5.266  15.633  0.00  0.00    +0.000 A 
ATOM      2  C   UNL     1       5.606   3.981  16.174  0.00  0.00    +0.000 A 
ATOM      3  C   UNL     1       4.739   3.785  17.259  0.00  0.00    +0.000 A 
ATOM      4  C   UNL     1       4.032   4.820  17.812  0.00  0.00    +0.000 A 
ATOM      5  N   UNL     1       3.225   4.565  18.865  0.00  0.00    +0.000 NA
ATOM      6  C   UNL     1       2.530   5.596  19.389  0.00  0.00    +0.000 A 
ATOM      7  C   UNL     1       1.664   5.244  20.559  0.00  0.00    +0.000 C 
ATOM      8  C   UNL     1       2.620   6.901  18.849  0.00  0.00    +0.000 A 
ATOM      9  N   UNL     1       3.435   7.158  17.790  0.00  0.00    +0.000 NA
ATOM     10  C   UNL     1       4.151   6.123  17.285  0.00  0.00    +0.000 A 
ATOM     11  C   UNL     1       5.043   6.308  16.228  0.00  0.00    +0.000 A 
ENDROOT
BRANCH   8  12
ATOM     12  C   UNL     1       1.833   8.044  19.377  0.00  0.00    +0.000 A 
ATOM     13  C   UNL     1       1.469   9.105  18.526  0.00  0.00    +0.000 A 
ATOM     14  C   UNL     1       0.974  10.316  18.990  0.00  0.00    +0.000 A 
ATOM     15  C   UNL     1       0.701  10.433  20.333  0.00  0.00    +0.000 A 
ATOM     16 CL   UNL     1       0.081  11.925  20.928  0.00  0.00    +0.000 Cl
ATOM     17  C   UNL     1       0.918   9.363  21.202  0.00  0.00    +0.000 A 
ATOM     18  C   UNL     1       1.501   8.168  20.721  0.00  0.00    +0.000 A 
ENDBRANCH   8  12
BRANCH   1  19
ATOM     19  N   UNL     1       6.664   5.468  14.597  0.00  0.00    +0.000 N 
ATOM     20  H   UNL     1       6.877   6.413  14.304  0.00  0.00    +0.000 HD
BRANCH  19  21
ATOM     21  C   UNL     1       7.191   4.376  13.800  0.00  0.00    +0.000 C 
BRANCH  21  23
ATOM     22  C   UNL     1       5.215   3.331  12.075  0.00  0.00    +0.000 C 
ATOM     23  C   UNL     1       6.127   3.814  12.871  0.00  0.00    +0.000 C 
ENDBRANCH  21  23
ENDBRANCH  19  21
ENDBRANCH   1  19
TORSDOF 4
ENDMDL
MODEL 9
REMARK VINA RESULT:      -6.9      4.603      6.829
REMARK  Name = 
REMARK  5 active torsions:
REMARK  status: ('A' for Active; 'I' for Inactive)
REMARK    1  A    between atoms: C_2  and  C_3
REMARK    2  A    between atoms: C_3  and  N_4
REMARK    3  A    between atoms: N_4  and  C_5
REMARK    4  A    between atoms: C_10  and  C_11
REMARK    5  A    between atoms: C_12  and  C_13
REMARK                            x       y       z     vdW  Elec       q    Type
REMARK                         _______ _______ _______ _____ _____    ______ ____
ROOT
ATOM      1  C   UNL     1       4.051   4.083  18.920  0.00  0.00    +0.000 A 
ATOM      2  C   UNL     1       4.490   4.567  17.677  0.00  0.00    +0.000 A 
ATOM      3  C   UNL     1       4.128   5.857  17.262  0.00  0.00    +0.000 A 
ATOM      4  C   UNL     1       3.354   6.674  18.043  0.00  0.00    +0.000 A 
ATOM      5  N   UNL     1       3.030   7.899  17.577  0.00  0.00    +0.000 NA
ATOM      6  C   UNL     1       2.275   8.693  18.365  0.00  0.00    +0.000 A 
ATOM      7  C   UNL     1       1.945  10.033  17.782  0.00  0.00    +0.000 C 
ATOM      8  C   UNL     1       1.848   8.273  19.647  0.00  0.00    +0.000 A 
ATOM      9  N   UNL     1       2.173   7.037  20.116  0.00  0.00    +0.000 NA
ATOM     10  C   UNL     1       2.909   6.235  19.308  0.00  0.00    +0.000 A 
ATOM     11  C   UNL     1       3.249   4.937  19.691  0.00  0.00    +0.000 A 
ENDROOT
BRANCH   8  12
ATOM     12  C   UNL     1       1.055   9.142  20.554  0.00  0.00    +0.000 A 
ATOM     13  C   UNL     1       1.070   8.914  21.943  0.00  0.00    +0.000 A 
ATOM     14  C   UNL     1       0.166   9.500  22.818  0.00  0.00    +0.000 A 
ATOM     15  C   UNL     1      -0.699  10.447  22.321  0.00  0.00    +0.000 A 
ATOM     16 CL   UNL     1      -1.825  11.189  23.392  0.00  0.00    +0.000 Cl
ATOM     17  C   UNL     1      -0.664  10.808  20.973  0.00  0.00    +0.000 A 
ATOM     18  C   UNL     1       0.209  10.139  20.084  0.00  0.00    +0.000 A 
ENDBRANCH   8  12
BRANCH   1  19
ATOM     19  N   UNL     1       4.364   2.792  19.306  0.00  0.00    +0.000 N 
ATOM     20  H   UNL     1       5.213   2.625  19.831  0.00  0.00    +0.000 HD
BRANCH  19  21
ATOM     21  C   UNL     1       3.609   1.639  18.851  0.00  0.00    +0.000 C 
BRANCH  21  23
ATOM     22  C   UNL     1       0.843   2.200  18.783  0.00  0.00    +0.000 C 
ATOM     23  C   UNL     1       2.120   1.941  18.814  0.00  0.00    +0.000 C 
ENDBRANCH  21  23
ENDBRANCH  19  21
ENDBRANCH   1  19
TORSDOF 4
ENDMDL
