MODEL 1
REMARK VINA RESULT:      -9.3      0.000      0.000
REMARK  Name = 
REMARK  4 active torsions:
REMARK  status: ('A' for Active; 'I' for Inactive)
REMARK    1  A    between atoms: C_1  and  O_2
REMARK    2  A    between atoms: O_2  and  C_3
REMARK    3  A    between atoms: C_6  and  N_7
REMARK    4  A    between atoms: C_15  and  C_16
REMARK                            x       y       z     vdW  Elec       q    Type
REMARK                         _______ _______ _______ _____ _____    ______ ____
ROOT
ATOM      1  N   UNL     1       3.113   4.679  18.808  0.00  0.00    +0.000 N 
ATOM      2  C   UNL     1       1.989   3.893  18.567  0.00  0.00    +0.000 C 
ATOM      3  O   UNL     1       1.749   3.161  17.617  0.00  0.00    +0.000 OA
ATOM      4  C   UNL     1       1.094   4.035  19.784  0.00  0.00    +0.000 C 
ATOM      5  C   UNL     1       0.919   2.686  20.462  0.00  0.00    +0.000 C 
ATOM      6  C   UNL     1       2.167   2.573  21.316  0.00  0.00    +0.000 C 
ATOM      7  C   UNL     1       2.421   4.005  21.758  0.00  0.00    +0.000 C 
ATOM      8  N   UNL     1       1.842   4.899  20.737  0.00  0.00    +0.000 NA
ATOM      9  C   UNL     1       2.871   5.566  19.919  0.00  0.00    +0.000 C 
ENDROOT
BRANCH   9  10
ATOM     10  C   UNL     1       2.376   6.951  19.464  0.00  0.00    +0.000 A 
ATOM     11  C   UNL     1       2.654   7.397  18.159  0.00  0.00    +0.000 A 
ATOM     12  C   UNL     1       2.223   8.657  17.726  0.00  0.00    +0.000 A 
ATOM     13  C   UNL     1       1.518   9.496  18.586  0.00  0.00    +0.000 A 
ATOM     14  C   UNL     1       1.241   9.070  19.880  0.00  0.00    +0.000 A 
ATOM     15 BR   UNL     1       0.288  10.197  21.062  0.00  0.00    +0.000 Br
ATOM     16  C   UNL     1       1.663   7.814  20.316  0.00  0.00    +0.000 A 
ENDBRANCH   9  10
BRANCH   1  20
ATOM     17  C   UNL     1       6.582   4.810  16.372  0.00  0.00    +0.000 A 
ATOM     18  C   UNL     1       5.324   4.643  15.801  0.00  0.00    +0.000 A 
ATOM     19  C   UNL     1       4.178   4.611  16.602  0.00  0.00    +0.000 A 
ATOM     20  C   UNL     1       4.266   4.753  17.988  0.00  0.00    +0.000 A 
ATOM     21  C   UNL     1       5.536   4.933  18.554  0.00  0.00    +0.000 A 
ATOM     22  C   UNL     1       6.687   4.941  17.754  0.00  0.00    +0.000 A 
BRANCH  17  24
ATOM     23  C   UNL     1       7.284   4.864  14.121  0.00  0.00    +0.000 C 
ATOM     24  O   UNL     1       7.631   4.784  15.499  0.00  0.00    +0.000 OA
ENDBRANCH  17  24
ENDBRANCH   1  20
TORSDOF 3
ENDMDL
MODEL 2
REMARK VINA RESULT:      -8.4      1.436      1.876
REMARK  Name = 
REMARK  4 active torsions:
REMARK  status: ('A' for Active; 'I' for Inactive)
REMARK    1  A    between atoms: C_1  and  O_2
REMARK    2  A    between atoms: O_2  and  C_3
REMARK    3  A    between atoms: C_6  and  N_7
REMARK    4  A    between atoms: C_15  and  C_16
REMARK                            x       y       z     vdW  Elec       q    Type
REMARK                         _______ _______ _______ _____ _____    ______ ____
ROOT
ATOM      1  N   UNL     1       2.933   5.167  19.069  0.00  0.00    +0.000 N 
ATOM      2  C   UNL     1       1.953   4.393  18.452  0.00  0.00    +0.000 C 
ATOM      3  O   UNL     1       1.908   3.978  17.304  0.00  0.00    +0.000 OA
ATOM      4  C   UNL     1       0.930   4.059  19.523  0.00  0.00    +0.000 C 
ATOM      5  C   UNL     1       0.869   2.556  19.733  0.00  0.00    +0.000 C 
ATOM      6  C   UNL     1       2.029   2.299  20.676  0.00  0.00    +0.000 C 
ATOM      7  C   UNL     1       2.045   3.537  21.557  0.00  0.00    +0.000 C 
ATOM      8  N   UNL     1       1.457   4.648  20.783  0.00  0.00    +0.000 NA
ATOM      9  C   UNL     1       2.465   5.633  20.351  0.00  0.00    +0.000 C 
ENDROOT
BRANCH   9  10
ATOM     10  C   UNL     1       1.839   7.036  20.270  0.00  0.00    +0.000 A 
ATOM     11  C   UNL     1       2.002   7.807  19.105  0.00  0.00    +0.000 A 
ATOM     12  C   UNL     1       1.450   9.090  19.012  0.00  0.00    +0.000 A 
ATOM     13  C   UNL     1       0.737   9.631  20.080  0.00  0.00    +0.000 A 
ATOM     14  C   UNL     1       0.573   8.883  21.240  0.00  0.00    +0.000 A 
ATOM     15 BR   UNL     1      -0.389   9.603  22.700  0.00  0.00    +0.000 Br
ATOM     16  C   UNL     1       1.116   7.602  21.336  0.00  0.00    +0.000 A 
ENDBRANCH   9  10
BRANCH   1  20
ATOM     17  C   UNL     1       6.536   6.562  17.320  0.00  0.00    +0.000 A 
ATOM     18  C   UNL     1       6.555   5.898  18.543  0.00  0.00    +0.000 A 
ATOM     19  C   UNL     1       5.369   5.427  19.116  0.00  0.00    +0.000 A 
ATOM     20  C   UNL     1       4.142   5.604  18.474  0.00  0.00    +0.000 A 
ATOM     21  C   UNL     1       4.133   6.263  17.237  0.00  0.00    +0.000 A 
ATOM     22  C   UNL     1       5.318   6.756  16.674  0.00  0.00    +0.000 A 
BRANCH  17  24
ATOM     23  C   UNL     1       8.207   8.218  17.479  0.00  0.00    +0.000 C 
ATOM     24  O   UNL     1       7.745   7.014  16.878  0.00  0.00    +0.000 OA
ENDBRANCH  17  24
ENDBRANCH   1  20
TORSDOF 3
ENDMDL
MODEL 3
REMARK VINA RESULT:      -8.2      1.583      2.229
REMARK  Name = 
REMARK  4 active torsions:
REMARK  status: ('A' for Active; 'I' for Inactive)
REMARK    1  A    between atoms: C_1  and  O_2
REMARK    2  A    between atoms: O_2  and  C_3
REMARK    3  A    between atoms: C_6  and  N_7
REMARK    4  A    between atoms: C_15  and  C_16
REMARK                            x       y       z     vdW  Elec       q    Type
REMARK                         _______ _______ _______ _____ _____    ______ ____
ROOT
ATOM      1  N   UNL     1       2.899   5.075  19.094  0.00  0.00    +0.000 N 
ATOM      2  C   UNL     1       1.915   4.315  18.466  0.00  0.00    +0.000 C 
ATOM      3  O   UNL     1       1.857   3.936  17.305  0.00  0.00    +0.000 OA
ATOM      4  C   UNL     1       0.908   3.942  19.538  0.00  0.00    +0.000 C 
ATOM      5  C   UNL     1       0.858   2.432  19.703  0.00  0.00    +0.000 C 
ATOM      6  C   UNL     1       2.032   2.153  20.621  0.00  0.00    +0.000 C 
ATOM      7  C   UNL     1       2.053   3.363  21.541  0.00  0.00    +0.000 C 
ATOM      8  N   UNL     1       1.449   4.494  20.810  0.00  0.00    +0.000 NA
ATOM      9  C   UNL     1       2.446   5.498  20.396  0.00  0.00    +0.000 C 
ENDROOT
BRANCH   9  10
ATOM     10  C   UNL     1       1.811   6.900  20.367  0.00  0.00    +0.000 A 
ATOM     11  C   UNL     1       0.926   7.286  21.390  0.00  0.00    +0.000 A 
ATOM     12  C   UNL     1       0.328   8.552  21.379  0.00  0.00    +0.000 A 
ATOM     13  C   UNL     1       0.593   9.449  20.347  0.00  0.00    +0.000 A 
ATOM     14  C   UNL     1       1.461   9.078  19.327  0.00  0.00    +0.000 A 
ATOM     15 BR   UNL     1       1.829  10.283  17.916  0.00  0.00    +0.000 Br
ATOM     16  C   UNL     1       2.064   7.821  19.334  0.00  0.00    +0.000 A 
ENDBRANCH   9  10
BRANCH   1  20
ATOM     17  C   UNL     1       6.469   6.546  17.340  0.00  0.00    +0.000 A 
ATOM     18  C   UNL     1       6.504   5.886  18.564  0.00  0.00    +0.000 A 
ATOM     19  C   UNL     1       5.329   5.390  19.139  0.00  0.00    +0.000 A 
ATOM     20  C   UNL     1       4.098   5.538  18.497  0.00  0.00    +0.000 A 
ATOM     21  C   UNL     1       4.073   6.194  17.259  0.00  0.00    +0.000 A 
ATOM     22  C   UNL     1       5.247   6.712  16.694  0.00  0.00    +0.000 A 
BRANCH  17  24
ATOM     23  C   UNL     1       8.137   8.199  17.545  0.00  0.00    +0.000 C 
ATOM     24  O   UNL     1       7.668   7.024  16.896  0.00  0.00    +0.000 OA
ENDBRANCH  17  24
ENDBRANCH   1  20
TORSDOF 3
ENDMDL
MODEL 4
REMARK VINA RESULT:      -8.0      0.774      1.257
REMARK  Name = 
REMARK  4 active torsions:
REMARK  status: ('A' for Active; 'I' for Inactive)
REMARK    1  A    between atoms: C_1  and  O_2
REMARK    2  A    between atoms: O_2  and  C_3
REMARK    3  A    between atoms: C_6  and  N_7
REMARK    4  A    between atoms: C_15  and  C_16
REMARK                            x       y       z     vdW  Elec       q    Type
REMARK                         _______ _______ _______ _____ _____    ______ ____
ROOT
ATOM      1  N   UNL     1       3.462   4.600  18.111  0.00  0.00    +0.000 N 
ATOM      2  C   UNL     1       2.327   3.832  17.861  0.00  0.00    +0.000 C 
ATOM      3  O   UNL     1       2.037   3.187  16.865  0.00  0.00    +0.000 OA
ATOM      4  C   UNL     1       1.498   3.861  19.133  0.00  0.00    +0.000 C 
ATOM      5  C   UNL     1       1.361   2.456  19.696  0.00  0.00    +0.000 C 
ATOM      6  C   UNL     1       2.653   2.274  20.469  0.00  0.00    +0.000 C 
ATOM      7  C   UNL     1       2.929   3.662  21.022  0.00  0.00    +0.000 C 
ATOM      8  N   UNL     1       2.295   4.641  20.117  0.00  0.00    +0.000 NA
ATOM      9  C   UNL     1       3.279   5.384  19.308  0.00  0.00    +0.000 C 
ENDROOT
BRANCH   9  10
ATOM     10  C   UNL     1       2.759   6.801  19.006  0.00  0.00    +0.000 A 
ATOM     11  C   UNL     1       3.096   7.423  17.790  0.00  0.00    +0.000 A 
ATOM     12  C   UNL     1       2.644   8.715  17.497  0.00  0.00    +0.000 A 
ATOM     13  C   UNL     1       1.858   9.412  18.412  0.00  0.00    +0.000 A 
ATOM     14  C   UNL     1       1.522   8.812  19.620  0.00  0.00    +0.000 A 
ATOM     15 BR   UNL     1       0.459   9.745  20.875  0.00  0.00    +0.000 Br
ATOM     16  C   UNL     1       1.965   7.523  19.915  0.00  0.00    +0.000 A 
ENDBRANCH   9  10
BRANCH   1  20
ATOM     17  C   UNL     1       6.753   5.147  15.494  0.00  0.00    +0.000 A 
ATOM     18  C   UNL     1       6.934   5.187  16.873  0.00  0.00    +0.000 A 
ATOM     19  C   UNL     1       5.851   4.995  17.738  0.00  0.00    +0.000 A 
ATOM     20  C   UNL     1       4.569   4.753  17.241  0.00  0.00    +0.000 A 
ATOM     21  C   UNL     1       4.399   4.703  15.851  0.00  0.00    +0.000 A 
ATOM     22  C   UNL     1       5.479   4.919  14.984  0.00  0.00    +0.000 A 
BRANCH  17  24
ATOM     23  C   UNL     1       7.728   5.189  13.347  0.00  0.00    +0.000 C 
ATOM     24  O   UNL     1       7.871   5.389  14.749  0.00  0.00    +0.000 OA
ENDBRANCH  17  24
ENDBRANCH   1  20
TORSDOF 3
ENDMDL
MODEL 5
REMARK VINA RESULT:      -7.9      3.047      5.737
REMARK  Name = 
REMARK  4 active torsions:
REMARK  status: ('A' for Active; 'I' for Inactive)
REMARK    1  A    between atoms: C_1  and  O_2
REMARK    2  A    between atoms: O_2  and  C_3
REMARK    3  A    between atoms: C_6  and  N_7
REMARK    4  A    between atoms: C_15  and  C_16
REMARK                            x       y       z     vdW  Elec       q    Type
REMARK                         _______ _______ _______ _____ _____    ______ ____
ROOT
ATOM      1  N   UNL     1       2.548   5.414  19.241  0.00  0.00    +0.000 N 
ATOM      2  C   UNL     1       2.635   4.677  20.419  0.00  0.00    +0.000 C 
ATOM      3  O   UNL     1       2.504   5.053  21.575  0.00  0.00    +0.000 OA
ATOM      4  C   UNL     1       2.848   3.231  20.009  0.00  0.00    +0.000 C 
ATOM      5  C   UNL     1       1.685   2.378  20.488  0.00  0.00    +0.000 C 
ATOM      6  C   UNL     1       0.641   2.593  19.411  0.00  0.00    +0.000 C 
ATOM      7  C   UNL     1       1.467   2.720  18.142  0.00  0.00    +0.000 C 
ATOM      8  N   UNL     1       2.802   3.222  18.522  0.00  0.00    +0.000 NA
ATOM      9  C   UNL     1       3.013   4.626  18.125  0.00  0.00    +0.000 C 
ENDROOT
BRANCH   9  10
ATOM     10  C   UNL     1       4.499   4.875  17.813  0.00  0.00    +0.000 A 
ATOM     11  C   UNL     1       5.371   5.272  18.843  0.00  0.00    +0.000 A 
ATOM     12  C   UNL     1       6.725   5.514  18.581  0.00  0.00    +0.000 A 
ATOM     13  C   UNL     1       7.230   5.374  17.290  0.00  0.00    +0.000 A 
ATOM     14  C   UNL     1       6.379   4.987  16.262  0.00  0.00    +0.000 A 
ATOM     15 BR   UNL     1       7.047   4.796  14.503  0.00  0.00    +0.000 Br
ATOM     16  C   UNL     1       5.030   4.740  16.517  0.00  0.00    +0.000 A 
ENDBRANCH   9  10
BRANCH   1  20
ATOM     17  C   UNL     1       1.524   9.517  18.915  0.00  0.00    +0.000 A 
ATOM     18  C   UNL     1       1.372   8.845  20.124  0.00  0.00    +0.000 A 
ATOM     19  C   UNL     1       1.720   7.494  20.236  0.00  0.00    +0.000 A 
ATOM     20  C   UNL     1       2.234   6.792  19.144  0.00  0.00    +0.000 A 
ATOM     21  C   UNL     1       2.395   7.480  17.934  0.00  0.00    +0.000 A 
ATOM     22  C   UNL     1       2.024   8.826  17.815  0.00  0.00    +0.000 A 
BRANCH  17  24
ATOM     23  C   UNL     1       0.481  11.265  20.105  0.00  0.00    +0.000 C 
ATOM     24  O   UNL     1       1.114  10.818  18.911  0.00  0.00    +0.000 OA
ENDBRANCH  17  24
ENDBRANCH   1  20
TORSDOF 3
ENDMDL
MODEL 6
REMARK VINA RESULT:      -7.8      3.076      5.711
REMARK  Name = 
REMARK  4 active torsions:
REMARK  status: ('A' for Active; 'I' for Inactive)
REMARK    1  A    between atoms: C_1  and  O_2
REMARK    2  A    between atoms: O_2  and  C_3
REMARK    3  A    between atoms: C_6  and  N_7
REMARK    4  A    between atoms: C_15  and  C_16
REMARK                            x       y       z     vdW  Elec       q    Type
REMARK                         _______ _______ _______ _____ _____    ______ ____
ROOT
ATOM      1  N   UNL     1       2.857   5.781  19.041  0.00  0.00    +0.000 N 
ATOM      2  C   UNL     1       2.839   4.841  20.068  0.00  0.00    +0.000 C 
ATOM      3  O   UNL     1       2.400   4.948  21.204  0.00  0.00    +0.000 OA
ATOM      4  C   UNL     1       3.410   3.559  19.490  0.00  0.00    +0.000 C 
ATOM      5  C   UNL     1       2.363   2.458  19.528  0.00  0.00    +0.000 C 
ATOM      6  C   UNL     1       1.544   2.728  18.281  0.00  0.00    +0.000 C 
ATOM      7  C   UNL     1       2.575   3.236  17.287  0.00  0.00    +0.000 C 
ATOM      8  N   UNL     1       3.677   3.847  18.055  0.00  0.00    +0.000 NA
ATOM      9  C   UNL     1       3.688   5.318  17.957  0.00  0.00    +0.000 C 
ENDROOT
BRANCH   9  10
ATOM     10  C   UNL     1       5.129   5.848  18.057  0.00  0.00    +0.000 A 
ATOM     11  C   UNL     1       5.586   6.806  17.134  0.00  0.00    +0.000 A 
ATOM     12  C   UNL     1       6.896   7.296  17.199  0.00  0.00    +0.000 A 
ATOM     13  C   UNL     1       7.774   6.833  18.176  0.00  0.00    +0.000 A 
ATOM     14  C   UNL     1       7.339   5.882  19.091  0.00  0.00    +0.000 A 
ATOM     15 BR   UNL     1       8.519   5.240  20.422  0.00  0.00    +0.000 Br
ATOM     16  C   UNL     1       6.033   5.394  19.035  0.00  0.00    +0.000 A 
ENDBRANCH   9  10
BRANCH   1  20
ATOM     17  C   UNL     1       1.128   9.651  19.187  0.00  0.00    +0.000 A 
ATOM     18  C   UNL     1       1.253   8.889  20.345  0.00  0.00    +0.000 A 
ATOM     19  C   UNL     1       1.834   7.617  20.301  0.00  0.00    +0.000 A 
ATOM     20  C   UNL     1       2.307   7.085  19.099  0.00  0.00    +0.000 A 
ATOM     21  C   UNL     1       2.188   7.864  17.940  0.00  0.00    +0.000 A 
ATOM     22  C   UNL     1       1.585   9.128  17.980  0.00  0.00    +0.000 A 
BRANCH  17  24
ATOM     23  C   UNL     1      -0.862  10.895  18.965  0.00  0.00    +0.000 C 
ATOM     24  O   UNL     1       0.509  10.857  19.342  0.00  0.00    +0.000 OA
ENDBRANCH  17  24
ENDBRANCH   1  20
TORSDOF 3
ENDMDL
MODEL 7
REMARK VINA RESULT:      -7.7      2.755      5.525
REMARK  Name = 
REMARK  4 active torsions:
REMARK  status: ('A' for Active; 'I' for Inactive)
REMARK    1  A    between atoms: C_1  and  O_2
REMARK    2  A    between atoms: O_2  and  C_3
REMARK    3  A    between atoms: C_6  and  N_7
REMARK    4  A    between atoms: C_15  and  C_16
REMARK                            x       y       z     vdW  Elec       q    Type
REMARK                         _______ _______ _______ _____ _____    ______ ____
ROOT
ATOM      1  N   UNL     1       2.548   5.391  19.165  0.00  0.00    +0.000 N 
ATOM      2  C   UNL     1       2.690   4.666  20.345  0.00  0.00    +0.000 C 
ATOM      3  O   UNL     1       2.643   5.058  21.502  0.00  0.00    +0.000 OA
ATOM      4  C   UNL     1       2.838   3.210  19.942  0.00  0.00    +0.000 C 
ATOM      5  C   UNL     1       1.686   2.394  20.505  0.00  0.00    +0.000 C 
ATOM      6  C   UNL     1       0.581   2.626  19.493  0.00  0.00    +0.000 C 
ATOM      7  C   UNL     1       1.328   2.715  18.172  0.00  0.00    +0.000 C 
ATOM      8  N   UNL     1       2.697   3.185  18.461  0.00  0.00    +0.000 NA
ATOM      9  C   UNL     1       2.920   4.578  18.033  0.00  0.00    +0.000 C 
ENDROOT
BRANCH   9  10
ATOM     10  C   UNL     1       4.390   4.782  17.624  0.00  0.00    +0.000 A 
ATOM     11  C   UNL     1       4.781   4.557  16.292  0.00  0.00    +0.000 A 
ATOM     12  C   UNL     1       6.115   4.726  15.899  0.00  0.00    +0.000 A 
ATOM     13  C   UNL     1       7.080   5.110  16.827  0.00  0.00    +0.000 A 
ATOM     14  C   UNL     1       6.709   5.330  18.148  0.00  0.00    +0.000 A 
ATOM     15 BR   UNL     1       8.007   5.850  19.421  0.00  0.00    +0.000 Br
ATOM     16  C   UNL     1       5.381   5.170  18.545  0.00  0.00    +0.000 A 
ENDBRANCH   9  10
BRANCH   1  20
ATOM     17  C   UNL     1       1.619   9.516  18.843  0.00  0.00    +0.000 A 
ATOM     18  C   UNL     1       1.429   8.841  20.045  0.00  0.00    +0.000 A 
ATOM     19  C   UNL     1       1.746   7.484  20.156  0.00  0.00    +0.000 A 
ATOM     20  C   UNL     1       2.265   6.776  19.070  0.00  0.00    +0.000 A 
ATOM     21  C   UNL     1       2.465   7.466  17.867  0.00  0.00    +0.000 A 
ATOM     22  C   UNL     1       2.125   8.821  17.748  0.00  0.00    +0.000 A 
BRANCH  17  24
ATOM     23  C   UNL     1       0.631  11.292  20.039  0.00  0.00    +0.000 C 
ATOM     24  O   UNL     1       1.236  10.827  18.838  0.00  0.00    +0.000 OA
ENDBRANCH  17  24
ENDBRANCH   1  20
TORSDOF 3
ENDMDL
MODEL 8
REMARK VINA RESULT:      -7.7      3.065      5.518
REMARK  Name = 
REMARK  4 active torsions:
REMARK  status: ('A' for Active; 'I' for Inactive)
REMARK    1  A    between atoms: C_1  and  O_2
REMARK    2  A    between atoms: O_2  and  C_3
REMARK    3  A    between atoms: C_6  and  N_7
REMARK    4  A    between atoms: C_15  and  C_16
REMARK                            x       y       z     vdW  Elec       q    Type
REMARK                         _______ _______ _______ _____ _____    ______ ____
ROOT
ATOM      1  N   UNL     1       2.801   5.749  19.022  0.00  0.00    +0.000 N 
ATOM      2  C   UNL     1       2.790   4.846  20.082  0.00  0.00    +0.000 C 
ATOM      3  O   UNL     1       2.349   4.989  21.212  0.00  0.00    +0.000 OA
ATOM      4  C   UNL     1       3.376   3.550  19.551  0.00  0.00    +0.000 C 
ATOM      5  C   UNL     1       2.340   2.441  19.627  0.00  0.00    +0.000 C 
ATOM      6  C   UNL     1       1.520   2.657  18.370  0.00  0.00    +0.000 C 
ATOM      7  C   UNL     1       2.548   3.140  17.359  0.00  0.00    +0.000 C 
ATOM      8  N   UNL     1       3.642   3.789  18.107  0.00  0.00    +0.000 NA
ATOM      9  C   UNL     1       3.638   5.256  17.956  0.00  0.00    +0.000 C 
ENDROOT
BRANCH   9  10
ATOM     10  C   UNL     1       5.074   5.804  18.039  0.00  0.00    +0.000 A 
ATOM     11  C   UNL     1       5.511   6.761  17.105  0.00  0.00    +0.000 A 
ATOM     12  C   UNL     1       6.815   7.267  17.155  0.00  0.00    +0.000 A 
ATOM     13  C   UNL     1       7.708   6.821  18.127  0.00  0.00    +0.000 A 
ATOM     14  C   UNL     1       7.293   5.871  19.052  0.00  0.00    +0.000 A 
ATOM     15 BR   UNL     1       8.493   5.252  20.376  0.00  0.00    +0.000 Br
ATOM     16  C   UNL     1       5.992   5.368  19.011  0.00  0.00    +0.000 A 
ENDBRANCH   9  10
BRANCH   1  20
ATOM     17  C   UNL     1       1.197   9.674  19.081  0.00  0.00    +0.000 A 
ATOM     18  C   UNL     1       1.610   9.098  17.883  0.00  0.00    +0.000 A 
ATOM     19  C   UNL     1       2.129   7.799  17.860  0.00  0.00    +0.000 A 
ATOM     20  C   UNL     1       2.237   7.049  19.033  0.00  0.00    +0.000 A 
ATOM     21  C   UNL     1       1.808   7.632  20.232  0.00  0.00    +0.000 A 
ATOM     22  C   UNL     1       1.311   8.942  20.259  0.00  0.00    +0.000 A 
BRANCH  17  24
ATOM     23  C   UNL     1       1.753  11.949  18.801  0.00  0.00    +0.000 C 
ATOM     24  O   UNL     1       0.747  10.960  18.989  0.00  0.00    +0.000 OA
ENDBRANCH  17  24
ENDBRANCH   1  20
TORSDOF 3
ENDMDL
MODEL 9
REMARK VINA RESULT:      -7.6      2.760      5.398
REMARK  Name = 
REMARK  4 active torsions:
REMARK  status: ('A' for Active; 'I' for Inactive)
REMARK    1  A    between atoms: C_1  and  O_2
REMARK    2  A    between atoms: O_2  and  C_3
REMARK    3  A    between atoms: C_6  and  N_7
REMARK    4  A    between atoms: C_15  and  C_16
REMARK                            x       y       z     vdW  Elec       q    Type
REMARK                         _______ _______ _______ _____ _____    ______ ____
ROOT
ATOM      1  N   UNL     1       2.562   5.218  19.157  0.00  0.00    +0.000 N 
ATOM      2  C   UNL     1       2.698   4.547  20.370  0.00  0.00    +0.000 C 
ATOM      3  O   UNL     1       2.649   4.992  21.507  0.00  0.00    +0.000 OA
ATOM      4  C   UNL     1       2.843   3.074  20.034  0.00  0.00    +0.000 C 
ATOM      5  C   UNL     1       1.687   2.288  20.631  0.00  0.00    +0.000 C 
ATOM      6  C   UNL     1       0.586   2.476  19.606  0.00  0.00    +0.000 C 
ATOM      7  C   UNL     1       1.337   2.502  18.285  0.00  0.00    +0.000 C 
ATOM      8  N   UNL     1       2.706   2.981  18.556  0.00  0.00    +0.000 NA
ATOM      9  C   UNL     1       2.934   4.353  18.065  0.00  0.00    +0.000 C 
ENDROOT
BRANCH   9  10
ATOM     10  C   UNL     1       4.406   4.533  17.652  0.00  0.00    +0.000 A 
ATOM     11  C   UNL     1       4.817   4.168  16.357  0.00  0.00    +0.000 A 
ATOM     12  C   UNL     1       6.152   4.314  15.962  0.00  0.00    +0.000 A 
ATOM     13  C   UNL     1       7.100   4.815  16.851  0.00  0.00    +0.000 A 
ATOM     14  C   UNL     1       6.709   5.175  18.135  0.00  0.00    +0.000 A 
ATOM     15 BR   UNL     1       7.984   5.854  19.356  0.00  0.00    +0.000 Br
ATOM     16  C   UNL     1       5.380   5.038  18.533  0.00  0.00    +0.000 A 
ENDBRANCH   9  10
BRANCH   1  20
ATOM     17  C   UNL     1       1.808   9.368  18.721  0.00  0.00    +0.000 A 
ATOM     18  C   UNL     1       2.297   8.623  17.652  0.00  0.00    +0.000 A 
ATOM     19  C   UNL     1       2.535   7.252  17.791  0.00  0.00    +0.000 A 
ATOM     20  C   UNL     1       2.283   6.598  18.998  0.00  0.00    +0.000 A 
ATOM     21  C   UNL     1       1.779   7.353  20.066  0.00  0.00    +0.000 A 
ATOM     22  C   UNL     1       1.563   8.732  19.934  0.00  0.00    +0.000 A 
BRANCH  17  24
ATOM     23  C   UNL     1       0.883  11.412  19.447  0.00  0.00    +0.000 C 
ATOM     24  O   UNL     1       1.654  10.704  18.484  0.00  0.00    +0.000 OA
ENDBRANCH  17  24
ENDBRANCH   1  20
TORSDOF 3
ENDMDL
