MODEL 1
REMARK VINA RESULT:      -8.0      0.000      0.000
REMARK  Name = 
REMARK  4 active torsions:
REMARK  status: ('A' for Active; 'I' for Inactive)
REMARK    1  A    between atoms: C_4  and  C_5
REMARK    2  A    between atoms: C_7  and  C_8
REMARK    3  A    between atoms: C_11  and  C_12
REMARK    4  A    between atoms: C_12  and  O_13
REMARK                            x       y       z     vdW  Elec       q    Type
REMARK                         _______ _______ _______ _____ _____    ______ ____
ROOT
ATOM      1  C   UNL     1       2.379   6.950  19.656  0.00  0.00    +0.000 A 
ATOM      2  C   UNL     1       3.207   7.101  18.563  0.00  0.00    +0.000 A 
ATOM      3  C   UNL     1       3.845   5.847  18.303  0.00  0.00    +0.000 A 
ATOM      4  C   UNL     1       3.406   4.975  19.298  0.00  0.00    +0.000 A 
ATOM      5  C   UNL     1       3.656   3.605  19.657  0.00  0.00    +0.000 A 
ATOM      6  N   UNL     1       4.551   2.768  19.060  0.00  0.00    +0.000 N 
ATOM      7  N   UNL     1       2.995   3.082  20.649  0.00  0.00    +0.000 NA
ATOM      8  C   UNL     1       2.105   3.853  21.333  0.00  0.00    +0.000 A 
ATOM      9  N   UNL     1       1.834   5.098  21.121  0.00  0.00    +0.000 NA
ATOM     10  N   UNL     1       2.505   5.653  20.088  0.00  0.00    +0.000 N 
ATOM     11  H   UNL     1       5.405   3.200  18.734  0.00  0.00    +0.000 HD
ATOM     12  H   UNL     1       4.703   1.921  19.595  0.00  0.00    +0.000 HD
ENDROOT
BRANCH   1  16
ATOM     13  N   UNL     1      -0.330   9.157  22.977  0.00  0.00    +0.000 N 
ATOM     14  C   UNL     1       0.265   8.967  21.790  0.00  0.00    +0.000 A 
ATOM     15  N   UNL     1       0.935   7.886  21.481  0.00  0.00    +0.000 NA
ATOM     16  C   UNL     1       1.487   8.015  20.213  0.00  0.00    +0.000 A 
ATOM     17  C   UNL     1       1.158   9.186  19.562  0.00  0.00    +0.000 A 
ATOM     18  S   UNL     1       0.178  10.167  20.565  0.00  0.00    +0.000 S 
ATOM     19  H   UNL     1      -0.471   8.339  23.555  0.00  0.00    +0.000 HD
ATOM     20  H   UNL     1      -1.043   9.873  23.057  0.00  0.00    +0.000 HD
ENDBRANCH   1  16
BRANCH   3  21
ATOM     21  C   UNL     1       4.778   5.558  17.212  0.00  0.00    +0.000 A 
ATOM     22  C   UNL     1       4.418   4.662  16.196  0.00  0.00    +0.000 A 
ATOM     23  C   UNL     1       5.295   4.377  15.138  0.00  0.00    +0.000 A 
ATOM     24  C   UNL     1       6.544   5.006  15.055  0.00  0.00    +0.000 A 
ATOM     25  C   UNL     1       6.920   5.870  16.088  0.00  0.00    +0.000 A 
ATOM     26  C   UNL     1       6.061   6.111  17.168  0.00  0.00    +0.000 A 
BRANCH  24  27
ATOM     27  C   UNL     1       7.497   4.673  13.936  0.00  0.00    +0.000 C 
BRANCH  27  28
ATOM     28  O   UNL     1       8.338   5.777  13.622  0.00  0.00    +0.000 OA
ATOM     29  H   UNL     1       9.255   5.457  13.678  0.00  0.00    +0.000 HD
ENDBRANCH  27  28
ENDBRANCH  24  27
ENDBRANCH   3  21
TORSDOF 4
ENDMDL
MODEL 2
REMARK VINA RESULT:      -7.8      1.070      1.181
REMARK  Name = 
REMARK  4 active torsions:
REMARK  status: ('A' for Active; 'I' for Inactive)
REMARK    1  A    between atoms: C_4  and  C_5
REMARK    2  A    between atoms: C_7  and  C_8
REMARK    3  A    between atoms: C_11  and  C_12
REMARK    4  A    between atoms: C_12  and  O_13
REMARK                            x       y       z     vdW  Elec       q    Type
REMARK                         _______ _______ _______ _____ _____    ______ ____
ROOT
ATOM      1  C   UNL     1       2.455   7.021  19.511  0.00  0.00    +0.000 A 
ATOM      2  C   UNL     1       3.284   7.151  18.416  0.00  0.00    +0.000 A 
ATOM      3  C   UNL     1       3.911   5.888  18.171  0.00  0.00    +0.000 A 
ATOM      4  C   UNL     1       3.465   5.033  19.178  0.00  0.00    +0.000 A 
ATOM      5  C   UNL     1       3.703   3.666  19.554  0.00  0.00    +0.000 A 
ATOM      6  N   UNL     1       4.590   2.813  18.968  0.00  0.00    +0.000 N 
ATOM      7  N   UNL     1       3.038   3.161  20.553  0.00  0.00    +0.000 NA
ATOM      8  C   UNL     1       2.155   3.949  21.228  0.00  0.00    +0.000 A 
ATOM      9  N   UNL     1       1.895   5.194  21.000  0.00  0.00    +0.000 NA
ATOM     10  N   UNL     1       2.570   5.729  19.960  0.00  0.00    +0.000 N 
ATOM     11  H   UNL     1       5.448   3.234  18.636  0.00  0.00    +0.000 HD
ATOM     12  H   UNL     1       4.736   1.972  19.513  0.00  0.00    +0.000 HD
ENDROOT
BRANCH   1  16
ATOM     13  N   UNL     1      -0.363  10.929  19.350  0.00  0.00    +0.000 N 
ATOM     14  C   UNL     1       0.291   9.895  19.899  0.00  0.00    +0.000 A 
ATOM     15  N   UNL     1       1.106   9.117  19.232  0.00  0.00    +0.000 NA
ATOM     16  C   UNL     1       1.573   8.102  20.055  0.00  0.00    +0.000 A 
ATOM     17  C   UNL     1       1.140   8.180  21.363  0.00  0.00    +0.000 A 
ATOM     18  S   UNL     1       0.095   9.519  21.563  0.00  0.00    +0.000 S 
ATOM     19  H   UNL     1      -0.025  11.263  18.457  0.00  0.00    +0.000 HD
ATOM     20  H   UNL     1      -0.754  11.639  19.959  0.00  0.00    +0.000 HD
ENDBRANCH   1  16
BRANCH   3  21
ATOM     21  C   UNL     1       4.841   5.577  17.084  0.00  0.00    +0.000 A 
ATOM     22  C   UNL     1       4.466   4.685  16.070  0.00  0.00    +0.000 A 
ATOM     23  C   UNL     1       5.340   4.379  15.016  0.00  0.00    +0.000 A 
ATOM     24  C   UNL     1       6.601   4.983  14.934  0.00  0.00    +0.000 A 
ATOM     25  C   UNL     1       6.992   5.843  15.965  0.00  0.00    +0.000 A 
ATOM     26  C   UNL     1       6.135   6.105  17.042  0.00  0.00    +0.000 A 
BRANCH  24  27
ATOM     27  C   UNL     1       7.551   4.628  13.819  0.00  0.00    +0.000 C 
BRANCH  27  28
ATOM     28  O   UNL     1       8.363   5.737  13.452  0.00  0.00    +0.000 OA
ATOM     29  H   UNL     1       9.140   5.377  12.993  0.00  0.00    +0.000 HD
ENDBRANCH  27  28
ENDBRANCH  24  27
ENDBRANCH   3  21
TORSDOF 4
ENDMDL
MODEL 3
REMARK VINA RESULT:      -7.8      3.847      7.155
REMARK  Name = 
REMARK  4 active torsions:
REMARK  status: ('A' for Active; 'I' for Inactive)
REMARK    1  A    between atoms: C_4  and  C_5
REMARK    2  A    between atoms: C_7  and  C_8
REMARK    3  A    between atoms: C_11  and  C_12
REMARK    4  A    between atoms: C_12  and  O_13
REMARK                            x       y       z     vdW  Elec       q    Type
REMARK                         _______ _______ _______ _____ _____    ______ ____
ROOT
ATOM      1  C   UNL     1       4.309   5.199  17.074  0.00  0.00    +0.000 A 
ATOM      2  C   UNL     1       3.870   6.456  17.434  0.00  0.00    +0.000 A 
ATOM      3  C   UNL     1       2.896   6.314  18.472  0.00  0.00    +0.000 A 
ATOM      4  C   UNL     1       2.742   4.943  18.675  0.00  0.00    +0.000 A 
ATOM      5  C   UNL     1       1.933   4.107  19.519  0.00  0.00    +0.000 A 
ATOM      6  N   UNL     1       0.957   4.529  20.372  0.00  0.00    +0.000 N 
ATOM      7  N   UNL     1       2.108   2.817  19.484  0.00  0.00    +0.000 NA
ATOM      8  C   UNL     1       3.035   2.297  18.633  0.00  0.00    +0.000 A 
ATOM      9  N   UNL     1       3.784   2.950  17.808  0.00  0.00    +0.000 NA
ATOM     10  N   UNL     1       3.620   4.290  17.839  0.00  0.00    +0.000 N 
ATOM     11  H   UNL     1       0.421   5.329  20.062  0.00  0.00    +0.000 HD
ATOM     12  H   UNL     1       0.387   3.766  20.714  0.00  0.00    +0.000 HD
ENDROOT
BRANCH   1  16
ATOM     13  N   UNL     1       6.201   3.337  13.049  0.00  0.00    +0.000 N 
ATOM     14  C   UNL     1       6.167   4.032  14.197  0.00  0.00    +0.000 A 
ATOM     15  N   UNL     1       5.129   4.062  14.994  0.00  0.00    +0.000 NA
ATOM     16  C   UNL     1       5.374   4.917  16.060  0.00  0.00    +0.000 A 
ATOM     17  C   UNL     1       6.638   5.471  16.071  0.00  0.00    +0.000 A 
ATOM     18  S   UNL     1       7.525   4.950  14.705  0.00  0.00    +0.000 S 
ATOM     19  H   UNL     1       5.495   2.623  12.925  0.00  0.00    +0.000 HD
ATOM     20  H   UNL     1       7.100   3.138  12.625  0.00  0.00    +0.000 HD
ENDBRANCH   1  16
BRANCH   3  21
ATOM     21  C   UNL     1       2.200   7.401  19.164  0.00  0.00    +0.000 A 
ATOM     22  C   UNL     1       1.781   8.535  18.453  0.00  0.00    +0.000 A 
ATOM     23  C   UNL     1       1.107   9.584  19.096  0.00  0.00    +0.000 A 
ATOM     24  C   UNL     1       0.807   9.510  20.462  0.00  0.00    +0.000 A 
ATOM     25  C   UNL     1       1.258   8.398  21.181  0.00  0.00    +0.000 A 
ATOM     26  C   UNL     1       1.975   7.378  20.544  0.00  0.00    +0.000 A 
BRANCH  24  27
ATOM     27  C   UNL     1       0.112  10.653  21.157  0.00  0.00    +0.000 C 
BRANCH  27  28
ATOM     28  O   UNL     1       1.008  11.727  21.420  0.00  0.00    +0.000 OA
ATOM     29  H   UNL     1       0.462  12.501  21.639  0.00  0.00    +0.000 HD
ENDBRANCH  27  28
ENDBRANCH  24  27
ENDBRANCH   3  21
TORSDOF 4
ENDMDL
MODEL 4
REMARK VINA RESULT:      -7.7      3.939      7.219
REMARK  Name = 
REMARK  4 active torsions:
REMARK  status: ('A' for Active; 'I' for Inactive)
REMARK    1  A    between atoms: C_4  and  C_5
REMARK    2  A    between atoms: C_7  and  C_8
REMARK    3  A    between atoms: C_11  and  C_12
REMARK    4  A    between atoms: C_12  and  O_13
REMARK                            x       y       z     vdW  Elec       q    Type
REMARK                         _______ _______ _______ _____ _____    ______ ____
ROOT
ATOM      1  C   UNL     1       4.275   5.210  17.126  0.00  0.00    +0.000 A 
ATOM      2  C   UNL     1       3.833   6.461  17.501  0.00  0.00    +0.000 A 
ATOM      3  C   UNL     1       2.852   6.305  18.530  0.00  0.00    +0.000 A 
ATOM      4  C   UNL     1       2.698   4.931  18.712  0.00  0.00    +0.000 A 
ATOM      5  C   UNL     1       1.882   4.082  19.538  0.00  0.00    +0.000 A 
ATOM      6  N   UNL     1       0.900   4.493  20.390  0.00  0.00    +0.000 N 
ATOM      7  N   UNL     1       2.057   2.793  19.486  0.00  0.00    +0.000 NA
ATOM      8  C   UNL     1       2.991   2.285  18.634  0.00  0.00    +0.000 A 
ATOM      9  N   UNL     1       3.745   2.951  17.824  0.00  0.00    +0.000 NA
ATOM     10  N   UNL     1       3.581   4.290  17.873  0.00  0.00    +0.000 N 
ATOM     11  H   UNL     1       0.366   5.296  20.088  0.00  0.00    +0.000 HD
ATOM     12  H   UNL     1       0.327   3.724  20.717  0.00  0.00    +0.000 HD
ENDROOT
BRANCH   1  16
ATOM     13  N   UNL     1       6.198   3.402  13.091  0.00  0.00    +0.000 N 
ATOM     14  C   UNL     1       6.155   4.082  14.247  0.00  0.00    +0.000 A 
ATOM     15  N   UNL     1       5.112   4.100  15.038  0.00  0.00    +0.000 NA
ATOM     16  C   UNL     1       5.348   4.942  16.116  0.00  0.00    +0.000 A 
ATOM     17  C   UNL     1       6.610   5.497  16.143  0.00  0.00    +0.000 A 
ATOM     18  S   UNL     1       7.508   4.996  14.776  0.00  0.00    +0.000 S 
ATOM     19  H   UNL     1       5.494   2.688  12.953  0.00  0.00    +0.000 HD
ATOM     20  H   UNL     1       7.100   3.210  12.671  0.00  0.00    +0.000 HD
ENDBRANCH   1  16
BRANCH   3  21
ATOM     21  C   UNL     1       2.151   7.381  19.233  0.00  0.00    +0.000 A 
ATOM     22  C   UNL     1       1.896   7.276  20.607  0.00  0.00    +0.000 A 
ATOM     23  C   UNL     1       1.233   8.300  21.300  0.00  0.00    +0.000 A 
ATOM     24  C   UNL     1       0.835   9.469  20.640  0.00  0.00    +0.000 A 
ATOM     25  C   UNL     1       1.055   9.559  19.262  0.00  0.00    +0.000 A 
ATOM     26  C   UNL     1       1.671   8.512  18.566  0.00  0.00    +0.000 A 
BRANCH  24  27
ATOM     27  C   UNL     1       0.093  10.553  21.380  0.00  0.00    +0.000 C 
BRANCH  27  28
ATOM     28  O   UNL     1       0.381  10.525  22.773  0.00  0.00    +0.000 OA
ATOM     29  H   UNL     1      -0.269   9.930  23.183  0.00  0.00    +0.000 HD
ENDBRANCH  27  28
ENDBRANCH  24  27
ENDBRANCH   3  21
TORSDOF 4
ENDMDL
MODEL 5
REMARK VINA RESULT:      -7.6      0.908      1.217
REMARK  Name = 
REMARK  4 active torsions:
REMARK  status: ('A' for Active; 'I' for Inactive)
REMARK    1  A    between atoms: C_4  and  C_5
REMARK    2  A    between atoms: C_7  and  C_8
REMARK    3  A    between atoms: C_11  and  C_12
REMARK    4  A    between atoms: C_12  and  O_13
REMARK                            x       y       z     vdW  Elec       q    Type
REMARK                         _______ _______ _______ _____ _____    ______ ____
ROOT
ATOM      1  C   UNL     1       2.395   6.901  19.551  0.00  0.00    +0.000 A 
ATOM      2  C   UNL     1       3.113   6.962  18.375  0.00  0.00    +0.000 A 
ATOM      3  C   UNL     1       3.667   5.669  18.115  0.00  0.00    +0.000 A 
ATOM      4  C   UNL     1       3.296   4.865  19.192  0.00  0.00    +0.000 A 
ATOM      5  C   UNL     1       3.524   3.503  19.592  0.00  0.00    +0.000 A 
ATOM      6  N   UNL     1       4.317   2.598  18.952  0.00  0.00    +0.000 N 
ATOM      7  N   UNL     1       2.946   3.057  20.670  0.00  0.00    +0.000 NA
ATOM      8  C   UNL     1       2.164   3.900  21.401  0.00  0.00    +0.000 A 
ATOM      9  N   UNL     1       1.925   5.145  21.154  0.00  0.00    +0.000 NA
ATOM     10  N   UNL     1       2.510   5.620  20.033  0.00  0.00    +0.000 N 
ATOM     11  H   UNL     1       5.151   2.975  18.521  0.00  0.00    +0.000 HD
ATOM     12  H   UNL     1       4.487   1.771  19.510  0.00  0.00    +0.000 HD
ENDROOT
BRANCH   1  16
ATOM     13  N   UNL     1       0.269   9.461  23.039  0.00  0.00    +0.000 N 
ATOM     14  C   UNL     1       0.664   9.149  21.795  0.00  0.00    +0.000 A 
ATOM     15  N   UNL     1       1.270   8.031  21.487  0.00  0.00    +0.000 NA
ATOM     16  C   UNL     1       1.610   8.031  20.141  0.00  0.00    +0.000 A 
ATOM     17  C   UNL     1       1.186   9.143  19.443  0.00  0.00    +0.000 A 
ATOM     18  S   UNL     1       0.386  10.232  20.492  0.00  0.00    +0.000 S 
ATOM     19  H   UNL     1       0.220   8.702  23.708  0.00  0.00    +0.000 HD
ATOM     20  H   UNL     1      -0.418  10.195  23.165  0.00  0.00    +0.000 HD
ENDBRANCH   1  16
BRANCH   3  21
ATOM     21  C   UNL     1       4.472   5.287  16.953  0.00  0.00    +0.000 A 
ATOM     22  C   UNL     1       5.126   6.269  16.195  0.00  0.00    +0.000 A 
ATOM     23  C   UNL     1       5.907   5.923  15.082  0.00  0.00    +0.000 A 
ATOM     24  C   UNL     1       6.078   4.582  14.718  0.00  0.00    +0.000 A 
ATOM     25  C   UNL     1       5.396   3.604  15.449  0.00  0.00    +0.000 A 
ATOM     26  C   UNL     1       4.576   3.959  16.527  0.00  0.00    +0.000 A 
BRANCH  24  27
ATOM     27  C   UNL     1       6.891   4.215  13.502  0.00  0.00    +0.000 C 
BRANCH  27  28
ATOM     28  O   UNL     1       6.320   3.113  12.806  0.00  0.00    +0.000 OA
ATOM     29  H   UNL     1       7.059   2.562  12.498  0.00  0.00    +0.000 HD
ENDBRANCH  27  28
ENDBRANCH  24  27
ENDBRANCH   3  21
TORSDOF 4
ENDMDL
MODEL 6
REMARK VINA RESULT:      -7.4      1.281      1.682
REMARK  Name = 
REMARK  4 active torsions:
REMARK  status: ('A' for Active; 'I' for Inactive)
REMARK    1  A    between atoms: C_4  and  C_5
REMARK    2  A    between atoms: C_7  and  C_8
REMARK    3  A    between atoms: C_11  and  C_12
REMARK    4  A    between atoms: C_12  and  O_13
REMARK                            x       y       z     vdW  Elec       q    Type
REMARK                         _______ _______ _______ _____ _____    ______ ____
ROOT
ATOM      1  C   UNL     1       2.415   7.066  19.462  0.00  0.00    +0.000 A 
ATOM      2  C   UNL     1       3.175   7.132  18.313  0.00  0.00    +0.000 A 
ATOM      3  C   UNL     1       3.745   5.842  18.073  0.00  0.00    +0.000 A 
ATOM      4  C   UNL     1       3.338   5.035  19.135  0.00  0.00    +0.000 A 
ATOM      5  C   UNL     1       3.557   3.674  19.543  0.00  0.00    +0.000 A 
ATOM      6  N   UNL     1       4.377   2.773  18.931  0.00  0.00    +0.000 N 
ATOM      7  N   UNL     1       2.943   3.224  20.599  0.00  0.00    +0.000 NA
ATOM      8  C   UNL     1       2.130   4.063  21.300  0.00  0.00    +0.000 A 
ATOM      9  N   UNL     1       1.895   5.308  21.046  0.00  0.00    +0.000 NA
ATOM     10  N   UNL     1       2.518   5.786  19.948  0.00  0.00    +0.000 N 
ATOM     11  H   UNL     1       5.225   3.154  18.532  0.00  0.00    +0.000 HD
ATOM     12  H   UNL     1       4.531   1.946  19.495  0.00  0.00    +0.000 HD
ENDROOT
BRANCH   1  16
ATOM     13  N   UNL     1      -0.339  11.021  19.341  0.00  0.00    +0.000 N 
ATOM     14  C   UNL     1       0.344  10.003  19.885  0.00  0.00    +0.000 A 
ATOM     15  N   UNL     1       1.082   9.174  19.191  0.00  0.00    +0.000 NA
ATOM     16  C   UNL     1       1.604   8.192  20.023  0.00  0.00    +0.000 A 
ATOM     17  C   UNL     1       1.292   8.348  21.358  0.00  0.00    +0.000 A 
ATOM     18  S   UNL     1       0.292   9.719  21.577  0.00  0.00    +0.000 S 
ATOM     19  H   UNL     1      -0.077  11.300  18.404  0.00  0.00    +0.000 HD
ATOM     20  H   UNL     1      -0.661  11.770  19.942  0.00  0.00    +0.000 HD
ENDBRANCH   1  16
BRANCH   3  21
ATOM     21  C   UNL     1       4.593   5.464  16.941  0.00  0.00    +0.000 A 
ATOM     22  C   UNL     1       5.758   6.192  16.660  0.00  0.00    +0.000 A 
ATOM     23  C   UNL     1       6.588   5.842  15.584  0.00  0.00    +0.000 A 
ATOM     24  C   UNL     1       6.289   4.735  14.781  0.00  0.00    +0.000 A 
ATOM     25  C   UNL     1       5.107   4.031  15.036  0.00  0.00    +0.000 A 
ATOM     26  C   UNL     1       4.256   4.416  16.079  0.00  0.00    +0.000 A 
BRANCH  24  27
ATOM     27  C   UNL     1       7.164   4.381  13.606  0.00  0.00    +0.000 C 
BRANCH  27  28
ATOM     28  O   UNL     1       6.672   3.239  12.914  0.00  0.00    +0.000 OA
ATOM     29  H   UNL     1       6.147   2.728  13.553  0.00  0.00    +0.000 HD
ENDBRANCH  27  28
ENDBRANCH  24  27
ENDBRANCH   3  21
TORSDOF 4
ENDMDL
MODEL 7
REMARK VINA RESULT:      -7.4      0.693      1.201
REMARK  Name = 
REMARK  4 active torsions:
REMARK  status: ('A' for Active; 'I' for Inactive)
REMARK    1  A    between atoms: C_4  and  C_5
REMARK    2  A    between atoms: C_7  and  C_8
REMARK    3  A    between atoms: C_11  and  C_12
REMARK    4  A    between atoms: C_12  and  O_13
REMARK                            x       y       z     vdW  Elec       q    Type
REMARK                         _______ _______ _______ _____ _____    ______ ____
ROOT
ATOM      1  C   UNL     1       2.409   7.402  19.103  0.00  0.00    +0.000 A 
ATOM      2  C   UNL     1       3.256   7.418  18.015  0.00  0.00    +0.000 A 
ATOM      3  C   UNL     1       3.854   6.124  17.888  0.00  0.00    +0.000 A 
ATOM      4  C   UNL     1       3.373   5.369  18.956  0.00  0.00    +0.000 A 
ATOM      5  C   UNL     1       3.572   4.033  19.451  0.00  0.00    +0.000 A 
ATOM      6  N   UNL     1       4.445   3.113  18.952  0.00  0.00    +0.000 N 
ATOM      7  N   UNL     1       2.881   3.631  20.478  0.00  0.00    +0.000 NA
ATOM      8  C   UNL     1       2.009   4.494  21.070  0.00  0.00    +0.000 A 
ATOM      9  N   UNL     1       1.784   5.721  20.733  0.00  0.00    +0.000 NA
ATOM     10  N   UNL     1       2.486   6.149  19.662  0.00  0.00    +0.000 N 
ATOM     11  H   UNL     1       5.318   3.483  18.600  0.00  0.00    +0.000 HD
ATOM     12  H   UNL     1       4.562   2.318  19.569  0.00  0.00    +0.000 HD
ENDROOT
BRANCH   1  16
ATOM     13  N   UNL     1       0.071  10.234  22.226  0.00  0.00    +0.000 N 
ATOM     14  C   UNL     1       0.506   9.797  21.034  0.00  0.00    +0.000 A 
ATOM     15  N   UNL     1       1.184   8.689  20.873  0.00  0.00    +0.000 NA
ATOM     16  C   UNL     1       1.548   8.545  19.541  0.00  0.00    +0.000 A 
ATOM     17  C   UNL     1       1.069   9.534  18.706  0.00  0.00    +0.000 A 
ATOM     18  S   UNL     1       0.186  10.691  19.604  0.00  0.00    +0.000 S 
ATOM     19  H   UNL     1       0.056   9.563  22.982  0.00  0.00    +0.000 HD
ATOM     20  H   UNL     1      -0.661  10.934  22.252  0.00  0.00    +0.000 HD
ENDBRANCH   1  16
BRANCH   3  21
ATOM     21  C   UNL     1       4.791   5.700  16.846  0.00  0.00    +0.000 A 
ATOM     22  C   UNL     1       6.038   6.328  16.721  0.00  0.00    +0.000 A 
ATOM     23  C   UNL     1       6.953   5.932  15.734  0.00  0.00    +0.000 A 
ATOM     24  C   UNL     1       6.655   4.874  14.866  0.00  0.00    +0.000 A 
ATOM     25  C   UNL     1       5.396   4.271  14.965  0.00  0.00    +0.000 A 
ATOM     26  C   UNL     1       4.467   4.705  15.918  0.00  0.00    +0.000 A 
BRANCH  24  27
ATOM     27  C   UNL     1       7.625   4.471  13.786  0.00  0.00    +0.000 C 
BRANCH  27  28
ATOM     28  O   UNL     1       8.295   5.601  13.238  0.00  0.00    +0.000 OA
ATOM     29  H   UNL     1       7.742   6.377  13.432  0.00  0.00    +0.000 HD
ENDBRANCH  27  28
ENDBRANCH  24  27
ENDBRANCH   3  21
TORSDOF 4
ENDMDL
MODEL 8
REMARK VINA RESULT:      -7.3      4.000      7.153
REMARK  Name = 
REMARK  4 active torsions:
REMARK  status: ('A' for Active; 'I' for Inactive)
REMARK    1  A    between atoms: C_4  and  C_5
REMARK    2  A    between atoms: C_7  and  C_8
REMARK    3  A    between atoms: C_11  and  C_12
REMARK    4  A    between atoms: C_12  and  O_13
REMARK                            x       y       z     vdW  Elec       q    Type
REMARK                         _______ _______ _______ _____ _____    ______ ____
ROOT
ATOM      1  C   UNL     1       4.404   5.406  16.954  0.00  0.00    +0.000 A 
ATOM      2  C   UNL     1       3.752   6.614  17.101  0.00  0.00    +0.000 A 
ATOM      3  C   UNL     1       3.089   6.618  18.368  0.00  0.00    +0.000 A 
ATOM      4  C   UNL     1       3.328   5.368  18.936  0.00  0.00    +0.000 A 
ATOM      5  C   UNL     1       2.951   4.693  20.148  0.00  0.00    +0.000 A 
ATOM      6  N   UNL     1       2.106   5.170  21.105  0.00  0.00    +0.000 N 
ATOM      7  N   UNL     1       3.430   3.506  20.385  0.00  0.00    +0.000 NA
ATOM      8  C   UNL     1       4.254   2.928  19.467  0.00  0.00    +0.000 A 
ATOM      9  N   UNL     1       4.624   3.427  18.334  0.00  0.00    +0.000 NA
ATOM     10  N   UNL     1       4.142   4.662  18.078  0.00  0.00    +0.000 N 
ATOM     11  H   UNL     1       1.334   5.730  20.768  0.00  0.00    +0.000 HD
ATOM     12  H   UNL     1       1.830   4.456  21.767  0.00  0.00    +0.000 HD
ENDROOT
BRANCH   1  16
ATOM     13  N   UNL     1       8.199   5.663  13.993  0.00  0.00    +0.000 N 
ATOM     14  C   UNL     1       7.035   5.207  14.479  0.00  0.00    +0.000 A 
ATOM     15  N   UNL     1       6.397   5.767  15.476  0.00  0.00    +0.000 NA
ATOM     16  C   UNL     1       5.264   5.028  15.789  0.00  0.00    +0.000 A 
ATOM     17  C   UNL     1       5.038   3.947  14.962  0.00  0.00    +0.000 A 
ATOM     18  S   UNL     1       6.286   3.820  13.798  0.00  0.00    +0.000 S 
ATOM     19  H   UNL     1       8.463   6.607  14.246  0.00  0.00    +0.000 HD
ATOM     20  H   UNL     1       8.497   5.360  13.073  0.00  0.00    +0.000 HD
ENDBRANCH   1  16
BRANCH   3  21
ATOM     21  C   UNL     1       2.308   7.720  18.935  0.00  0.00    +0.000 A 
ATOM     22  C   UNL     1       1.916   8.796  18.125  0.00  0.00    +0.000 A 
ATOM     23  C   UNL     1       1.163   9.857  18.647  0.00  0.00    +0.000 A 
ATOM     24  C   UNL     1       0.755   9.854  19.987  0.00  0.00    +0.000 A 
ATOM     25  C   UNL     1       1.177   8.801  20.806  0.00  0.00    +0.000 A 
ATOM     26  C   UNL     1       1.973   7.770  20.291  0.00  0.00    +0.000 A 
BRANCH  24  27
ATOM     27  C   UNL     1      -0.027  11.011  20.554  0.00  0.00    +0.000 C 
BRANCH  27  28
ATOM     28  O   UNL     1       0.373  11.309  21.886  0.00  0.00    +0.000 OA
ATOM     29  H   UNL     1       1.280  10.972  21.990  0.00  0.00    +0.000 HD
ENDBRANCH  27  28
ENDBRANCH  24  27
ENDBRANCH   3  21
TORSDOF 4
ENDMDL
MODEL 9
REMARK VINA RESULT:      -6.9      5.665     10.119
REMARK  Name = 
REMARK  4 active torsions:
REMARK  status: ('A' for Active; 'I' for Inactive)
REMARK    1  A    between atoms: C_4  and  C_5
REMARK    2  A    between atoms: C_7  and  C_8
REMARK    3  A    between atoms: C_11  and  C_12
REMARK    4  A    between atoms: C_12  and  O_13
REMARK                            x       y       z     vdW  Elec       q    Type
REMARK                         _______ _______ _______ _____ _____    ______ ____
ROOT
ATOM      1  C   UNL     1       0.460   9.904  19.518  0.00  0.00    +0.000 A 
ATOM      2  C   UNL     1       0.455  10.614  20.700  0.00  0.00    +0.000 A 
ATOM      3  C   UNL     1      -0.700  11.458  20.715  0.00  0.00    +0.000 A 
ATOM      4  C   UNL     1      -1.342  11.259  19.494  0.00  0.00    +0.000 A 
ATOM      5  C   UNL     1      -2.510  11.786  18.841  0.00  0.00    +0.000 A 
ATOM      6  N   UNL     1      -3.314  12.780  19.311  0.00  0.00    +0.000 N 
ATOM      7  N   UNL     1      -2.858  11.303  17.683  0.00  0.00    +0.000 NA
ATOM      8  C   UNL     1      -2.092  10.331  17.113  0.00  0.00    +0.000 A 
ATOM      9  N   UNL     1      -1.008   9.817  17.592  0.00  0.00    +0.000 NA
ATOM     10  N   UNL     1      -0.640  10.301  18.797  0.00  0.00    +0.000 N 
ATOM     11  H   UNL     1      -2.847  13.514  19.827  0.00  0.00    +0.000 HD
ATOM     12  H   UNL     1      -3.955  13.125  18.606  0.00  0.00    +0.000 HD
ENDROOT
BRANCH   1  16
ATOM     13  N   UNL     1       3.076   5.887  20.030  0.00  0.00    +0.000 N 
ATOM     14  C   UNL     1       2.631   7.011  19.447  0.00  0.00    +0.000 A 
ATOM     15  N   UNL     1       1.794   7.839  20.018  0.00  0.00    +0.000 NA
ATOM     16  C   UNL     1       1.472   8.867  19.141  0.00  0.00    +0.000 A 
ATOM     17  C   UNL     1       2.139   8.820  17.934  0.00  0.00    +0.000 A 
ATOM     18  S   UNL     1       3.153   7.444  17.870  0.00  0.00    +0.000 S 
ATOM     19  H   UNL     1       2.950   5.810  21.032  0.00  0.00    +0.000 HD
ATOM     20  H   UNL     1       3.909   5.442  19.662  0.00  0.00    +0.000 HD
ENDBRANCH   1  16
BRANCH   3  21
ATOM     21  C   UNL     1      -1.106  12.355  21.800  0.00  0.00    +0.000 A 
ATOM     22  C   UNL     1      -0.386  13.532  22.048  0.00  0.00    +0.000 A 
ATOM     23  C   UNL     1      -0.763  14.407  23.077  0.00  0.00    +0.000 A 
ATOM     24  C   UNL     1      -1.890  14.142  23.865  0.00  0.00    +0.000 A 
ATOM     25  C   UNL     1      -2.586  12.950  23.644  0.00  0.00    +0.000 A 
ATOM     26  C   UNL     1      -2.175  12.054  22.649  0.00  0.00    +0.000 A 
BRANCH  24  27
ATOM     27  C   UNL     1      -2.273  15.068  24.991  0.00  0.00    +0.000 C 
BRANCH  27  28
ATOM     28  O   UNL     1      -3.591  14.803  25.458  0.00  0.00    +0.000 OA
ATOM     29  H   UNL     1      -3.772  13.866  25.274  0.00  0.00    +0.000 HD
ENDBRANCH  27  28
ENDBRANCH  24  27
ENDBRANCH   3  21
TORSDOF 4
ENDMDL
