MODEL 1
REMARK VINA RESULT:      -7.7      0.000      0.000
REMARK  Name = 
REMARK  7 active torsions:
REMARK  status: ('A' for Active; 'I' for Inactive)
REMARK    1  A    between atoms: C_1  and  C_2
REMARK    2  A    between atoms: C_4  and  C_5
REMARK    3  A    between atoms: C_8  and  C_9
REMARK    4  A    between atoms: N_12  and  C_13
REMARK    5  A    between atoms: C_13  and  C_14
REMARK    6  A    between atoms: C_14  and  N_15
REMARK    7  A    between atoms: C_16  and  C_18
REMARK                            x       y       z     vdW  Elec       q    Type
REMARK                         _______ _______ _______ _____ _____    ______ ____
ROOT
ATOM      1  C   UNL     1       2.137  10.281  17.619  0.00  0.00    +0.000 C 
ATOM      2  C   UNL     1       1.950   9.116  18.546  0.00  0.00    +0.000 A 
ATOM      3  C   UNL     1       1.414   9.310  19.819  0.00  0.00    +0.000 A 
ATOM      4  C   UNL     1       1.249   8.227  20.693  0.00  0.00    +0.000 A 
ATOM      5  C   UNL     1       0.660   8.485  22.055  0.00  0.00    +0.000 C 
ATOM      6  C   UNL     1       1.634   6.925  20.266  0.00  0.00    +0.000 A 
ATOM      7  C   UNL     1       1.516   5.794  21.093  0.00  0.00    +0.000 A 
ATOM      8  C   UNL     1       1.908   4.537  20.634  0.00  0.00    +0.000 A 
ATOM      9  C   UNL     1       2.400   4.402  19.334  0.00  0.00    +0.000 A 
ATOM     10  N   UNL     1       2.710   3.144  18.833  0.00  0.00    +0.000 N 
ATOM     11  N   UNL     1       2.507   5.480  18.521  0.00  0.00    +0.000 NA
ATOM     12  C   UNL     1       2.158   6.709  18.976  0.00  0.00    +0.000 A 
ATOM     13  C   UNL     1       2.308   7.819  18.146  0.00  0.00    +0.000 A 
ATOM     14  H   UNL     1       3.350   2.587  19.390  0.00  0.00    +0.000 HD
ENDROOT
BRANCH   8  15
ATOM     15  C   UNL     1       1.738   3.414  21.509  0.00  0.00    +0.000 C 
ATOM     16  N   UNL     1       1.563   2.483  22.181  0.00  0.00    +0.000 NA
ENDBRANCH   8  15
BRANCH  10  17
ATOM     17  C   UNL     1       2.693   2.864  17.401  0.00  0.00    +0.000 C 
BRANCH  17  18
ATOM     18  C   UNL     1       4.062   2.864  16.704  0.00  0.00    +0.000 C 
BRANCH  18  19
ATOM     19  N   UNL     1       4.992   3.798  17.336  0.00  0.00    +0.000 N 
ATOM     20  C   UNL     1       6.049   4.367  16.650  0.00  0.00    +0.000 C 
ATOM     21  O   UNL     1       6.325   4.076  15.489  0.00  0.00    +0.000 OA
ATOM     22  H   UNL     1       4.795   4.172  18.261  0.00  0.00    +0.000 HD
BRANCH  20  23
ATOM     23  C   UNL     1       6.856   5.389  17.401  0.00  0.00    +0.000 A 
ATOM     24  C   UNL     1       6.978   6.675  16.877  0.00  0.00    +0.000 A 
ATOM     25  C   UNL     1       7.723   7.615  17.582  0.00  0.00    +0.000 A 
ATOM     26  C   UNL     1       8.319   7.246  18.785  0.00  0.00    +0.000 A 
ATOM     27  C   UNL     1       8.141   5.945  19.236  0.00  0.00    +0.000 A 
ATOM     28  N   UNL     1       7.426   5.001  18.578  0.00  0.00    +0.000 NA
ENDBRANCH  20  23
ENDBRANCH  18  19
ENDBRANCH  17  18
ENDBRANCH  10  17
TORSDOF 5
ENDMDL
MODEL 2
REMARK VINA RESULT:      -7.6      4.315      6.977
REMARK  Name = 
REMARK  7 active torsions:
REMARK  status: ('A' for Active; 'I' for Inactive)
REMARK    1  A    between atoms: C_1  and  C_2
REMARK    2  A    between atoms: C_4  and  C_5
REMARK    3  A    between atoms: C_8  and  C_9
REMARK    4  A    between atoms: N_12  and  C_13
REMARK    5  A    between atoms: C_13  and  C_14
REMARK    6  A    between atoms: C_14  and  N_15
REMARK    7  A    between atoms: C_16  and  C_18
REMARK                            x       y       z     vdW  Elec       q    Type
REMARK                         _______ _______ _______ _____ _____    ______ ____
ROOT
ATOM      1  C   UNL     1       2.020   4.693  21.204  0.00  0.00    +0.000 C 
ATOM      2  C   UNL     1       2.810   4.566  19.934  0.00  0.00    +0.000 A 
ATOM      3  C   UNL     1       2.506   3.560  19.016  0.00  0.00    +0.000 A 
ATOM      4  C   UNL     1       3.249   3.430  17.835  0.00  0.00    +0.000 A 
ATOM      5  C   UNL     1       2.880   2.334  16.870  0.00  0.00    +0.000 C 
ATOM      6  C   UNL     1       4.316   4.337  17.581  0.00  0.00    +0.000 A 
ATOM      7  C   UNL     1       5.117   4.257  16.428  0.00  0.00    +0.000 A 
ATOM      8  C   UNL     1       6.154   5.165  16.222  0.00  0.00    +0.000 A 
ATOM      9  C   UNL     1       6.381   6.175  17.159  0.00  0.00    +0.000 A 
ATOM     10  N   UNL     1       7.352   7.140  16.923  0.00  0.00    +0.000 N 
ATOM     11  N   UNL     1       5.610   6.273  18.268  0.00  0.00    +0.000 NA
ATOM     12  C   UNL     1       4.622   5.370  18.488  0.00  0.00    +0.000 A 
ATOM     13  C   UNL     1       3.858   5.455  19.652  0.00  0.00    +0.000 A 
ATOM     14  H   UNL     1       8.283   6.794  16.714  0.00  0.00    +0.000 HD
ENDROOT
BRANCH   8  15
ATOM     15  C   UNL     1       6.919   5.056  15.014  0.00  0.00    +0.000 C 
ATOM     16  N   UNL     1       7.518   5.017  14.020  0.00  0.00    +0.000 NA
ENDBRANCH   8  15
BRANCH  10  17
ATOM     17  C   UNL     1       7.280   8.464  17.532  0.00  0.00    +0.000 C 
BRANCH  17  18
ATOM     18  C   UNL     1       8.471   8.858  18.421  0.00  0.00    +0.000 C 
BRANCH  18  19
ATOM     19  N   UNL     1       9.054  10.134  18.012  0.00  0.00    +0.000 N 
ATOM     20  C   UNL     1       9.650  10.996  18.914  0.00  0.00    +0.000 C 
ATOM     21  O   UNL     1       9.668  10.789  20.124  0.00  0.00    +0.000 OA
ATOM     22  H   UNL     1       9.172  10.353  17.026  0.00  0.00    +0.000 HD
BRANCH  20  23
ATOM     23  C   UNL     1      10.300  12.222  18.332  0.00  0.00    +0.000 A 
ATOM     24  C   UNL     1      11.603  12.131  17.846  0.00  0.00    +0.000 A 
ATOM     25  C   UNL     1      12.193  13.269  17.306  0.00  0.00    +0.000 A 
ATOM     26  C   UNL     1      11.468  14.456  17.263  0.00  0.00    +0.000 A 
ATOM     27  C   UNL     1      10.174  14.455  17.765  0.00  0.00    +0.000 A 
ATOM     28  N   UNL     1       9.565  13.369  18.301  0.00  0.00    +0.000 NA
ENDBRANCH  20  23
ENDBRANCH  18  19
ENDBRANCH  17  18
ENDBRANCH  10  17
TORSDOF 5
ENDMDL
MODEL 3
REMARK VINA RESULT:      -7.6      0.706      1.025
REMARK  Name = 
REMARK  7 active torsions:
REMARK  status: ('A' for Active; 'I' for Inactive)
REMARK    1  A    between atoms: C_1  and  C_2
REMARK    2  A    between atoms: C_4  and  C_5
REMARK    3  A    between atoms: C_8  and  C_9
REMARK    4  A    between atoms: N_12  and  C_13
REMARK    5  A    between atoms: C_13  and  C_14
REMARK    6  A    between atoms: C_14  and  N_15
REMARK    7  A    between atoms: C_16  and  C_18
REMARK                            x       y       z     vdW  Elec       q    Type
REMARK                         _______ _______ _______ _____ _____    ______ ____
ROOT
ATOM      1  C   UNL     1       1.868  10.583  17.539  0.00  0.00    +0.000 C 
ATOM      2  C   UNL     1       1.785   9.412  18.474  0.00  0.00    +0.000 A 
ATOM      3  C   UNL     1       1.322   9.586  19.778  0.00  0.00    +0.000 A 
ATOM      4  C   UNL     1       1.255   8.498  20.659  0.00  0.00    +0.000 A 
ATOM      5  C   UNL     1       0.741   8.732  22.055  0.00  0.00    +0.000 C 
ATOM      6  C   UNL     1       1.664   7.212  20.206  0.00  0.00    +0.000 A 
ATOM      7  C   UNL     1       1.644   6.077  21.037  0.00  0.00    +0.000 A 
ATOM      8  C   UNL     1       2.056   4.837  20.553  0.00  0.00    +0.000 A 
ATOM      9  C   UNL     1       2.471   4.720  19.225  0.00  0.00    +0.000 A 
ATOM     10  N   UNL     1       2.800   3.475  18.703  0.00  0.00    +0.000 N 
ATOM     11  N   UNL     1       2.484   5.802  18.408  0.00  0.00    +0.000 NA
ATOM     12  C   UNL     1       2.116   7.016  18.887  0.00  0.00    +0.000 A 
ATOM     13  C   UNL     1       2.170   8.130  18.051  0.00  0.00    +0.000 A 
ATOM     14  H   UNL     1       3.495   2.945  19.219  0.00  0.00    +0.000 HD
ENDROOT
BRANCH   8  15
ATOM     15  C   UNL     1       1.985   3.709  21.434  0.00  0.00    +0.000 C 
ATOM     16  N   UNL     1       1.879   2.780  22.125  0.00  0.00    +0.000 NA
ENDBRANCH   8  15
BRANCH  10  17
ATOM     17  C   UNL     1       2.706   3.194  17.274  0.00  0.00    +0.000 C 
BRANCH  17  18
ATOM     18  C   UNL     1       4.000   3.386  16.468  0.00  0.00    +0.000 C 
BRANCH  18  19
ATOM     19  N   UNL     1       4.884   4.369  17.090  0.00  0.00    +0.000 N 
ATOM     20  C   UNL     1       6.143   4.651  16.591  0.00  0.00    +0.000 C 
ATOM     21  O   UNL     1       6.634   4.048  15.641  0.00  0.00    +0.000 OA
ATOM     22  H   UNL     1       4.535   4.986  17.821  0.00  0.00    +0.000 HD
BRANCH  20  23
ATOM     23  C   UNL     1       6.895   5.761  17.272  0.00  0.00    +0.000 A 
ATOM     24  C   UNL     1       7.575   5.490  18.458  0.00  0.00    +0.000 A 
ATOM     25  C   UNL     1       8.272   6.523  19.078  0.00  0.00    +0.000 A 
ATOM     26  C   UNL     1       8.271   7.787  18.497  0.00  0.00    +0.000 A 
ATOM     27  C   UNL     1       7.571   7.967  17.311  0.00  0.00    +0.000 A 
ATOM     28  N   UNL     1       6.879   6.989  16.679  0.00  0.00    +0.000 NA
ENDBRANCH  20  23
ENDBRANCH  18  19
ENDBRANCH  17  18
ENDBRANCH  10  17
TORSDOF 5
ENDMDL
MODEL 4
REMARK VINA RESULT:      -7.6      2.312      3.049
REMARK  Name = 
REMARK  7 active torsions:
REMARK  status: ('A' for Active; 'I' for Inactive)
REMARK    1  A    between atoms: C_1  and  C_2
REMARK    2  A    between atoms: C_4  and  C_5
REMARK    3  A    between atoms: C_8  and  C_9
REMARK    4  A    between atoms: N_12  and  C_13
REMARK    5  A    between atoms: C_13  and  C_14
REMARK    6  A    between atoms: C_14  and  N_15
REMARK    7  A    between atoms: C_16  and  C_18
REMARK                            x       y       z     vdW  Elec       q    Type
REMARK                         _______ _______ _______ _____ _____    ______ ____
ROOT
ATOM      1  C   UNL     1       1.850  10.783  17.921  0.00  0.00    +0.000 C 
ATOM      2  C   UNL     1       1.697   9.557  18.774  0.00  0.00    +0.000 A 
ATOM      3  C   UNL     1       0.824   9.563  19.861  0.00  0.00    +0.000 A 
ATOM      4  C   UNL     1       0.687   8.425  20.668  0.00  0.00    +0.000 A 
ATOM      5  C   UNL     1      -0.274   8.475  21.827  0.00  0.00    +0.000 C 
ATOM      6  C   UNL     1       1.450   7.262  20.364  0.00  0.00    +0.000 A 
ATOM      7  C   UNL     1       1.381   6.090  21.139  0.00  0.00    +0.000 A 
ATOM      8  C   UNL     1       2.148   4.975  20.806  0.00  0.00    +0.000 A 
ATOM      9  C   UNL     1       2.974   5.019  19.681  0.00  0.00    +0.000 A 
ATOM     10  N   UNL     1       3.676   3.887  19.285  0.00  0.00    +0.000 N 
ATOM     11  N   UNL     1       3.041   6.136  18.917  0.00  0.00    +0.000 NA
ATOM     12  C   UNL     1       2.321   7.234  19.258  0.00  0.00    +0.000 A 
ATOM     13  C   UNL     1       2.427   8.392  18.490  0.00  0.00    +0.000 A 
ATOM     14  H   UNL     1       4.260   3.455  19.994  0.00  0.00    +0.000 HD
ENDROOT
BRANCH   8  15
ATOM     15  C   UNL     1       2.015   3.798  21.612  0.00  0.00    +0.000 C 
ATOM     16  N   UNL     1       1.962   2.847  22.278  0.00  0.00    +0.000 NA
ENDBRANCH   8  15
BRANCH  10  17
ATOM     17  C   UNL     1       4.090   3.686  17.901  0.00  0.00    +0.000 C 
BRANCH  17  18
ATOM     18  C   UNL     1       5.574   3.945  17.603  0.00  0.00    +0.000 C 
BRANCH  18  19
ATOM     19  N   UNL     1       5.842   3.973  16.166  0.00  0.00    +0.000 N 
ATOM     20  C   UNL     1       6.702   4.891  15.592  0.00  0.00    +0.000 C 
ATOM     21  O   UNL     1       7.243   5.789  16.232  0.00  0.00    +0.000 OA
ATOM     22  H   UNL     1       5.518   3.217  15.568  0.00  0.00    +0.000 HD
BRANCH  20  23
ATOM     23  C   UNL     1       6.961   4.730  14.120  0.00  0.00    +0.000 A 
ATOM     24  C   UNL     1       6.275   3.742  13.416  0.00  0.00    +0.000 A 
ATOM     25  C   UNL     1       6.517   3.604  12.053  0.00  0.00    +0.000 A 
ATOM     26  C   UNL     1       7.430   4.455  11.436  0.00  0.00    +0.000 A 
ATOM     27  C   UNL     1       8.065   5.415  12.212  0.00  0.00    +0.000 A 
ATOM     28  N   UNL     1       7.858   5.579  13.541  0.00  0.00    +0.000 NA
ENDBRANCH  20  23
ENDBRANCH  18  19
ENDBRANCH  17  18
ENDBRANCH  10  17
TORSDOF 5
ENDMDL
MODEL 5
REMARK VINA RESULT:      -7.6      1.001      1.033
REMARK  Name = 
REMARK  7 active torsions:
REMARK  status: ('A' for Active; 'I' for Inactive)
REMARK    1  A    between atoms: C_1  and  C_2
REMARK    2  A    between atoms: C_4  and  C_5
REMARK    3  A    between atoms: C_8  and  C_9
REMARK    4  A    between atoms: N_12  and  C_13
REMARK    5  A    between atoms: C_13  and  C_14
REMARK    6  A    between atoms: C_14  and  N_15
REMARK    7  A    between atoms: C_16  and  C_18
REMARK                            x       y       z     vdW  Elec       q    Type
REMARK                         _______ _______ _______ _____ _____    ______ ____
ROOT
ATOM      1  C   UNL     1       1.952  10.933  17.808  0.00  0.00    +0.000 C 
ATOM      2  C   UNL     1       1.823   9.710  18.668  0.00  0.00    +0.000 A 
ATOM      3  C   UNL     1       1.251   9.800  19.937  0.00  0.00    +0.000 A 
ATOM      4  C   UNL     1       1.141   8.662  20.748  0.00  0.00    +0.000 A 
ATOM      5  C   UNL     1       0.509   8.807  22.107  0.00  0.00    +0.000 C 
ATOM      6  C   UNL     1       1.618   7.413  20.261  0.00  0.00    +0.000 A 
ATOM      7  C   UNL     1       1.559   6.233  21.025  0.00  0.00    +0.000 A 
ATOM      8  C   UNL     1       2.042   5.031  20.509  0.00  0.00    +0.000 A 
ATOM      9  C   UNL     1       2.566   4.999  19.215  0.00  0.00    +0.000 A 
ATOM     10  N   UNL     1       2.968   3.792  18.655  0.00  0.00    +0.000 N 
ATOM     11  N   UNL     1       2.618   6.124  18.463  0.00  0.00    +0.000 NA
ATOM     12  C   UNL     1       2.180   7.301  18.975  0.00  0.00    +0.000 A 
ATOM     13  C   UNL     1       2.273   8.462  18.208  0.00  0.00    +0.000 A 
ATOM     14  H   UNL     1       3.633   3.249  19.197  0.00  0.00    +0.000 HD
ENDROOT
BRANCH   8  15
ATOM     15  C   UNL     1       1.929   3.854  21.319  0.00  0.00    +0.000 C 
ATOM     16  N   UNL     1       1.868   2.925  22.014  0.00  0.00    +0.000 NA
ENDBRANCH   8  15
BRANCH  10  17
ATOM     17  C   UNL     1       2.998   3.590  17.211  0.00  0.00    +0.000 C 
BRANCH  17  18
ATOM     18  C   UNL     1       4.393   3.554  16.569  0.00  0.00    +0.000 C 
BRANCH  18  19
ATOM     19  N   UNL     1       5.152   4.771  16.854  0.00  0.00    +0.000 N 
ATOM     20  C   UNL     1       6.042   4.857  17.909  0.00  0.00    +0.000 C 
ATOM     21  O   UNL     1       6.203   3.951  18.721  0.00  0.00    +0.000 OA
ATOM     22  H   UNL     1       5.159   5.540  16.188  0.00  0.00    +0.000 HD
BRANCH  20  23
ATOM     23  C   UNL     1       6.828   6.135  18.012  0.00  0.00    +0.000 A 
ATOM     24  C   UNL     1       6.508   7.197  17.169  0.00  0.00    +0.000 A 
ATOM     25  C   UNL     1       7.238   8.377  17.276  0.00  0.00    +0.000 A 
ATOM     26  C   UNL     1       8.258   8.461  18.219  0.00  0.00    +0.000 A 
ATOM     27  C   UNL     1       8.505   7.356  19.022  0.00  0.00    +0.000 A 
ATOM     28  N   UNL     1       7.819   6.190  18.947  0.00  0.00    +0.000 NA
ENDBRANCH  20  23
ENDBRANCH  18  19
ENDBRANCH  17  18
ENDBRANCH  10  17
TORSDOF 5
ENDMDL
MODEL 6
REMARK VINA RESULT:      -7.3      4.442      6.607
REMARK  Name = 
REMARK  7 active torsions:
REMARK  status: ('A' for Active; 'I' for Inactive)
REMARK    1  A    between atoms: C_1  and  C_2
REMARK    2  A    between atoms: C_4  and  C_5
REMARK    3  A    between atoms: C_8  and  C_9
REMARK    4  A    between atoms: N_12  and  C_13
REMARK    5  A    between atoms: C_13  and  C_14
REMARK    6  A    between atoms: C_14  and  N_15
REMARK    7  A    between atoms: C_16  and  C_18
REMARK                            x       y       z     vdW  Elec       q    Type
REMARK                         _______ _______ _______ _____ _____    ______ ____
ROOT
ATOM      1  C   UNL     1      -3.820   9.979  14.252  0.00  0.00    +0.000 C 
ATOM      2  C   UNL     1      -3.458  10.404  15.646  0.00  0.00    +0.000 A 
ATOM      3  C   UNL     1      -4.361  11.140  16.412  0.00  0.00    +0.000 A 
ATOM      4  C   UNL     1      -4.022  11.551  17.709  0.00  0.00    +0.000 A 
ATOM      5  C   UNL     1      -5.032  12.337  18.502  0.00  0.00    +0.000 C 
ATOM      6  C   UNL     1      -2.745  11.206  18.235  0.00  0.00    +0.000 A 
ATOM      7  C   UNL     1      -2.326  11.599  19.519  0.00  0.00    +0.000 A 
ATOM      8  C   UNL     1      -1.065  11.241  19.993  0.00  0.00    +0.000 A 
ATOM      9  C   UNL     1      -0.223  10.468  19.192  0.00  0.00    +0.000 A 
ATOM     10  N   UNL     1       1.000  10.029  19.685  0.00  0.00    +0.000 N 
ATOM     11  N   UNL     1      -0.616  10.072  17.958  0.00  0.00    +0.000 NA
ATOM     12  C   UNL     1      -1.829  10.447  17.481  0.00  0.00    +0.000 A 
ATOM     13  C   UNL     1      -2.211  10.067  16.194  0.00  0.00    +0.000 A 
ATOM     14  H   UNL     1       1.614  10.747  20.056  0.00  0.00    +0.000 HD
ENDROOT
BRANCH   8  15
ATOM     15  C   UNL     1      -0.703  11.642  21.321  0.00  0.00    +0.000 C 
ATOM     16  N   UNL     1      -0.388  11.916  22.405  0.00  0.00    +0.000 NA
ENDBRANCH   8  15
BRANCH  10  17
ATOM     17  C   UNL     1       1.651   8.832  19.165  0.00  0.00    +0.000 C 
BRANCH  17  18
ATOM     18  C   UNL     1       1.881   7.701  20.180  0.00  0.00    +0.000 C 
BRANCH  18  19
ATOM     19  N   UNL     1       2.318   6.468  19.528  0.00  0.00    +0.000 N 
ATOM     20  C   UNL     1       2.333   5.251  20.184  0.00  0.00    +0.000 C 
ATOM     21  O   UNL     1       2.054   5.131  21.374  0.00  0.00    +0.000 OA
ATOM     22  H   UNL     1       2.477   6.446  18.523  0.00  0.00    +0.000 HD
BRANCH  20  23
ATOM     23  C   UNL     1       2.704   4.053  19.354  0.00  0.00    +0.000 A 
ATOM     24  C   UNL     1       2.192   3.938  18.063  0.00  0.00    +0.000 A 
ATOM     25  C   UNL     1       2.545   2.829  17.302  0.00  0.00    +0.000 A 
ATOM     26  C   UNL     1       3.398   1.874  17.848  0.00  0.00    +0.000 A 
ATOM     27  C   UNL     1       3.865   2.070  19.140  0.00  0.00    +0.000 A 
ATOM     28  N   UNL     1       3.543   3.135  19.914  0.00  0.00    +0.000 NA
ENDBRANCH  20  23
ENDBRANCH  18  19
ENDBRANCH  17  18
ENDBRANCH  10  17
TORSDOF 5
ENDMDL
MODEL 7
REMARK VINA RESULT:      -7.1      2.617      7.014
REMARK  Name = 
REMARK  7 active torsions:
REMARK  status: ('A' for Active; 'I' for Inactive)
REMARK    1  A    between atoms: C_1  and  C_2
REMARK    2  A    between atoms: C_4  and  C_5
REMARK    3  A    between atoms: C_8  and  C_9
REMARK    4  A    between atoms: N_12  and  C_13
REMARK    5  A    between atoms: C_13  and  C_14
REMARK    6  A    between atoms: C_14  and  N_15
REMARK    7  A    between atoms: C_16  and  C_18
REMARK                            x       y       z     vdW  Elec       q    Type
REMARK                         _______ _______ _______ _____ _____    ______ ____
ROOT
ATOM      1  C   UNL     1       4.782   3.039  11.007  0.00  0.00    +0.000 C 
ATOM      2  C   UNL     1       5.466   3.566  12.236  0.00  0.00    +0.000 A 
ATOM      3  C   UNL     1       6.602   4.366  12.119  0.00  0.00    +0.000 A 
ATOM      4  C   UNL     1       7.251   4.849  13.264  0.00  0.00    +0.000 A 
ATOM      5  C   UNL     1       8.470   5.716  13.088  0.00  0.00    +0.000 C 
ATOM      6  C   UNL     1       6.736   4.514  14.548  0.00  0.00    +0.000 A 
ATOM      7  C   UNL     1       7.343   4.945  15.741  0.00  0.00    +0.000 A 
ATOM      8  C   UNL     1       6.806   4.591  16.977  0.00  0.00    +0.000 A 
ATOM      9  C   UNL     1       5.642   3.821  17.027  0.00  0.00    +0.000 A 
ATOM     10  N   UNL     1       5.045   3.535  18.248  0.00  0.00    +0.000 N 
ATOM     11  N   UNL     1       5.038   3.409  15.886  0.00  0.00    +0.000 NA
ATOM     12  C   UNL     1       5.578   3.723  14.682  0.00  0.00    +0.000 A 
ATOM     13  C   UNL     1       4.972   3.262  13.514  0.00  0.00    +0.000 A 
ATOM     14  H   UNL     1       5.644   3.109  18.948  0.00  0.00    +0.000 HD
ENDROOT
BRANCH   8  15
ATOM     15  C   UNL     1       7.448   5.084  18.160  0.00  0.00    +0.000 C 
ATOM     16  N   UNL     1       8.018   5.479  19.092  0.00  0.00    +0.000 NA
ENDBRANCH   8  15
BRANCH  10  17
ATOM     17  C   UNL     1       3.620   3.239  18.355  0.00  0.00    +0.000 C 
BRANCH  17  18
ATOM     18  C   UNL     1       2.947   3.659  19.670  0.00  0.00    +0.000 C 
BRANCH  18  19
ATOM     19  N   UNL     1       2.340   4.986  19.569  0.00  0.00    +0.000 N 
ATOM     20  C   UNL     1       3.097   6.138  19.464  0.00  0.00    +0.000 C 
ATOM     21  O   UNL     1       4.323   6.139  19.522  0.00  0.00    +0.000 OA
ATOM     22  H   UNL     1       1.339   5.082  19.419  0.00  0.00    +0.000 HD
BRANCH  20  23
ATOM     23  C   UNL     1       2.334   7.418  19.260  0.00  0.00    +0.000 A 
ATOM     24  C   UNL     1       2.242   7.955  17.978  0.00  0.00    +0.000 A 
ATOM     25  C   UNL     1       1.530   9.137  17.799  0.00  0.00    +0.000 A 
ATOM     26  C   UNL     1       0.931   9.742  18.900  0.00  0.00    +0.000 A 
ATOM     27  C   UNL     1       1.068   9.135  20.141  0.00  0.00    +0.000 A 
ATOM     28  N   UNL     1       1.755   7.987  20.356  0.00  0.00    +0.000 NA
ENDBRANCH  20  23
ENDBRANCH  18  19
ENDBRANCH  17  18
ENDBRANCH  10  17
TORSDOF 5
ENDMDL
MODEL 8
REMARK VINA RESULT:      -7.0      4.145      8.363
REMARK  Name = 
REMARK  7 active torsions:
REMARK  status: ('A' for Active; 'I' for Inactive)
REMARK    1  A    between atoms: C_1  and  C_2
REMARK    2  A    between atoms: C_4  and  C_5
REMARK    3  A    between atoms: C_8  and  C_9
REMARK    4  A    between atoms: N_12  and  C_13
REMARK    5  A    between atoms: C_13  and  C_14
REMARK    6  A    between atoms: C_14  and  N_15
REMARK    7  A    between atoms: C_16  and  C_18
REMARK                            x       y       z     vdW  Elec       q    Type
REMARK                         _______ _______ _______ _____ _____    ______ ____
ROOT
ATOM      1  C   UNL     1       1.077   2.366  22.206  0.00  0.00    +0.000 C 
ATOM      2  C   UNL     1       1.805   2.920  21.016  0.00  0.00    +0.000 A 
ATOM      3  C   UNL     1       2.493   2.067  20.154  0.00  0.00    +0.000 A 
ATOM      4  C   UNL     1       3.185   2.581  19.048  0.00  0.00    +0.000 A 
ATOM      5  C   UNL     1       3.907   1.620  18.141  0.00  0.00    +0.000 C 
ATOM      6  C   UNL     1       3.175   3.985  18.814  0.00  0.00    +0.000 A 
ATOM      7  C   UNL     1       3.860   4.576  17.738  0.00  0.00    +0.000 A 
ATOM      8  C   UNL     1       3.826   5.956  17.549  0.00  0.00    +0.000 A 
ATOM      9  C   UNL     1       3.085   6.753  18.424  0.00  0.00    +0.000 A 
ATOM     10  N   UNL     1       2.968   8.118  18.197  0.00  0.00    +0.000 N 
ATOM     11  N   UNL     1       2.409   6.197  19.458  0.00  0.00    +0.000 NA
ATOM     12  C   UNL     1       2.468   4.858  19.665  0.00  0.00    +0.000 A 
ATOM     13  C   UNL     1       1.801   4.299  20.754  0.00  0.00    +0.000 A 
ATOM     14  H   UNL     1       3.839   8.628  18.088  0.00  0.00    +0.000 HD
ENDROOT
BRANCH   8  15
ATOM     15  C   UNL     1       4.518   6.501  16.418  0.00  0.00    +0.000 C 
ATOM     16  N   UNL     1       5.100   6.982  15.535  0.00  0.00    +0.000 NA
ENDBRANCH   8  15
BRANCH  10  17
ATOM     17  C   UNL     1       1.832   8.885  18.698  0.00  0.00    +0.000 C 
BRANCH  17  18
ATOM     18  C   UNL     1       1.509  10.178  17.934  0.00  0.00    +0.000 C 
BRANCH  18  19
ATOM     19  N   UNL     1       0.075  10.314  17.683  0.00  0.00    +0.000 N 
ATOM     20  C   UNL     1      -0.722  11.182  18.406  0.00  0.00    +0.000 C 
ATOM     21  O   UNL     1      -0.304  11.841  19.353  0.00  0.00    +0.000 OA
ATOM     22  H   UNL     1      -0.346   9.884  16.862  0.00  0.00    +0.000 HD
BRANCH  20  23
ATOM     23  C   UNL     1      -2.156  11.292  17.963  0.00  0.00    +0.000 A 
ATOM     24  C   UNL     1      -3.121  11.689  18.886  0.00  0.00    +0.000 A 
ATOM     25  C   UNL     1      -4.443  11.793  18.466  0.00  0.00    +0.000 A 
ATOM     26  C   UNL     1      -4.760  11.503  17.142  0.00  0.00    +0.000 A 
ATOM     27  C   UNL     1      -3.734  11.120  16.289  0.00  0.00    +0.000 A 
ATOM     28  N   UNL     1      -2.436  11.004  16.660  0.00  0.00    +0.000 NA
ENDBRANCH  20  23
ENDBRANCH  18  19
ENDBRANCH  17  18
ENDBRANCH  10  17
TORSDOF 5
ENDMDL
MODEL 9
REMARK VINA RESULT:      -7.0      2.768      7.446
REMARK  Name = 
REMARK  7 active torsions:
REMARK  status: ('A' for Active; 'I' for Inactive)
REMARK    1  A    between atoms: C_1  and  C_2
REMARK    2  A    between atoms: C_4  and  C_5
REMARK    3  A    between atoms: C_8  and  C_9
REMARK    4  A    between atoms: N_12  and  C_13
REMARK    5  A    between atoms: C_13  and  C_14
REMARK    6  A    between atoms: C_14  and  N_15
REMARK    7  A    between atoms: C_16  and  C_18
REMARK                            x       y       z     vdW  Elec       q    Type
REMARK                         _______ _______ _______ _____ _____    ______ ____
ROOT
ATOM      1  C   UNL     1       4.797   2.824  11.392  0.00  0.00    +0.000 C 
ATOM      2  C   UNL     1       5.511   3.538  12.503  0.00  0.00    +0.000 A 
ATOM      3  C   UNL     1       6.674   4.261  12.240  0.00  0.00    +0.000 A 
ATOM      4  C   UNL     1       7.351   4.918  13.276  0.00  0.00    +0.000 A 
ATOM      5  C   UNL     1       8.599   5.692  12.943  0.00  0.00    +0.000 C 
ATOM      6  C   UNL     1       6.836   4.842  14.601  0.00  0.00    +0.000 A 
ATOM      7  C   UNL     1       7.469   5.459  15.694  0.00  0.00    +0.000 A 
ATOM      8  C   UNL     1       6.931   5.356  16.975  0.00  0.00    +0.000 A 
ATOM      9  C   UNL     1       5.740   4.651  17.167  0.00  0.00    +0.000 A 
ATOM     10  N   UNL     1       5.145   4.615  18.421  0.00  0.00    +0.000 N 
ATOM     11  N   UNL     1       5.111   4.062  16.121  0.00  0.00    +0.000 NA
ATOM     12  C   UNL     1       5.651   4.133  14.879  0.00  0.00    +0.000 A 
ATOM     13  C   UNL     1       5.018   3.491  13.816  0.00  0.00    +0.000 A 
ATOM     14  H   UNL     1       5.734   4.301  19.186  0.00  0.00    +0.000 HD
ENDROOT
BRANCH   8  15
ATOM     15  C   UNL     1       7.602   6.030  18.048  0.00  0.00    +0.000 C 
ATOM     16  N   UNL     1       8.095   6.593  18.936  0.00  0.00    +0.000 NA
ENDBRANCH   8  15
BRANCH  10  17
ATOM     17  C   UNL     1       3.711   4.397  18.583  0.00  0.00    +0.000 C 
BRANCH  17  18
ATOM     18  C   UNL     1       2.797   5.445  17.929  0.00  0.00    +0.000 C 
BRANCH  18  19
ATOM     19  N   UNL     1       2.278   6.398  18.907  0.00  0.00    +0.000 N 
ATOM     20  C   UNL     1       2.225   7.758  18.658  0.00  0.00    +0.000 C 
ATOM     21  O   UNL     1       2.675   8.267  17.636  0.00  0.00    +0.000 OA
ATOM     22  H   UNL     1       1.798   6.069  19.742  0.00  0.00    +0.000 HD
BRANCH  20  23
ATOM     23  C   UNL     1       1.568   8.602  19.715  0.00  0.00    +0.000 A 
ATOM     24  C   UNL     1       1.497   8.119  21.020  0.00  0.00    +0.000 A 
ATOM     25  C   UNL     1       0.891   8.909  21.992  0.00  0.00    +0.000 A 
ATOM     26  C   UNL     1       0.380  10.153  21.634  0.00  0.00    +0.000 A 
ATOM     27  C   UNL     1       0.499  10.558  20.311  0.00  0.00    +0.000 A 
ATOM     28  N   UNL     1       1.079   9.817  19.336  0.00  0.00    +0.000 NA
ENDBRANCH  20  23
ENDBRANCH  18  19
ENDBRANCH  17  18
ENDBRANCH  10  17
TORSDOF 5
ENDMDL
