MODEL 1
REMARK VINA RESULT:      -8.4      0.000      0.000
REMARK  Name = 
REMARK  2 active torsions:
REMARK  status: ('A' for Active; 'I' for Inactive)
REMARK    1  A    between atoms: N_4  and  C_5
REMARK    2  A    between atoms: C_5  and  C_6
REMARK                            x       y       z     vdW  Elec       q    Type
REMARK                         _______ _______ _______ _____ _____    ______ ____
ROOT
ATOM      1  O   UNL     1       1.302   9.279  23.225  0.00  0.00    +0.000 OA
ATOM      2  C   UNL     1       1.050   9.403  22.027  0.00  0.00    +0.000 A 
ATOM      3  N   UNL     1       1.702   8.682  21.079  0.00  0.00    +0.000 N 
ATOM      4  N   UNL     1       1.462   8.859  19.725  0.00  0.00    +0.000 N 
ATOM      5  C   UNL     1       0.458   9.671  19.240  0.00  0.00    +0.000 A 
ATOM      6  O   UNL     1       0.192   9.724  18.043  0.00  0.00    +0.000 OA
ATOM      7  C   UNL     1      -0.262  10.477  20.252  0.00  0.00    +0.000 A 
ATOM      8  C   UNL     1      -1.307  11.469  19.865  0.00  0.00    +0.000 A 
ATOM      9  O   UNL     1      -1.678  11.633  18.710  0.00  0.00    +0.000 OA
ATOM     10  C   UNL     1      -1.911  12.304  20.932  0.00  0.00    +0.000 A 
ATOM     11  C   UNL     1      -2.848  13.289  20.604  0.00  0.00    +0.000 A 
ATOM     12  C   UNL     1      -3.408  14.068  21.614  0.00  0.00    +0.000 A 
ATOM     13  C   UNL     1      -3.031  13.855  22.940  0.00  0.00    +0.000 A 
ATOM     14 CL   UNL     1      -3.725  14.818  24.184  0.00  0.00    +0.000 Cl
ATOM     15  C   UNL     1      -2.099  12.868  23.270  0.00  0.00    +0.000 A 
ATOM     16  C   UNL     1      -1.526  12.090  22.263  0.00  0.00    +0.000 A 
ATOM     17  N   UNL     1      -0.615  11.083  22.558  0.00  0.00    +0.000 N 
ATOM     18  C   UNL     1       0.009  10.356  21.559  0.00  0.00    +0.000 A 
ATOM     19  H   UNL     1       2.448   8.057  21.380  0.00  0.00    +0.000 HD
ATOM     20  H   UNL     1      -0.249  10.950  23.504  0.00  0.00    +0.000 HD
ENDROOT
BRANCH   4  21
ATOM     21  C   UNL     1       2.242   8.033  18.843  0.00  0.00    +0.000 C 
BRANCH  21  22
ATOM     22  C   UNL     1       2.535   6.719  19.458  0.00  0.00    +0.000 A 
ATOM     23  C   UNL     1       3.612   5.882  19.274  0.00  0.00    +0.000 A 
ATOM     24  C   UNL     1       3.074   4.590  19.436  0.00  0.00    +0.000 A 
ATOM     25  C   UNL     1       3.427   3.308  18.998  0.00  0.00    +0.000 A 
ATOM     26  C   UNL     1       2.627   2.232  19.392  0.00  0.00    +0.000 A 
ATOM     27  C   UNL     1       1.569   2.416  20.290  0.00  0.00    +0.000 A 
ATOM     28  C   UNL     1       1.178   3.697  20.705  0.00  0.00    +0.000 A 
ATOM     29  C   UNL     1       1.904   4.756  20.167  0.00  0.00    +0.000 A 
ATOM     30  O   UNL     1       1.553   6.080  20.168  0.00  0.00    +0.000 OA
ENDBRANCH  21  22
ENDBRANCH   4  21
TORSDOF 2
ENDMDL
MODEL 2
REMARK VINA RESULT:      -8.2      3.976      9.141
REMARK  Name = 
REMARK  2 active torsions:
REMARK  status: ('A' for Active; 'I' for Inactive)
REMARK    1  A    between atoms: N_4  and  C_5
REMARK    2  A    between atoms: C_5  and  C_6
REMARK                            x       y       z     vdW  Elec       q    Type
REMARK                         _______ _______ _______ _____ _____    ______ ____
ROOT
ATOM      1  O   UNL     1       2.341   9.633  17.488  0.00  0.00    +0.000 OA
ATOM      2  C   UNL     1       2.232   8.715  18.299  0.00  0.00    +0.000 A 
ATOM      3  N   UNL     1       1.466   8.831  19.414  0.00  0.00    +0.000 N 
ATOM      4  N   UNL     1       1.385   7.822  20.360  0.00  0.00    +0.000 N 
ATOM      5  C   UNL     1       1.956   6.579  20.184  0.00  0.00    +0.000 A 
ATOM      6  O   UNL     1       1.777   5.665  20.983  0.00  0.00    +0.000 OA
ATOM      7  C   UNL     1       2.806   6.428  18.980  0.00  0.00    +0.000 A 
ATOM      8  C   UNL     1       3.565   5.172  18.708  0.00  0.00    +0.000 A 
ATOM      9  O   UNL     1       3.484   4.176  19.416  0.00  0.00    +0.000 OA
ATOM     10  C   UNL     1       4.467   5.138  17.532  0.00  0.00    +0.000 A 
ATOM     11  C   UNL     1       5.243   4.003  17.278  0.00  0.00    +0.000 A 
ATOM     12  C   UNL     1       6.089   3.983  16.171  0.00  0.00    +0.000 A 
ATOM     13  C   UNL     1       6.150   5.093  15.328  0.00  0.00    +0.000 A 
ATOM     14 CL   UNL     1       7.194   5.064  13.962  0.00  0.00    +0.000 Cl
ATOM     15  C   UNL     1       5.371   6.226  15.577  0.00  0.00    +0.000 A 
ATOM     16  C   UNL     1       4.529   6.257  16.690  0.00  0.00    +0.000 A 
ATOM     17  N   UNL     1       3.723   7.358  16.954  0.00  0.00    +0.000 N 
ATOM     18  C   UNL     1       2.939   7.424  18.093  0.00  0.00    +0.000 A 
ATOM     19  H   UNL     1       1.010   9.725  19.592  0.00  0.00    +0.000 HD
ATOM     20  H   UNL     1       3.798   8.221  16.412  0.00  0.00    +0.000 HD
ENDROOT
BRANCH   4  21
ATOM     21  C   UNL     1       0.546   8.098  21.495  0.00  0.00    +0.000 C 
BRANCH  21  22
ATOM     22  C   UNL     1       0.162   9.528  21.541  0.00  0.00    +0.000 A 
ATOM     23  C   UNL     1       0.058  10.376  22.620  0.00  0.00    +0.000 A 
ATOM     24  C   UNL     1      -0.984  11.255  22.266  0.00  0.00    +0.000 A 
ATOM     25  C   UNL     1      -1.892  12.052  22.975  0.00  0.00    +0.000 A 
ATOM     26  C   UNL     1      -2.799  12.827  22.246  0.00  0.00    +0.000 A 
ATOM     27  C   UNL     1      -2.727  12.892  20.850  0.00  0.00    +0.000 A 
ATOM     28  C   UNL     1      -1.852  12.070  20.125  0.00  0.00    +0.000 A 
ATOM     29  C   UNL     1      -1.073  11.199  20.880  0.00  0.00    +0.000 A 
ATOM     30  O   UNL     1      -0.376  10.112  20.425  0.00  0.00    +0.000 OA
ENDBRANCH  21  22
ENDBRANCH   4  21
TORSDOF 2
ENDMDL
MODEL 3
REMARK VINA RESULT:      -8.2      4.063      9.101
REMARK  Name = 
REMARK  2 active torsions:
REMARK  status: ('A' for Active; 'I' for Inactive)
REMARK    1  A    between atoms: N_4  and  C_5
REMARK    2  A    between atoms: C_5  and  C_6
REMARK                            x       y       z     vdW  Elec       q    Type
REMARK                         _______ _______ _______ _____ _____    ______ ____
ROOT
ATOM      1  O   UNL     1       2.302   9.884  17.284  0.00  0.00    +0.000 OA
ATOM      2  C   UNL     1       2.157   9.063  18.188  0.00  0.00    +0.000 A 
ATOM      3  N   UNL     1       1.393   9.325  19.279  0.00  0.00    +0.000 N 
ATOM      4  N   UNL     1       1.271   8.426  20.327  0.00  0.00    +0.000 N 
ATOM      5  C   UNL     1       1.797   7.152  20.288  0.00  0.00    +0.000 A 
ATOM      6  O   UNL     1       1.581   6.336  21.179  0.00  0.00    +0.000 OA
ATOM      7  C   UNL     1       2.644   6.842  19.113  0.00  0.00    +0.000 A 
ATOM      8  C   UNL     1       3.356   5.537  18.982  0.00  0.00    +0.000 A 
ATOM      9  O   UNL     1       3.237   4.626  19.791  0.00  0.00    +0.000 OA
ATOM     10  C   UNL     1       4.260   5.344  17.822  0.00  0.00    +0.000 A 
ATOM     11  C   UNL     1       4.994   4.161  17.696  0.00  0.00    +0.000 A 
ATOM     12  C   UNL     1       5.842   3.992  16.603  0.00  0.00    +0.000 A 
ATOM     13  C   UNL     1       5.946   5.002  15.646  0.00  0.00    +0.000 A 
ATOM     14 CL   UNL     1       6.992   4.789  14.299  0.00  0.00    +0.000 Cl
ATOM     15  C   UNL     1       5.209   6.183  15.768  0.00  0.00    +0.000 A 
ATOM     16  C   UNL     1       4.366   6.364  16.865  0.00  0.00    +0.000 A 
ATOM     17  N   UNL     1       3.600   7.515  17.005  0.00  0.00    +0.000 N 
ATOM     18  C   UNL     1       2.816   7.732  18.125  0.00  0.00    +0.000 A 
ATOM     19  H   UNL     1       0.970  10.249  19.358  0.00  0.00    +0.000 HD
ATOM     20  H   UNL     1       3.709   8.313  16.375  0.00  0.00    +0.000 HD
ENDROOT
BRANCH   4  21
ATOM     21  C   UNL     1       0.440   8.853  21.420  0.00  0.00    +0.000 C 
BRANCH  21  22
ATOM     22  C   UNL     1       0.176  10.309  21.355  0.00  0.00    +0.000 A 
ATOM     23  C   UNL     1      -0.983  10.978  21.032  0.00  0.00    +0.000 A 
ATOM     24  C   UNL     1      -0.533  12.160  20.408  0.00  0.00    +0.000 A 
ATOM     25  C   UNL     1      -1.079  13.063  19.488  0.00  0.00    +0.000 A 
ATOM     26  C   UNL     1      -0.306  14.163  19.106  0.00  0.00    +0.000 A 
ATOM     27  C   UNL     1       0.931  14.416  19.711  0.00  0.00    +0.000 A 
ATOM     28  C   UNL     1       1.508  13.500  20.603  0.00  0.00    +0.000 A 
ATOM     29  C   UNL     1       0.776  12.341  20.838  0.00  0.00    +0.000 A 
ATOM     30  O   UNL     1       1.229  11.183  21.412  0.00  0.00    +0.000 OA
ENDBRANCH  21  22
ENDBRANCH   4  21
TORSDOF 2
ENDMDL
MODEL 4
REMARK VINA RESULT:      -8.1      3.638      8.809
REMARK  Name = 
REMARK  2 active torsions:
REMARK  status: ('A' for Active; 'I' for Inactive)
REMARK    1  A    between atoms: N_4  and  C_5
REMARK    2  A    between atoms: C_5  and  C_6
REMARK                            x       y       z     vdW  Elec       q    Type
REMARK                         _______ _______ _______ _____ _____    ______ ____
ROOT
ATOM      1  O   UNL     1       2.342  10.463  17.214  0.00  0.00    +0.000 OA
ATOM      2  C   UNL     1       1.919   9.912  18.229  0.00  0.00    +0.000 A 
ATOM      3  N   UNL     1       1.119  10.557  19.116  0.00  0.00    +0.000 N 
ATOM      4  N   UNL     1       0.686   9.959  20.289  0.00  0.00    +0.000 N 
ATOM      5  C   UNL     1       0.916   8.631  20.584  0.00  0.00    +0.000 A 
ATOM      6  O   UNL     1       0.427   8.096  21.575  0.00  0.00    +0.000 OA
ATOM      7  C   UNL     1       1.795   7.906  19.639  0.00  0.00    +0.000 A 
ATOM      8  C   UNL     1       2.208   6.493  19.880  0.00  0.00    +0.000 A 
ATOM      9  O   UNL     1       1.801   5.829  20.825  0.00  0.00    +0.000 OA
ATOM     10  C   UNL     1       3.168   5.871  18.935  0.00  0.00    +0.000 A 
ATOM     11  C   UNL     1       3.629   4.571  19.160  0.00  0.00    +0.000 A 
ATOM     12  C   UNL     1       4.531   3.997  18.266  0.00  0.00    +0.000 A 
ATOM     13  C   UNL     1       4.962   4.725  17.157  0.00  0.00    +0.000 A 
ATOM     14 CL   UNL     1       6.074   4.014  16.056  0.00  0.00    +0.000 Cl
ATOM     15  C   UNL     1       4.498   6.023  16.928  0.00  0.00    +0.000 A 
ATOM     16  C   UNL     1       3.602   6.608  17.824  0.00  0.00    +0.000 A 
ATOM     17  N   UNL     1       3.101   7.887  17.613  0.00  0.00    +0.000 N 
ATOM     18  C   UNL     1       2.268   8.499  18.534  0.00  0.00    +0.000 A 
ATOM     19  H   UNL     1       0.906  11.539  18.944  0.00  0.00    +0.000 HD
ATOM     20  H   UNL     1       3.454   8.485  16.862  0.00  0.00    +0.000 HD
ENDROOT
BRANCH   4  21
ATOM     21  C   UNL     1      -0.143  10.775  21.134  0.00  0.00    +0.000 C 
BRANCH  21  22
ATOM     22  C   UNL     1      -1.143  11.525  20.341  0.00  0.00    +0.000 A 
ATOM     23  C   UNL     1      -1.871  12.644  20.675  0.00  0.00    +0.000 A 
ATOM     24  C   UNL     1      -3.089  12.479  19.987  0.00  0.00    +0.000 A 
ATOM     25  C   UNL     1      -4.398  12.946  20.161  0.00  0.00    +0.000 A 
ATOM     26  C   UNL     1      -5.365  12.565  19.228  0.00  0.00    +0.000 A 
ATOM     27  C   UNL     1      -5.013  11.831  18.089  0.00  0.00    +0.000 A 
ATOM     28  C   UNL     1      -3.717  11.322  17.920  0.00  0.00    +0.000 A 
ATOM     29  C   UNL     1      -2.821  11.593  18.950  0.00  0.00    +0.000 A 
ATOM     30  O   UNL     1      -1.617  10.981  19.177  0.00  0.00    +0.000 OA
ENDBRANCH  21  22
ENDBRANCH   4  21
TORSDOF 2
ENDMDL
MODEL 5
REMARK VINA RESULT:      -8.1      3.724      8.564
REMARK  Name = 
REMARK  2 active torsions:
REMARK  status: ('A' for Active; 'I' for Inactive)
REMARK    1  A    between atoms: N_4  and  C_5
REMARK    2  A    between atoms: C_5  and  C_6
REMARK                            x       y       z     vdW  Elec       q    Type
REMARK                         _______ _______ _______ _____ _____    ______ ____
ROOT
ATOM      1  O   UNL     1       0.544   7.914  22.092  0.00  0.00    +0.000 OA
ATOM      2  C   UNL     1       0.817   8.378  20.985  0.00  0.00    +0.000 A 
ATOM      3  N   UNL     1       0.296   9.554  20.552  0.00  0.00    +0.000 N 
ATOM      4  N   UNL     1       0.555  10.052  19.285  0.00  0.00    +0.000 N 
ATOM      5  C   UNL     1       1.461   9.473  18.421  0.00  0.00    +0.000 A 
ATOM      6  O   UNL     1       1.757   9.995  17.350  0.00  0.00    +0.000 OA
ATOM      7  C   UNL     1       2.037   8.183  18.864  0.00  0.00    +0.000 A 
ATOM      8  C   UNL     1       2.958   7.395  17.994  0.00  0.00    +0.000 A 
ATOM      9  O   UNL     1       3.343   7.788  16.900  0.00  0.00    +0.000 OA
ATOM     10  C   UNL     1       3.414   6.068  18.474  0.00  0.00    +0.000 A 
ATOM     11  C   UNL     1       4.226   5.270  17.662  0.00  0.00    +0.000 A 
ATOM     12  C   UNL     1       4.647   4.025  18.123  0.00  0.00    +0.000 A 
ATOM     13  C   UNL     1       4.257   3.589  19.390  0.00  0.00    +0.000 A 
ATOM     14 CL   UNL     1       4.780   2.052  19.956  0.00  0.00    +0.000 Cl
ATOM     15  C   UNL     1       3.450   4.387  20.205  0.00  0.00    +0.000 A 
ATOM     16  C   UNL     1       3.016   5.631  19.746  0.00  0.00    +0.000 A 
ATOM     17  N   UNL     1       2.233   6.461  20.540  0.00  0.00    +0.000 N 
ATOM     18  C   UNL     1       1.741   7.665  20.064  0.00  0.00    +0.000 A 
ATOM     19  H   UNL     1      -0.373  10.033  21.153  0.00  0.00    +0.000 HD
ATOM     20  H   UNL     1       1.856   6.147  21.437  0.00  0.00    +0.000 HD
ENDROOT
BRANCH   4  21
ATOM     21  C   UNL     1      -0.082  11.301  18.965  0.00  0.00    +0.000 C 
BRANCH  21  22
ATOM     22  C   UNL     1      -1.549  11.137  18.841  0.00  0.00    +0.000 A 
ATOM     23  C   UNL     1      -2.283  10.514  17.858  0.00  0.00    +0.000 A 
ATOM     24  C   UNL     1      -3.480  11.255  17.803  0.00  0.00    +0.000 A 
ATOM     25  C   UNL     1      -4.460  11.485  16.828  0.00  0.00    +0.000 A 
ATOM     26  C   UNL     1      -5.548  12.293  17.165  0.00  0.00    +0.000 A 
ATOM     27  C   UNL     1      -5.713  12.768  18.471  0.00  0.00    +0.000 A 
ATOM     28  C   UNL     1      -4.722  12.581  19.446  0.00  0.00    +0.000 A 
ATOM     29  C   UNL     1      -3.582  11.903  19.028  0.00  0.00    +0.000 A 
ATOM     30  O   UNL     1      -2.373  11.849  19.671  0.00  0.00    +0.000 OA
ENDBRANCH  21  22
ENDBRANCH   4  21
TORSDOF 2
ENDMDL
MODEL 6
REMARK VINA RESULT:      -8.1      3.334      8.046
REMARK  Name = 
REMARK  2 active torsions:
REMARK  status: ('A' for Active; 'I' for Inactive)
REMARK    1  A    between atoms: N_4  and  C_5
REMARK    2  A    between atoms: C_5  and  C_6
REMARK                            x       y       z     vdW  Elec       q    Type
REMARK                         _______ _______ _______ _____ _____    ______ ____
ROOT
ATOM      1  O   UNL     1      -0.453   9.156  22.905  0.00  0.00    +0.000 OA
ATOM      2  C   UNL     1      -0.253   9.836  21.900  0.00  0.00    +0.000 A 
ATOM      3  N   UNL     1      -0.798  11.071  21.750  0.00  0.00    +0.000 N 
ATOM      4  N   UNL     1      -0.622  11.818  20.596  0.00  0.00    +0.000 N 
ATOM      5  C   UNL     1       0.221  11.435  19.574  0.00  0.00    +0.000 A 
ATOM      6  O   UNL     1       0.446  12.165  18.614  0.00  0.00    +0.000 OA
ATOM      7  C   UNL     1       0.820  10.087  19.707  0.00  0.00    +0.000 A 
ATOM      8  C   UNL     1       1.676   9.501  18.635  0.00  0.00    +0.000 A 
ATOM      9  O   UNL     1       1.988  10.111  17.620  0.00  0.00    +0.000 OA
ATOM     10  C   UNL     1       2.158   8.108  18.805  0.00  0.00    +0.000 A 
ATOM     11  C   UNL     1       2.909   7.500  17.795  0.00  0.00    +0.000 A 
ATOM     12  C   UNL     1       3.356   6.191  17.964  0.00  0.00    +0.000 A 
ATOM     13  C   UNL     1       3.050   5.504  19.140  0.00  0.00    +0.000 A 
ATOM     14 CL   UNL     1       3.604   3.889  19.346  0.00  0.00    +0.000 Cl
ATOM     15  C   UNL     1       2.304   6.112  20.152  0.00  0.00    +0.000 A 
ATOM     16  C   UNL     1       1.845   7.419  19.985  0.00  0.00    +0.000 A 
ATOM     17  N   UNL     1       1.121   8.064  20.981  0.00  0.00    +0.000 N 
ATOM     18  C   UNL     1       0.603   9.334  20.794  0.00  0.00    +0.000 A 
ATOM     19  H   UNL     1      -1.422  11.412  22.480  0.00  0.00    +0.000 HD
ATOM     20  H   UNL     1       0.805   7.570  21.819  0.00  0.00    +0.000 HD
ENDROOT
BRANCH   4  21
ATOM     21  C   UNL     1      -1.275  13.100  20.580  0.00  0.00    +0.000 C 
BRANCH  21  22
ATOM     22  C   UNL     1      -2.652  12.993  20.047  0.00  0.00    +0.000 A 
ATOM     23  C   UNL     1      -3.839  13.440  20.582  0.00  0.00    +0.000 A 
ATOM     24  C   UNL     1      -4.788  12.494  20.146  0.00  0.00    +0.000 A 
ATOM     25  C   UNL     1      -6.037  12.059  20.608  0.00  0.00    +0.000 A 
ATOM     26  C   UNL     1      -6.708  11.079  19.871  0.00  0.00    +0.000 A 
ATOM     27  C   UNL     1      -6.200  10.629  18.647  0.00  0.00    +0.000 A 
ATOM     28  C   UNL     1      -4.934  11.024  18.192  0.00  0.00    +0.000 A 
ATOM     29  C   UNL     1      -4.229  11.881  19.031  0.00  0.00    +0.000 A 
ATOM     30  O   UNL     1      -2.892  12.174  18.976  0.00  0.00    +0.000 OA
ENDBRANCH  21  22
ENDBRANCH   4  21
TORSDOF 2
ENDMDL
MODEL 7
REMARK VINA RESULT:      -8.1      2.434      3.837
REMARK  Name = 
REMARK  2 active torsions:
REMARK  status: ('A' for Active; 'I' for Inactive)
REMARK    1  A    between atoms: N_4  and  C_5
REMARK    2  A    between atoms: C_5  and  C_6
REMARK                            x       y       z     vdW  Elec       q    Type
REMARK                         _______ _______ _______ _____ _____    ______ ____
ROOT
ATOM      1  O   UNL     1      -2.848  11.875  17.659  0.00  0.00    +0.000 OA
ATOM      2  C   UNL     1      -1.931  11.838  18.478  0.00  0.00    +0.000 A 
ATOM      3  N   UNL     1      -0.658  11.537  18.115  0.00  0.00    +0.000 N 
ATOM      4  N   UNL     1       0.369  11.439  19.042  0.00  0.00    +0.000 N 
ATOM      5  C   UNL     1       0.213  11.768  20.372  0.00  0.00    +0.000 A 
ATOM      6  O   UNL     1       1.163  11.781  21.150  0.00  0.00    +0.000 OA
ATOM      7  C   UNL     1      -1.168  12.090  20.797  0.00  0.00    +0.000 A 
ATOM      8  C   UNL     1      -1.504  12.372  22.223  0.00  0.00    +0.000 A 
ATOM      9  O   UNL     1      -0.662  12.420  23.112  0.00  0.00    +0.000 OA
ATOM     10  C   UNL     1      -2.927  12.591  22.579  0.00  0.00    +0.000 A 
ATOM     11  C   UNL     1      -3.291  12.796  23.914  0.00  0.00    +0.000 A 
ATOM     12  C   UNL     1      -4.632  12.999  24.237  0.00  0.00    +0.000 A 
ATOM     13  C   UNL     1      -5.593  12.998  23.226  0.00  0.00    +0.000 A 
ATOM     14 CL   UNL     1      -7.246  13.250  23.628  0.00  0.00    +0.000 Cl
ATOM     15  C   UNL     1      -5.230  12.799  21.892  0.00  0.00    +0.000 A 
ATOM     16  C   UNL     1      -3.891  12.585  21.562  0.00  0.00    +0.000 A 
ATOM     17  N   UNL     1      -3.492  12.408  20.242  0.00  0.00    +0.000 N 
ATOM     18  C   UNL     1      -2.177  12.125  19.916  0.00  0.00    +0.000 A 
ATOM     19  H   UNL     1      -0.480  11.295  17.141  0.00  0.00    +0.000 HD
ATOM     20  H   UNL     1      -4.171  12.317  19.483  0.00  0.00    +0.000 HD
ENDROOT
BRANCH   4  21
ATOM     21  C   UNL     1       1.659  11.097  18.507  0.00  0.00    +0.000 C 
BRANCH  21  22
ATOM     22  C   UNL     1       1.795   9.633  18.332  0.00  0.00    +0.000 A 
ATOM     23  C   UNL     1       1.293   8.605  19.098  0.00  0.00    +0.000 A 
ATOM     24  C   UNL     1       2.262   7.588  18.984  0.00  0.00    +0.000 A 
ATOM     25  C   UNL     1       2.644   6.492  19.766  0.00  0.00    +0.000 A 
ATOM     26  C   UNL     1       3.674   5.672  19.296  0.00  0.00    +0.000 A 
ATOM     27  C   UNL     1       4.229   5.874  18.027  0.00  0.00    +0.000 A 
ATOM     28  C   UNL     1       3.886   6.990  17.250  0.00  0.00    +0.000 A 
ATOM     29  C   UNL     1       2.970   7.868  17.821  0.00  0.00    +0.000 A 
ATOM     30  O   UNL     1       2.697   9.149  17.421  0.00  0.00    +0.000 OA
ENDBRANCH  21  22
ENDBRANCH   4  21
TORSDOF 2
ENDMDL
MODEL 8
REMARK VINA RESULT:      -8.1      1.833      3.305
REMARK  Name = 
REMARK  2 active torsions:
REMARK  status: ('A' for Active; 'I' for Inactive)
REMARK    1  A    between atoms: N_4  and  C_5
REMARK    2  A    between atoms: C_5  and  C_6
REMARK                            x       y       z     vdW  Elec       q    Type
REMARK                         _______ _______ _______ _____ _____    ______ ____
ROOT
ATOM      1  O   UNL     1       0.137  10.259  17.627  0.00  0.00    +0.000 OA
ATOM      2  C   UNL     1       0.398   9.861  18.761  0.00  0.00    +0.000 A 
ATOM      3  N   UNL     1       1.234   8.813  18.978  0.00  0.00    +0.000 N 
ATOM      4  N   UNL     1       1.487   8.324  20.250  0.00  0.00    +0.000 N 
ATOM      5  C   UNL     1       1.027   8.938  21.396  0.00  0.00    +0.000 A 
ATOM      6  O   UNL     1       1.357   8.551  22.513  0.00  0.00    +0.000 OA
ATOM      7  C   UNL     1       0.104  10.077  21.188  0.00  0.00    +0.000 A 
ATOM      8  C   UNL     1      -0.548  10.777  22.333  0.00  0.00    +0.000 A 
ATOM      9  O   UNL     1      -0.316  10.503  23.504  0.00  0.00    +0.000 OA
ATOM     10  C   UNL     1      -1.533  11.845  22.034  0.00  0.00    +0.000 A 
ATOM     11  C   UNL     1      -2.212  12.482  23.077  0.00  0.00    +0.000 A 
ATOM     12  C   UNL     1      -3.137  13.483  22.784  0.00  0.00    +0.000 A 
ATOM     13  C   UNL     1      -3.371  13.840  21.456  0.00  0.00    +0.000 A 
ATOM     14 CL   UNL     1      -4.511  15.077  21.099  0.00  0.00    +0.000 Cl
ATOM     15  C   UNL     1      -2.689  13.208  20.413  0.00  0.00    +0.000 A 
ATOM     16  C   UNL     1      -1.769  12.198  20.698  0.00  0.00    +0.000 A 
ATOM     17  N   UNL     1      -1.055  11.565  19.687  0.00  0.00    +0.000 N 
ATOM     18  C   UNL     1      -0.194  10.515  19.957  0.00  0.00    +0.000 A 
ATOM     19  H   UNL     1       1.614   8.326  18.167  0.00  0.00    +0.000 HD
ATOM     20  H   UNL     1      -1.256  11.737  18.699  0.00  0.00    +0.000 HD
ENDROOT
BRANCH   4  21
ATOM     21  C   UNL     1       2.382   7.200  20.317  0.00  0.00    +0.000 C 
BRANCH  21  22
ATOM     22  C   UNL     1       2.674   6.667  18.967  0.00  0.00    +0.000 A 
ATOM     23  C   UNL     1       2.345   5.451  18.412  0.00  0.00    +0.000 A 
ATOM     24  C   UNL     1       3.415   5.172  17.538  0.00  0.00    +0.000 A 
ATOM     25  C   UNL     1       3.972   4.009  16.993  0.00  0.00    +0.000 A 
ATOM     26  C   UNL     1       5.057   4.142  16.122  0.00  0.00    +0.000 A 
ATOM     27  C   UNL     1       5.502   5.406  15.719  0.00  0.00    +0.000 A 
ATOM     28  C   UNL     1       4.983   6.578  16.286  0.00  0.00    +0.000 A 
ATOM     29  C   UNL     1       4.010   6.398  17.265  0.00  0.00    +0.000 A 
ATOM     30  O   UNL     1       3.566   7.329  18.166  0.00  0.00    +0.000 OA
ENDBRANCH  21  22
ENDBRANCH   4  21
TORSDOF 2
ENDMDL
MODEL 9
REMARK VINA RESULT:      -8.0      3.255      8.604
REMARK  Name = 
REMARK  2 active torsions:
REMARK  status: ('A' for Active; 'I' for Inactive)
REMARK    1  A    between atoms: N_4  and  C_5
REMARK    2  A    between atoms: C_5  and  C_6
REMARK                            x       y       z     vdW  Elec       q    Type
REMARK                         _______ _______ _______ _____ _____    ______ ____
ROOT
ATOM      1  O   UNL     1       0.034   8.846  22.935  0.00  0.00    +0.000 OA
ATOM      2  C   UNL     1       0.135   9.493  21.894  0.00  0.00    +0.000 A 
ATOM      3  N   UNL     1      -0.463  10.703  21.742  0.00  0.00    +0.000 N 
ATOM      4  N   UNL     1      -0.400  11.411  20.552  0.00  0.00    +0.000 N 
ATOM      5  C   UNL     1       0.377  11.017  19.483  0.00  0.00    +0.000 A 
ATOM      6  O   UNL     1       0.505  11.717  18.483  0.00  0.00    +0.000 OA
ATOM      7  C   UNL     1       1.032   9.695  19.618  0.00  0.00    +0.000 A 
ATOM      8  C   UNL     1       1.826   9.096  18.506  0.00  0.00    +0.000 A 
ATOM      9  O   UNL     1       2.040   9.677  17.449  0.00  0.00    +0.000 OA
ATOM     10  C   UNL     1       2.368   7.728  18.688  0.00  0.00    +0.000 A 
ATOM     11  C   UNL     1       3.063   7.106  17.647  0.00  0.00    +0.000 A 
ATOM     12  C   UNL     1       3.567   5.820  17.828  0.00  0.00    +0.000 A 
ATOM     13  C   UNL     1       3.374   5.168  19.047  0.00  0.00    +0.000 A 
ATOM     14 CL   UNL     1       3.997   3.581  19.268  0.00  0.00    +0.000 Cl
ATOM     15  C   UNL     1       2.683   5.790  20.090  0.00  0.00    +0.000 A 
ATOM     16  C   UNL     1       2.168   7.075  19.912  0.00  0.00    +0.000 A 
ATOM     17  N   UNL     1       1.498   7.732  20.937  0.00  0.00    +0.000 N 
ATOM     18  C   UNL     1       0.923   8.977  20.744  0.00  0.00    +0.000 A 
ATOM     19  H   UNL     1      -1.043  11.051  22.504  0.00  0.00    +0.000 HD
ATOM     20  H   UNL     1       1.262   7.261  21.813  0.00  0.00    +0.000 HD
ENDROOT
BRANCH   4  21
ATOM     21  C   UNL     1      -1.097  12.670  20.539  0.00  0.00    +0.000 C 
BRANCH  21  22
ATOM     22  C   UNL     1      -2.491  12.514  21.012  0.00  0.00    +0.000 A 
ATOM     23  C   UNL     1      -3.674  12.676  20.327  0.00  0.00    +0.000 A 
ATOM     24  C   UNL     1      -4.573  13.151  21.303  0.00  0.00    +0.000 A 
ATOM     25  C   UNL     1      -5.754  13.903  21.281  0.00  0.00    +0.000 A 
ATOM     26  C   UNL     1      -6.391  14.167  22.496  0.00  0.00    +0.000 A 
ATOM     27  C   UNL     1      -5.926  13.600  23.688  0.00  0.00    +0.000 A 
ATOM     28  C   UNL     1      -4.724  12.879  23.733  0.00  0.00    +0.000 A 
ATOM     29  C   UNL     1      -4.037  12.771  22.528  0.00  0.00    +0.000 A 
ATOM     30  O   UNL     1      -2.733  12.391  22.354  0.00  0.00    +0.000 OA
ENDBRANCH  21  22
ENDBRANCH   4  21
TORSDOF 2
ENDMDL
