MODEL 1
REMARK VINA RESULT:      -8.7      0.000      0.000
REMARK  Name = 
REMARK  9 active torsions:
REMARK  status: ('A' for Active; 'I' for Inactive)
REMARK    1  A    between atoms: C_1  and  C_2
REMARK    2  A    between atoms: C_2  and  C_24
REMARK    3  A    between atoms: N_3  and  N_4
REMARK    4  A    between atoms: N_4  and  C_5
REMARK    5  A    between atoms: C_8  and  S_9
REMARK    6  A    between atoms: S_9  and  N_12
REMARK    7  A    between atoms: N_12  and  C_13
REMARK    8  A    between atoms: C_20  and  N_21
REMARK    9  A    between atoms: C_27  and  N_28
REMARK                            x       y       z     vdW  Elec       q    Type
REMARK                         _______ _______ _______ _____ _____    ______ ____
ROOT
ATOM      1  C   UNL     1       2.498   7.543  18.242  0.00  0.00    +0.000 A 
ATOM      2  C   UNL     1       3.416   7.275  17.206  0.00  0.00    +0.000 A 
ATOM      3  C   UNL     1       4.463   6.362  17.359  0.00  0.00    +0.000 A 
ATOM      4  C   UNL     1       4.605   5.665  18.560  0.00  0.00    +0.000 A 
ATOM      5  C   UNL     1       3.701   5.877  19.604  0.00  0.00    +0.000 A 
ATOM      6  C   UNL     1       2.639   6.796  19.435  0.00  0.00    +0.000 A 
ENDROOT
BRANCH   4   7
ATOM      7  S   UNL     1       6.029   4.612  18.798  0.00  0.00    +0.000 S 
ATOM      8  O   UNL     1       6.559   4.322  17.483  0.00  0.00    +0.000 OA
ATOM      9  O   UNL     1       6.852   5.219  19.818  0.00  0.00    +0.000 OA
BRANCH   7  10
ATOM     10  N   UNL     1       5.388   3.171  19.367  0.00  0.00    +0.000 N 
ATOM     11  H   UNL     1       6.056   2.430  19.561  0.00  0.00    +0.000 HD
BRANCH  10  12
ATOM     12  C   UNL     1       4.033   2.852  19.121  0.00  0.00    +0.000 A 
ATOM     13  C   UNL     1       3.587   2.684  17.811  0.00  0.00    +0.000 A 
ATOM     14  C   UNL     1       2.237   2.428  17.570  0.00  0.00    +0.000 A 
ATOM     15  C   UNL     1       1.346   2.318  18.638  0.00  0.00    +0.000 A 
ATOM     16  C   UNL     1       1.802   2.459  19.949  0.00  0.00    +0.000 A 
ATOM     17  C   UNL     1       3.148   2.735  20.190  0.00  0.00    +0.000 A 
ENDBRANCH  10  12
ENDBRANCH   7  10
ENDBRANCH   4   7
BRANCH   6  18
ATOM     18  N   UNL     1       1.709   6.973  20.563  0.00  0.00    +0.000 N 
ATOM     19  O   UNL     1       1.524   8.120  21.001  0.00  0.00    +0.000 OA
ATOM     20  O   UNL     1       1.153   5.964  21.019  0.00  0.00    +0.000 OA
ENDBRANCH   6  18
BRANCH   1  21
ATOM     21  N   UNL     1       1.443   8.467  18.000  0.00  0.00    +0.000 N 
ATOM     22  H   UNL     1       0.570   8.198  18.469  0.00  0.00    +0.000 HD
BRANCH  21  25
ATOM     23  C   UNL     1      -0.394  10.280  19.139  0.00  0.00    +0.000 C 
ATOM     24  C   UNL     1       0.945  10.653  18.525  0.00  0.00    +0.000 C 
ATOM     25  N   UNL     1       1.766   9.797  17.980  0.00  0.00    +0.000 NA
BRANCH  24  26
ATOM     26  C   UNL     1       1.316  12.119  18.546  0.00  0.00    +0.000 A 
ATOM     27  C   UNL     1       0.391  13.103  18.910  0.00  0.00    +0.000 A 
ATOM     28  C   UNL     1       0.757  14.457  18.966  0.00  0.00    +0.000 A 
ATOM     29  C   UNL     1       2.050  14.886  18.650  0.00  0.00    +0.000 A 
ATOM     30  C   UNL     1       2.963  13.891  18.262  0.00  0.00    +0.000 A 
ATOM     31  C   UNL     1       2.611  12.529  18.216  0.00  0.00    +0.000 A 
BRANCH  29  32
ATOM     32  N   UNL     1       2.443  16.208  18.755  0.00  0.00    +0.000 N 
ATOM     33  C   UNL     1       3.572  16.762  17.985  0.00  0.00    +0.000 C 
ATOM     34  C   UNL     1       4.781  17.039  18.889  0.00  0.00    +0.000 C 
ATOM     35  O   UNL     1       4.423  17.868  20.007  0.00  0.00    +0.000 OA
ATOM     36  C   UNL     1       3.408  17.225  20.794  0.00  0.00    +0.000 C 
ATOM     37  C   UNL     1       2.127  16.968  19.978  0.00  0.00    +0.000 C 
ENDBRANCH  29  32
ENDBRANCH  24  26
ENDBRANCH  21  25
ENDBRANCH   1  21
TORSDOF 8
ENDMDL
MODEL 2
REMARK VINA RESULT:      -8.4      3.769      6.074
REMARK  Name = 
REMARK  9 active torsions:
REMARK  status: ('A' for Active; 'I' for Inactive)
REMARK    1  A    between atoms: C_1  and  C_2
REMARK    2  A    between atoms: C_2  and  C_24
REMARK    3  A    between atoms: N_3  and  N_4
REMARK    4  A    between atoms: N_4  and  C_5
REMARK    5  A    between atoms: C_8  and  S_9
REMARK    6  A    between atoms: S_9  and  N_12
REMARK    7  A    between atoms: N_12  and  C_13
REMARK    8  A    between atoms: C_20  and  N_21
REMARK    9  A    between atoms: C_27  and  N_28
REMARK                            x       y       z     vdW  Elec       q    Type
REMARK                         _______ _______ _______ _____ _____    ______ ____
ROOT
ATOM      1  C   UNL     1       2.489   8.033  18.394  0.00  0.00    +0.000 A 
ATOM      2  C   UNL     1       3.143   7.526  17.253  0.00  0.00    +0.000 A 
ATOM      3  C   UNL     1       3.646   6.222  17.203  0.00  0.00    +0.000 A 
ATOM      4  C   UNL     1       3.480   5.374  18.298  0.00  0.00    +0.000 A 
ATOM      5  C   UNL     1       2.812   5.824  19.439  0.00  0.00    +0.000 A 
ATOM      6  C   UNL     1       2.300   7.141  19.476  0.00  0.00    +0.000 A 
ENDROOT
BRANCH   4   7
ATOM      7  S   UNL     1       4.252   3.762  18.281  0.00  0.00    +0.000 S 
ATOM      8  O   UNL     1       4.641   3.470  19.644  0.00  0.00    +0.000 OA
ATOM      9  O   UNL     1       3.385   2.872  17.545  0.00  0.00    +0.000 OA
BRANCH   7  10
ATOM     10  N   UNL     1       5.680   3.995  17.433  0.00  0.00    +0.000 N 
ATOM     11  H   UNL     1       6.046   3.184  16.942  0.00  0.00    +0.000 HD
BRANCH  10  12
ATOM     12  C   UNL     1       6.543   5.059  17.779  0.00  0.00    +0.000 A 
ATOM     13  C   UNL     1       7.178   5.064  19.020  0.00  0.00    +0.000 A 
ATOM     14  C   UNL     1       7.981   6.146  19.379  0.00  0.00    +0.000 A 
ATOM     15  C   UNL     1       8.167   7.204  18.490  0.00  0.00    +0.000 A 
ATOM     16  C   UNL     1       7.552   7.182  17.237  0.00  0.00    +0.000 A 
ATOM     17  C   UNL     1       6.732   6.111  16.885  0.00  0.00    +0.000 A 
ENDBRANCH  10  12
ENDBRANCH   7  10
ENDBRANCH   4   7
BRANCH   6  18
ATOM     18  N   UNL     1       1.594   7.562  20.698  0.00  0.00    +0.000 N 
ATOM     19  O   UNL     1       1.799   8.706  21.134  0.00  0.00    +0.000 OA
ATOM     20  O   UNL     1       0.827   6.749  21.233  0.00  0.00    +0.000 OA
ENDBRANCH   6  18
BRANCH   1  21
ATOM     21  N   UNL     1       1.983   9.363  18.359  0.00  0.00    +0.000 N 
ATOM     22  H   UNL     1       2.601  10.005  17.847  0.00  0.00    +0.000 HD
BRANCH  21  25
ATOM     23  C   UNL     1       0.849  11.850  19.055  0.00  0.00    +0.000 C 
ATOM     24  C   UNL     1       0.089  10.667  18.481  0.00  0.00    +0.000 C 
ATOM     25  N   UNL     1       0.633   9.516  18.191  0.00  0.00    +0.000 NA
BRANCH  24  26
ATOM     26  C   UNL     1      -1.394  10.857  18.256  0.00  0.00    +0.000 A 
ATOM     27  C   UNL     1      -2.076  10.165  17.251  0.00  0.00    +0.000 A 
ATOM     28  C   UNL     1      -3.461  10.317  17.076  0.00  0.00    +0.000 A 
ATOM     29  C   UNL     1      -4.217  11.172  17.884  0.00  0.00    +0.000 A 
ATOM     30  C   UNL     1      -3.517  11.881  18.875  0.00  0.00    +0.000 A 
ATOM     31  C   UNL     1      -2.131  11.725  19.068  0.00  0.00    +0.000 A 
BRANCH  29  32
ATOM     32  N   UNL     1      -5.590  11.291  17.763  0.00  0.00    +0.000 N 
ATOM     33  C   UNL     1      -6.231  12.463  17.140  0.00  0.00    +0.000 C 
ATOM     34  C   UNL     1      -6.930  13.340  18.188  0.00  0.00    +0.000 C 
ATOM     35  O   UNL     1      -7.848  12.576  18.987  0.00  0.00    +0.000 OA
ATOM     36  C   UNL     1      -7.149  11.523  19.672  0.00  0.00    +0.000 C 
ATOM     37  C   UNL     1      -6.470  10.552  18.688  0.00  0.00    +0.000 C 
ENDBRANCH  29  32
ENDBRANCH  24  26
ENDBRANCH  21  25
ENDBRANCH   1  21
TORSDOF 8
ENDMDL
MODEL 3
REMARK VINA RESULT:      -8.4      3.673      5.942
REMARK  Name = 
REMARK  9 active torsions:
REMARK  status: ('A' for Active; 'I' for Inactive)
REMARK    1  A    between atoms: C_1  and  C_2
REMARK    2  A    between atoms: C_2  and  C_24
REMARK    3  A    between atoms: N_3  and  N_4
REMARK    4  A    between atoms: N_4  and  C_5
REMARK    5  A    between atoms: C_8  and  S_9
REMARK    6  A    between atoms: S_9  and  N_12
REMARK    7  A    between atoms: N_12  and  C_13
REMARK    8  A    between atoms: C_20  and  N_21
REMARK    9  A    between atoms: C_27  and  N_28
REMARK                            x       y       z     vdW  Elec       q    Type
REMARK                         _______ _______ _______ _____ _____    ______ ____
ROOT
ATOM      1  C   UNL     1       2.231   8.023  18.753  0.00  0.00    +0.000 A 
ATOM      2  C   UNL     1       2.836   7.309  17.699  0.00  0.00    +0.000 A 
ATOM      3  C   UNL     1       3.209   5.967  17.829  0.00  0.00    +0.000 A 
ATOM      4  C   UNL     1       2.959   5.291  19.023  0.00  0.00    +0.000 A 
ATOM      5  C   UNL     1       2.335   5.951  20.085  0.00  0.00    +0.000 A 
ATOM      6  C   UNL     1       1.953   7.305  19.941  0.00  0.00    +0.000 A 
ENDROOT
BRANCH   4   7
ATOM      7  S   UNL     1       3.571   3.625  19.231  0.00  0.00    +0.000 S 
ATOM      8  O   UNL     1       3.058   3.146  20.497  0.00  0.00    +0.000 OA
ATOM      9  O   UNL     1       3.312   2.911  18.003  0.00  0.00    +0.000 OA
BRANCH   7  10
ATOM     10  N   UNL     1       5.223   3.813  19.442  0.00  0.00    +0.000 N 
ATOM     11  H   UNL     1       5.576   3.645  20.381  0.00  0.00    +0.000 HD
BRANCH  10  12
ATOM     12  C   UNL     1       5.967   4.608  18.541  0.00  0.00    +0.000 A 
ATOM     13  C   UNL     1       6.656   5.727  19.007  0.00  0.00    +0.000 A 
ATOM     14  C   UNL     1       7.339   6.541  18.104  0.00  0.00    +0.000 A 
ATOM     15  C   UNL     1       7.353   6.222  16.747  0.00  0.00    +0.000 A 
ATOM     16  C   UNL     1       6.684   5.086  16.288  0.00  0.00    +0.000 A 
ATOM     17  C   UNL     1       5.984   4.282  17.187  0.00  0.00    +0.000 A 
ENDBRANCH  10  12
ENDBRANCH   7  10
ENDBRANCH   4   7
BRANCH   6  18
ATOM     18  N   UNL     1       1.288   7.949  21.085  0.00  0.00    +0.000 N 
ATOM     19  O   UNL     1       1.890   8.855  21.684  0.00  0.00    +0.000 OA
ATOM     20  O   UNL     1       0.155   7.553  21.395  0.00  0.00    +0.000 OA
ENDBRANCH   6  18
BRANCH   1  21
ATOM     21  N   UNL     1       1.856   9.379  18.536  0.00  0.00    +0.000 N 
ATOM     22  H   UNL     1       2.439   9.838  17.824  0.00  0.00    +0.000 HD
BRANCH  21  25
ATOM     23  C   UNL     1       1.097  12.051  19.026  0.00  0.00    +0.000 C 
ATOM     24  C   UNL     1       0.143  10.904  18.740  0.00  0.00    +0.000 C 
ATOM     25  N   UNL     1       0.519   9.669  18.542  0.00  0.00    +0.000 NA
BRANCH  24  26
ATOM     26  C   UNL     1      -1.331  11.239  18.704  0.00  0.00    +0.000 A 
ATOM     27  C   UNL     1      -2.177  10.713  17.722  0.00  0.00    +0.000 A 
ATOM     28  C   UNL     1      -3.551  10.998  17.721  0.00  0.00    +0.000 A 
ATOM     29  C   UNL     1      -4.135  11.824  18.686  0.00  0.00    +0.000 A 
ATOM     30  C   UNL     1      -3.271  12.366  19.653  0.00  0.00    +0.000 A 
ATOM     31  C   UNL     1      -1.893  12.076  19.672  0.00  0.00    +0.000 A 
BRANCH  29  32
ATOM     32  N   UNL     1      -5.496  12.069  18.734  0.00  0.00    +0.000 N 
ATOM     33  C   UNL     1      -6.075  13.164  19.532  0.00  0.00    +0.000 C 
ATOM     34  C   UNL     1      -6.818  12.625  20.763  0.00  0.00    +0.000 C 
ATOM     35  O   UNL     1      -7.797  11.639  20.397  0.00  0.00    +0.000 OA
ATOM     36  C   UNL     1      -7.160  10.534  19.733  0.00  0.00    +0.000 C 
ATOM     37  C   UNL     1      -6.444  10.977  18.444  0.00  0.00    +0.000 C 
ENDBRANCH  29  32
ENDBRANCH  24  26
ENDBRANCH  21  25
ENDBRANCH   1  21
TORSDOF 8
ENDMDL
MODEL 4
REMARK VINA RESULT:      -8.4      3.898      5.700
REMARK  Name = 
REMARK  9 active torsions:
REMARK  status: ('A' for Active; 'I' for Inactive)
REMARK    1  A    between atoms: C_1  and  C_2
REMARK    2  A    between atoms: C_2  and  C_24
REMARK    3  A    between atoms: N_3  and  N_4
REMARK    4  A    between atoms: N_4  and  C_5
REMARK    5  A    between atoms: C_8  and  S_9
REMARK    6  A    between atoms: S_9  and  N_12
REMARK    7  A    between atoms: N_12  and  C_13
REMARK    8  A    between atoms: C_20  and  N_21
REMARK    9  A    between atoms: C_27  and  N_28
REMARK                            x       y       z     vdW  Elec       q    Type
REMARK                         _______ _______ _______ _____ _____    ______ ____
ROOT
ATOM      1  C   UNL     1       2.061   8.191  18.942  0.00  0.00    +0.000 A 
ATOM      2  C   UNL     1       2.632   7.467  17.875  0.00  0.00    +0.000 A 
ATOM      3  C   UNL     1       2.960   6.113  17.988  0.00  0.00    +0.000 A 
ATOM      4  C   UNL     1       2.697   5.433  19.177  0.00  0.00    +0.000 A 
ATOM      5  C   UNL     1       2.104   6.103  20.251  0.00  0.00    +0.000 A 
ATOM      6  C   UNL     1       1.768   7.470  20.124  0.00  0.00    +0.000 A 
ENDROOT
BRANCH   4   7
ATOM      7  S   UNL     1       3.252   3.744  19.362  0.00  0.00    +0.000 S 
ATOM      8  O   UNL     1       2.750   3.277  20.637  0.00  0.00    +0.000 OA
ATOM      9  O   UNL     1       2.942   3.048  18.137  0.00  0.00    +0.000 OA
BRANCH   7  10
ATOM     10  N   UNL     1       4.915   3.872  19.540  0.00  0.00    +0.000 N 
ATOM     11  H   UNL     1       5.277   3.733  20.480  0.00  0.00    +0.000 HD
BRANCH  10  12
ATOM     12  C   UNL     1       5.675   4.591  18.590  0.00  0.00    +0.000 A 
ATOM     13  C   UNL     1       5.660   4.203  17.251  0.00  0.00    +0.000 A 
ATOM     14  C   UNL     1       6.459   4.879  16.328  0.00  0.00    +0.000 A 
ATOM     15  C   UNL     1       7.248   5.952  16.741  0.00  0.00    +0.000 A 
ATOM     16  C   UNL     1       7.239   6.354  18.078  0.00  0.00    +0.000 A 
ATOM     17  C   UNL     1       6.457   5.667  19.005  0.00  0.00    +0.000 A 
ENDBRANCH  10  12
ENDBRANCH   7  10
ENDBRANCH   4   7
BRANCH   6  18
ATOM     18  N   UNL     1       1.135   8.124  21.281  0.00  0.00    +0.000 N 
ATOM     19  O   UNL     1      -0.069   7.910  21.495  0.00  0.00    +0.000 OA
ATOM     20  O   UNL     1       1.839   8.859  21.988  0.00  0.00    +0.000 OA
ENDBRANCH   6  18
BRANCH   1  21
ATOM     21  N   UNL     1       1.731   9.561  18.741  0.00  0.00    +0.000 N 
ATOM     22  H   UNL     1       2.410  10.044  18.139  0.00  0.00    +0.000 HD
BRANCH  21  25
ATOM     23  C   UNL     1       0.679  11.667  20.294  0.00  0.00    +0.000 C 
ATOM     24  C   UNL     1      -0.096  10.860  19.266  0.00  0.00    +0.000 C 
ATOM     25  N   UNL     1       0.408   9.871  18.579  0.00  0.00    +0.000 NA
BRANCH  24  26
ATOM     26  C   UNL     1      -1.546  11.236  19.059  0.00  0.00    +0.000 A 
ATOM     27  C   UNL     1      -2.308  10.672  18.032  0.00  0.00    +0.000 A 
ATOM     28  C   UNL     1      -3.664  10.998  17.872  0.00  0.00    +0.000 A 
ATOM     29  C   UNL     1      -4.310  11.904  18.719  0.00  0.00    +0.000 A 
ATOM     30  C   UNL     1      -3.528  12.482  19.733  0.00  0.00    +0.000 A 
ATOM     31  C   UNL     1      -2.170  12.153  19.910  0.00  0.00    +0.000 A 
BRANCH  29  32
ATOM     32  N   UNL     1      -5.659  12.192  18.612  0.00  0.00    +0.000 N 
ATOM     33  C   UNL     1      -6.340  12.321  17.311  0.00  0.00    +0.000 C 
ATOM     34  C   UNL     1      -6.698  13.784  17.012  0.00  0.00    +0.000 C 
ATOM     35  O   UNL     1      -7.454  14.371  18.084  0.00  0.00    +0.000 OA
ATOM     36  C   UNL     1      -6.693  14.332  19.303  0.00  0.00    +0.000 C 
ATOM     37  C   UNL     1      -6.346  12.889  19.716  0.00  0.00    +0.000 C 
ENDBRANCH  29  32
ENDBRANCH  24  26
ENDBRANCH  21  25
ENDBRANCH   1  21
TORSDOF 8
ENDMDL
MODEL 5
REMARK VINA RESULT:      -8.1      5.871     11.270
REMARK  Name = 
REMARK  9 active torsions:
REMARK  status: ('A' for Active; 'I' for Inactive)
REMARK    1  A    between atoms: C_1  and  C_2
REMARK    2  A    between atoms: C_2  and  C_24
REMARK    3  A    between atoms: N_3  and  N_4
REMARK    4  A    between atoms: N_4  and  C_5
REMARK    5  A    between atoms: C_8  and  S_9
REMARK    6  A    between atoms: S_9  and  N_12
REMARK    7  A    between atoms: N_12  and  C_13
REMARK    8  A    between atoms: C_20  and  N_21
REMARK    9  A    between atoms: C_27  and  N_28
REMARK                            x       y       z     vdW  Elec       q    Type
REMARK                         _______ _______ _______ _____ _____    ______ ____
ROOT
ATOM      1  C   UNL     1      -2.268  11.746  18.331  0.00  0.00    +0.000 A 
ATOM      2  C   UNL     1      -2.540  12.379  19.560  0.00  0.00    +0.000 A 
ATOM      3  C   UNL     1      -3.843  12.536  20.042  0.00  0.00    +0.000 A 
ATOM      4  C   UNL     1      -4.918  12.033  19.310  0.00  0.00    +0.000 A 
ATOM      5  C   UNL     1      -4.693  11.371  18.100  0.00  0.00    +0.000 A 
ATOM      6  C   UNL     1      -3.371  11.210  17.625  0.00  0.00    +0.000 A 
ENDROOT
BRANCH   4   7
ATOM      7  S   UNL     1      -6.586  12.367  19.860  0.00  0.00    +0.000 S 
ATOM      8  O   UNL     1      -6.808  13.786  19.683  0.00  0.00    +0.000 OA
ATOM      9  O   UNL     1      -7.451  11.393  19.239  0.00  0.00    +0.000 OA
BRANCH   7  10
ATOM     10  N   UNL     1      -6.535  12.110  21.516  0.00  0.00    +0.000 N 
ATOM     11  H   UNL     1      -6.796  11.180  21.833  0.00  0.00    +0.000 HD
BRANCH  10  12
ATOM     12  C   UNL     1      -6.612  13.206  22.406  0.00  0.00    +0.000 A 
ATOM     13  C   UNL     1      -7.833  13.541  22.989  0.00  0.00    +0.000 A 
ATOM     14  C   UNL     1      -7.917  14.659  23.819  0.00  0.00    +0.000 A 
ATOM     15  C   UNL     1      -6.778  15.420  24.082  0.00  0.00    +0.000 A 
ATOM     16  C   UNL     1      -5.552  15.065  23.518  0.00  0.00    +0.000 A 
ATOM     17  C   UNL     1      -5.472  13.959  22.671  0.00  0.00    +0.000 A 
ENDBRANCH  10  12
ENDBRANCH   7  10
ENDBRANCH   4   7
BRANCH   6  18
ATOM     18  N   UNL     1      -3.190  10.495  16.351  0.00  0.00    +0.000 N 
ATOM     19  O   UNL     1      -3.251   9.255  16.356  0.00  0.00    +0.000 OA
ATOM     20  O   UNL     1      -2.985  11.170  15.332  0.00  0.00    +0.000 OA
ENDBRANCH   6  18
BRANCH   1  21
ATOM     21  N   UNL     1      -0.913  11.601  17.920  0.00  0.00    +0.000 N 
ATOM     22  H   UNL     1      -0.356  12.446  18.100  0.00  0.00    +0.000 HD
BRANCH  21  25
ATOM     23  C   UNL     1       1.833  11.593  18.568  0.00  0.00    +0.000 C 
ATOM     24  C   UNL     1       0.948  10.361  18.470  0.00  0.00    +0.000 C 
ATOM     25  N   UNL     1      -0.315  10.390  18.142  0.00  0.00    +0.000 NA
BRANCH  24  26
ATOM     26  C   UNL     1       1.603   9.030  18.760  0.00  0.00    +0.000 A 
ATOM     27  C   UNL     1       2.420   8.396  17.818  0.00  0.00    +0.000 A 
ATOM     28  C   UNL     1       3.057   7.180  18.112  0.00  0.00    +0.000 A 
ATOM     29  C   UNL     1       2.896   6.542  19.345  0.00  0.00    +0.000 A 
ATOM     30  C   UNL     1       2.053   7.176  20.274  0.00  0.00    +0.000 A 
ATOM     31  C   UNL     1       1.421   8.402  19.995  0.00  0.00    +0.000 A 
BRANCH  29  32
ATOM     32  N   UNL     1       3.560   5.373  19.672  0.00  0.00    +0.000 N 
ATOM     33  C   UNL     1       4.921   5.076  19.190  0.00  0.00    +0.000 C 
ATOM     34  C   UNL     1       4.907   3.968  18.127  0.00  0.00    +0.000 C 
ATOM     35  O   UNL     1       4.226   2.794  18.599  0.00  0.00    +0.000 OA
ATOM     36  C   UNL     1       2.866   3.115  18.937  0.00  0.00    +0.000 C 
ATOM     37  C   UNL     1       2.787   4.175  20.050  0.00  0.00    +0.000 C 
ENDBRANCH  29  32
ENDBRANCH  24  26
ENDBRANCH  21  25
ENDBRANCH   1  21
TORSDOF 8
ENDMDL
MODEL 6
REMARK VINA RESULT:      -8.1      1.163      1.380
REMARK  Name = 
REMARK  9 active torsions:
REMARK  status: ('A' for Active; 'I' for Inactive)
REMARK    1  A    between atoms: C_1  and  C_2
REMARK    2  A    between atoms: C_2  and  C_24
REMARK    3  A    between atoms: N_3  and  N_4
REMARK    4  A    between atoms: N_4  and  C_5
REMARK    5  A    between atoms: C_8  and  S_9
REMARK    6  A    between atoms: S_9  and  N_12
REMARK    7  A    between atoms: N_12  and  C_13
REMARK    8  A    between atoms: C_20  and  N_21
REMARK    9  A    between atoms: C_27  and  N_28
REMARK                            x       y       z     vdW  Elec       q    Type
REMARK                         _______ _______ _______ _____ _____    ______ ____
ROOT
ATOM      1  C   UNL     1       2.397   7.779  18.202  0.00  0.00    +0.000 A 
ATOM      2  C   UNL     1       3.337   7.713  17.153  0.00  0.00    +0.000 A 
ATOM      3  C   UNL     1       4.473   6.902  17.223  0.00  0.00    +0.000 A 
ATOM      4  C   UNL     1       4.687   6.105  18.348  0.00  0.00    +0.000 A 
ATOM      5  C   UNL     1       3.768   6.116  19.400  0.00  0.00    +0.000 A 
ATOM      6  C   UNL     1       2.617   6.933  19.316  0.00  0.00    +0.000 A 
ENDROOT
BRANCH   4   7
ATOM      7  S   UNL     1       6.213   5.186  18.492  0.00  0.00    +0.000 S 
ATOM      8  O   UNL     1       7.038   5.566  17.365  0.00  0.00    +0.000 OA
ATOM      9  O   UNL     1       6.685   5.338  19.848  0.00  0.00    +0.000 OA
BRANCH   7  10
ATOM     10  N   UNL     1       5.764   3.593  18.220  0.00  0.00    +0.000 N 
ATOM     11  H   UNL     1       6.373   3.055  17.609  0.00  0.00    +0.000 HD
BRANCH  10  12
ATOM     12  C   UNL     1       4.422   3.193  18.408  0.00  0.00    +0.000 A 
ATOM     13  C   UNL     1       3.527   3.243  17.341  0.00  0.00    +0.000 A 
ATOM     14  C   UNL     1       2.189   2.905  17.546  0.00  0.00    +0.000 A 
ATOM     15  C   UNL     1       1.758   2.495  18.807  0.00  0.00    +0.000 A 
ATOM     16  C   UNL     1       2.664   2.420  19.867  0.00  0.00    +0.000 A 
ATOM     17  C   UNL     1       3.997   2.778  19.668  0.00  0.00    +0.000 A 
ENDBRANCH  10  12
ENDBRANCH   7  10
ENDBRANCH   4   7
BRANCH   6  18
ATOM     18  N   UNL     1       1.675   6.898  20.446  0.00  0.00    +0.000 N 
ATOM     19  O   UNL     1       1.349   7.973  20.976  0.00  0.00    +0.000 OA
ATOM     20  O   UNL     1       1.251   5.793  20.813  0.00  0.00    +0.000 OA
ENDBRANCH   6  18
BRANCH   1  21
ATOM     21  N   UNL     1       1.252   8.610  18.046  0.00  0.00    +0.000 N 
ATOM     22  H   UNL     1       0.386   8.144  18.344  0.00  0.00    +0.000 HD
BRANCH  21  25
ATOM     23  C   UNL     1      -1.096  10.144  18.343  0.00  0.00    +0.000 C 
ATOM     24  C   UNL     1       0.321  10.662  18.517  0.00  0.00    +0.000 C 
ATOM     25  N   UNL     1       1.393   9.937  18.348  0.00  0.00    +0.000 NA
BRANCH  24  26
ATOM     26  C   UNL     1       0.470  12.119  18.895  0.00  0.00    +0.000 A 
ATOM     27  C   UNL     1      -0.335  13.109  18.322  0.00  0.00    +0.000 A 
ATOM     28  C   UNL     1      -0.217  14.453  18.709  0.00  0.00    +0.000 A 
ATOM     29  C   UNL     1       0.712  14.866  19.668  0.00  0.00    +0.000 A 
ATOM     30  C   UNL     1       1.531  13.866  20.219  0.00  0.00    +0.000 A 
ATOM     31  C   UNL     1       1.413  12.513  19.848  0.00  0.00    +0.000 A 
BRANCH  29  32
ATOM     32  N   UNL     1       0.802  16.177  20.103  0.00  0.00    +0.000 N 
ATOM     33  C   UNL     1       0.137  17.290  19.402  0.00  0.00    +0.000 C 
ATOM     34  C   UNL     1       1.157  18.177  18.672  0.00  0.00    +0.000 C 
ATOM     35  O   UNL     1       2.191  18.631  19.560  0.00  0.00    +0.000 OA
ATOM     36  C   UNL     1       2.889  17.506  20.120  0.00  0.00    +0.000 C 
ATOM     37  C   UNL     1       1.950  16.594  20.930  0.00  0.00    +0.000 C 
ENDBRANCH  29  32
ENDBRANCH  24  26
ENDBRANCH  21  25
ENDBRANCH   1  21
TORSDOF 8
ENDMDL
MODEL 7
REMARK VINA RESULT:      -8.1      3.799      5.827
REMARK  Name = 
REMARK  9 active torsions:
REMARK  status: ('A' for Active; 'I' for Inactive)
REMARK    1  A    between atoms: C_1  and  C_2
REMARK    2  A    between atoms: C_2  and  C_24
REMARK    3  A    between atoms: N_3  and  N_4
REMARK    4  A    between atoms: N_4  and  C_5
REMARK    5  A    between atoms: C_8  and  S_9
REMARK    6  A    between atoms: S_9  and  N_12
REMARK    7  A    between atoms: N_12  and  C_13
REMARK    8  A    between atoms: C_20  and  N_21
REMARK    9  A    between atoms: C_27  and  N_28
REMARK                            x       y       z     vdW  Elec       q    Type
REMARK                         _______ _______ _______ _____ _____    ______ ____
ROOT
ATOM      1  C   UNL     1       2.102   8.064  18.836  0.00  0.00    +0.000 A 
ATOM      2  C   UNL     1       2.686   7.335  17.779  0.00  0.00    +0.000 A 
ATOM      3  C   UNL     1       3.067   5.997  17.922  0.00  0.00    +0.000 A 
ATOM      4  C   UNL     1       2.848   5.339  19.132  0.00  0.00    +0.000 A 
ATOM      5  C   UNL     1       2.245   6.014  20.197  0.00  0.00    +0.000 A 
ATOM      6  C   UNL     1       1.854   7.364  20.040  0.00  0.00    +0.000 A 
ENDROOT
BRANCH   4   7
ATOM      7  S   UNL     1       3.470   3.679  19.352  0.00  0.00    +0.000 S 
ATOM      8  O   UNL     1       3.018   3.231  20.651  0.00  0.00    +0.000 OA
ATOM      9  O   UNL     1       3.156   2.935  18.155  0.00  0.00    +0.000 OA
BRANCH   7  10
ATOM     10  N   UNL     1       5.131   3.873  19.482  0.00  0.00    +0.000 N 
ATOM     11  H   UNL     1       5.525   3.742  20.410  0.00  0.00    +0.000 HD
BRANCH  10  12
ATOM     12  C   UNL     1       5.834   4.630  18.518  0.00  0.00    +0.000 A 
ATOM     13  C   UNL     1       5.826   4.230  17.182  0.00  0.00    +0.000 A 
ATOM     14  C   UNL     1       6.570   4.946  16.244  0.00  0.00    +0.000 A 
ATOM     15  C   UNL     1       7.297   6.070  16.639  0.00  0.00    +0.000 A 
ATOM     16  C   UNL     1       7.280   6.482  17.972  0.00  0.00    +0.000 A 
ATOM     17  C   UNL     1       6.553   5.755  18.914  0.00  0.00    +0.000 A 
ENDBRANCH  10  12
ENDBRANCH   7  10
ENDBRANCH   4   7
BRANCH   6  18
ATOM     18  N   UNL     1       1.214   8.024  21.190  0.00  0.00    +0.000 N 
ATOM     19  O   UNL     1       1.858   8.885  21.810  0.00  0.00    +0.000 OA
ATOM     20  O   UNL     1       0.058   7.685  21.481  0.00  0.00    +0.000 OA
ENDBRANCH   6  18
BRANCH   1  21
ATOM     21  N   UNL     1       1.717   9.415  18.605  0.00  0.00    +0.000 N 
ATOM     22  H   UNL     1       2.282   9.865  17.874  0.00  0.00    +0.000 HD
BRANCH  21  25
ATOM     23  C   UNL     1       0.958  12.105  18.983  0.00  0.00    +0.000 C 
ATOM     24  C   UNL     1       0.003  10.941  18.782  0.00  0.00    +0.000 C 
ATOM     25  N   UNL     1       0.379   9.700  18.636  0.00  0.00    +0.000 NA
BRANCH  24  26
ATOM     26  C   UNL     1      -1.474  11.269  18.772  0.00  0.00    +0.000 A 
ATOM     27  C   UNL     1      -2.062  12.024  19.791  0.00  0.00    +0.000 A 
ATOM     28  C   UNL     1      -3.425  12.357  19.752  0.00  0.00    +0.000 A 
ATOM     29  C   UNL     1      -4.257  11.943  18.707  0.00  0.00    +0.000 A 
ATOM     30  C   UNL     1      -3.659  11.164  17.701  0.00  0.00    +0.000 A 
ATOM     31  C   UNL     1      -2.290  10.836  17.724  0.00  0.00    +0.000 A 
BRANCH  29  32
ATOM     32  N   UNL     1      -5.588  12.310  18.623  0.00  0.00    +0.000 N 
ATOM     33  C   UNL     1      -6.058  13.665  18.966  0.00  0.00    +0.000 C 
ATOM     34  C   UNL     1      -6.844  13.665  20.285  0.00  0.00    +0.000 C 
ATOM     35  O   UNL     1      -7.914  12.706  20.260  0.00  0.00    +0.000 OA
ATOM     36  C   UNL     1      -7.388  11.385  20.048  0.00  0.00    +0.000 C 
ATOM     37  C   UNL     1      -6.637  11.277  18.708  0.00  0.00    +0.000 C 
ENDBRANCH  29  32
ENDBRANCH  24  26
ENDBRANCH  21  25
ENDBRANCH   1  21
TORSDOF 8
ENDMDL
MODEL 8
REMARK VINA RESULT:      -8.1      5.820     11.239
REMARK  Name = 
REMARK  9 active torsions:
REMARK  status: ('A' for Active; 'I' for Inactive)
REMARK    1  A    between atoms: C_1  and  C_2
REMARK    2  A    between atoms: C_2  and  C_24
REMARK    3  A    between atoms: N_3  and  N_4
REMARK    4  A    between atoms: N_4  and  C_5
REMARK    5  A    between atoms: C_8  and  S_9
REMARK    6  A    between atoms: S_9  and  N_12
REMARK    7  A    between atoms: N_12  and  C_13
REMARK    8  A    between atoms: C_20  and  N_21
REMARK    9  A    between atoms: C_27  and  N_28
REMARK                            x       y       z     vdW  Elec       q    Type
REMARK                         _______ _______ _______ _____ _____    ______ ____
ROOT
ATOM      1  C   UNL     1      -2.470  12.183  18.944  0.00  0.00    +0.000 A 
ATOM      2  C   UNL     1      -2.775  12.845  20.151  0.00  0.00    +0.000 A 
ATOM      3  C   UNL     1      -4.067  12.853  20.687  0.00  0.00    +0.000 A 
ATOM      4  C   UNL     1      -5.092  12.168  20.035  0.00  0.00    +0.000 A 
ATOM      5  C   UNL     1      -4.829  11.473  18.852  0.00  0.00    +0.000 A 
ATOM      6  C   UNL     1      -3.518  11.463  18.322  0.00  0.00    +0.000 A 
ENDROOT
BRANCH   4   7
ATOM      7  S   UNL     1      -6.765  12.306  20.648  0.00  0.00    +0.000 S 
ATOM      8  O   UNL     1      -7.137  10.999  21.145  0.00  0.00    +0.000 OA
ATOM      9  O   UNL     1      -6.821  13.471  21.498  0.00  0.00    +0.000 OA
BRANCH   7  10
ATOM     10  N   UNL     1      -7.691  12.559  19.273  0.00  0.00    +0.000 N 
ATOM     11  H   UNL     1      -8.096  11.729  18.848  0.00  0.00    +0.000 HD
BRANCH  10  12
ATOM     12  C   UNL     1      -7.510  13.730  18.503  0.00  0.00    +0.000 A 
ATOM     13  C   UNL     1      -7.168  13.628  17.155  0.00  0.00    +0.000 A 
ATOM     14  C   UNL     1      -6.933  14.787  16.415  0.00  0.00    +0.000 A 
ATOM     15  C   UNL     1      -7.064  16.039  17.015  0.00  0.00    +0.000 A 
ATOM     16  C   UNL     1      -7.433  16.136  18.358  0.00  0.00    +0.000 A 
ATOM     17  C   UNL     1      -7.649  14.979  19.104  0.00  0.00    +0.000 A 
ENDBRANCH  10  12
ENDBRANCH   7  10
ENDBRANCH   4   7
BRANCH   6  18
ATOM     18  N   UNL     1      -3.293  10.706  17.080  0.00  0.00    +0.000 N 
ATOM     19  O   UNL     1      -3.085  11.339  16.033  0.00  0.00    +0.000 OA
ATOM     20  O   UNL     1      -3.321   9.469  17.142  0.00  0.00    +0.000 OA
ENDBRANCH   6  18
BRANCH   1  21
ATOM     21  N   UNL     1      -1.126  12.198  18.475  0.00  0.00    +0.000 N 
ATOM     22  H   UNL     1      -0.601  13.014  18.815  0.00  0.00    +0.000 HD
BRANCH  21  25
ATOM     23  C   UNL     1       1.123  11.860  20.144  0.00  0.00    +0.000 C 
ATOM     24  C   UNL     1       0.560  10.809  19.202  0.00  0.00    +0.000 C 
ATOM     25  N   UNL     1      -0.467  11.000  18.419  0.00  0.00    +0.000 NA
BRANCH  24  26
ATOM     26  C   UNL     1       1.266   9.472  19.177  0.00  0.00    +0.000 A 
ATOM     27  C   UNL     1       1.310   8.647  20.306  0.00  0.00    +0.000 A 
ATOM     28  C   UNL     1       1.932   7.390  20.261  0.00  0.00    +0.000 A 
ATOM     29  C   UNL     1       2.544   6.909  19.099  0.00  0.00    +0.000 A 
ATOM     30  C   UNL     1       2.514   7.757  17.979  0.00  0.00    +0.000 A 
ATOM     31  C   UNL     1       1.881   9.014  18.008  0.00  0.00    +0.000 A 
BRANCH  29  32
ATOM     32  N   UNL     1       3.110   5.650  19.022  0.00  0.00    +0.000 N 
ATOM     33  C   UNL     1       4.451   5.419  18.455  0.00  0.00    +0.000 C 
ATOM     34  C   UNL     1       4.367   4.722  17.089  0.00  0.00    +0.000 C 
ATOM     35  O   UNL     1       3.590   3.515  17.161  0.00  0.00    +0.000 OA
ATOM     36  C   UNL     1       2.254   3.814  17.599  0.00  0.00    +0.000 C 
ATOM     37  C   UNL     1       2.241   4.459  18.998  0.00  0.00    +0.000 C 
ENDBRANCH  29  32
ENDBRANCH  24  26
ENDBRANCH  21  25
ENDBRANCH   1  21
TORSDOF 8
ENDMDL
MODEL 9
REMARK VINA RESULT:      -8.0      5.206     11.315
REMARK  Name = 
REMARK  9 active torsions:
REMARK  status: ('A' for Active; 'I' for Inactive)
REMARK    1  A    between atoms: C_1  and  C_2
REMARK    2  A    between atoms: C_2  and  C_24
REMARK    3  A    between atoms: N_3  and  N_4
REMARK    4  A    between atoms: N_4  and  C_5
REMARK    5  A    between atoms: C_8  and  S_9
REMARK    6  A    between atoms: S_9  and  N_12
REMARK    7  A    between atoms: N_12  and  C_13
REMARK    8  A    between atoms: C_20  and  N_21
REMARK    9  A    between atoms: C_27  and  N_28
REMARK                            x       y       z     vdW  Elec       q    Type
REMARK                         _______ _______ _______ _____ _____    ______ ____
ROOT
ATOM      1  C   UNL     1      -0.934  11.899  21.336  0.00  0.00    +0.000 A 
ATOM      2  C   UNL     1      -1.132  11.742  22.724  0.00  0.00    +0.000 A 
ATOM      3  C   UNL     1      -2.353  12.034  23.338  0.00  0.00    +0.000 A 
ATOM      4  C   UNL     1      -3.430  12.471  22.566  0.00  0.00    +0.000 A 
ATOM      5  C   UNL     1      -3.289  12.612  21.183  0.00  0.00    +0.000 A 
ATOM      6  C   UNL     1      -2.052  12.306  20.570  0.00  0.00    +0.000 A 
ENDROOT
BRANCH   4   7
ATOM      7  S   UNL     1      -4.938  12.981  23.377  0.00  0.00    +0.000 S 
ATOM      8  O   UNL     1      -5.992  12.902  22.387  0.00  0.00    +0.000 OA
ATOM      9  O   UNL     1      -5.029  12.257  24.623  0.00  0.00    +0.000 OA
BRANCH   7  10
ATOM     10  N   UNL     1      -4.713  14.614  23.682  0.00  0.00    +0.000 N 
ATOM     11  H   UNL     1      -5.379  15.247  23.246  0.00  0.00    +0.000 HD
BRANCH  10  12
ATOM     12  C   UNL     1      -3.445  15.092  24.082  0.00  0.00    +0.000 A 
ATOM     13  C   UNL     1      -3.011  14.897  25.393  0.00  0.00    +0.000 A 
ATOM     14  C   UNL     1      -1.785  15.422  25.799  0.00  0.00    +0.000 A 
ATOM     15  C   UNL     1      -0.987  16.117  24.890  0.00  0.00    +0.000 A 
ATOM     16  C   UNL     1      -1.412  16.286  23.572  0.00  0.00    +0.000 A 
ATOM     17  C   UNL     1      -2.647  15.779  23.170  0.00  0.00    +0.000 A 
ENDBRANCH  10  12
ENDBRANCH   7  10
ENDBRANCH   4   7
BRANCH   6  18
ATOM     18  N   UNL     1      -1.961  12.461  19.109  0.00  0.00    +0.000 N 
ATOM     19  O   UNL     1      -2.843  11.944  18.405  0.00  0.00    +0.000 OA
ATOM     20  O   UNL     1      -1.006  13.105  18.653  0.00  0.00    +0.000 OA
ENDBRANCH   6  18
BRANCH   1  21
ATOM     21  N   UNL     1       0.330  11.556  20.781  0.00  0.00    +0.000 N 
ATOM     22  H   UNL     1       1.067  12.224  21.041  0.00  0.00    +0.000 HD
BRANCH  21  25
ATOM     23  C   UNL     1       1.476  10.549  18.408  0.00  0.00    +0.000 C 
ATOM     24  C   UNL     1       1.219   9.744  19.672  0.00  0.00    +0.000 C 
ATOM     25  N   UNL     1       0.663  10.228  20.749  0.00  0.00    +0.000 NA
BRANCH  24  26
ATOM     26  C   UNL     1       1.629   8.289  19.645  0.00  0.00    +0.000 A 
ATOM     27  C   UNL     1       1.441   7.456  20.753  0.00  0.00    +0.000 A 
ATOM     28  C   UNL     1       1.788   6.097  20.705  0.00  0.00    +0.000 A 
ATOM     29  C   UNL     1       2.346   5.517  19.562  0.00  0.00    +0.000 A 
ATOM     30  C   UNL     1       2.552   6.369  18.464  0.00  0.00    +0.000 A 
ATOM     31  C   UNL     1       2.195   7.731  18.496  0.00  0.00    +0.000 A 
BRANCH  29  32
ATOM     32  N   UNL     1       2.640   4.168  19.478  0.00  0.00    +0.000 N 
ATOM     33  C   UNL     1       4.009   3.645  19.633  0.00  0.00    +0.000 C 
ATOM     34  C   UNL     1       4.575   3.158  18.291  0.00  0.00    +0.000 C 
ATOM     35  O   UNL     1       3.697   2.210  17.663  0.00  0.00    +0.000 OA
ATOM     36  C   UNL     1       2.414   2.811  17.420  0.00  0.00    +0.000 C 
ATOM     37  C   UNL     1       1.741   3.271  18.727  0.00  0.00    +0.000 C 
ENDBRANCH  29  32
ENDBRANCH  24  26
ENDBRANCH  21  25
ENDBRANCH   1  21
TORSDOF 8
ENDMDL
