MODEL 1
REMARK VINA RESULT:      -8.0      0.000      0.000
REMARK  Name = 
REMARK  4 active torsions:
REMARK  status: ('A' for Active; 'I' for Inactive)
REMARK    1  A    between atoms: C_4  and  C_5
REMARK    2  A    between atoms: C_7  and  N_8
REMARK    3  A    between atoms: N_8  and  C_9
REMARK    4  A    between atoms: N_8  and  C_12
REMARK                            x       y       z     vdW  Elec       q    Type
REMARK                         _______ _______ _______ _____ _____    ______ ____
ROOT
ATOM      1  C   UNL     1       2.624   5.982  19.429  0.00  0.00    +0.000 C 
ATOM      2  C   UNL     1       4.171   6.056  19.332  0.00  0.00    +0.000 C 
ATOM      3  C   UNL     1       4.596   4.901  18.454  0.00  0.00    +0.000 C 
ATOM      4  C   UNL     1       4.572   3.714  19.378  0.00  0.00    +0.000 C 
ATOM      5  C   UNL     1       3.091   3.491  19.475  0.00  0.00    +0.000 A 
ATOM      6  C   UNL     1       2.604   2.402  18.747  0.00  0.00    +0.000 A 
ATOM      7  C   UNL     1       1.296   2.047  18.851  0.00  0.00    +0.000 A 
ATOM      8  C   UNL     1       0.461   2.827  19.660  0.00  0.00    +0.000 A 
ATOM      9  C   UNL     1       0.875   4.110  20.104  0.00  0.00    +0.000 A 
ATOM     10  C   UNL     1       2.193   4.530  19.929  0.00  0.00    +0.000 A 
ENDROOT
BRANCH   1  14
ATOM     11  C   UNL     1       0.198   9.395  20.035  0.00  0.00    +0.000 A 
ATOM     12  C   UNL     1       0.508   8.551  21.099  0.00  0.00    +0.000 A 
ATOM     13  C   UNL     1       1.571   7.646  20.973  0.00  0.00    +0.000 A 
ATOM     14  C   UNL     1       2.310   7.473  19.755  0.00  0.00    +0.000 A 
ATOM     15  C   UNL     1       2.043   8.421  18.754  0.00  0.00    +0.000 A 
ATOM     16  C   UNL     1       1.000   9.352  18.892  0.00  0.00    +0.000 A 
ENDBRANCH   1  14
BRANCH   3  17
ATOM     17  N   UNL     1       5.693   5.141  17.520  0.00  0.00    +0.000 NA
BRANCH  17  18
ATOM     18  C   UNL     1       5.107   4.860  16.175  0.00  0.00    +0.000 C 
ATOM     19  C   UNL     1       5.688   5.140  14.842  0.00  0.00    +0.000 C 
ATOM     20  C   UNL     1       5.850   3.765  15.410  0.00  0.00    +0.000 C 
ENDBRANCH  17  18
BRANCH  17  21
ATOM     21  C   UNL     1       6.312   6.454  17.630  0.00  0.00    +0.000 C 
ATOM     22  C   UNL     1       7.625   6.583  18.388  0.00  0.00    +0.000 C 
ATOM     23  C   UNL     1       7.610   6.698  16.895  0.00  0.00    +0.000 C 
ENDBRANCH  17  21
ENDBRANCH   3  17
TORSDOF 4
ENDMDL
MODEL 2
REMARK VINA RESULT:      -7.8      0.560      1.835
REMARK  Name = 
REMARK  4 active torsions:
REMARK  status: ('A' for Active; 'I' for Inactive)
REMARK    1  A    between atoms: C_4  and  C_5
REMARK    2  A    between atoms: C_7  and  N_8
REMARK    3  A    between atoms: N_8  and  C_9
REMARK    4  A    between atoms: N_8  and  C_12
REMARK                            x       y       z     vdW  Elec       q    Type
REMARK                         _______ _______ _______ _____ _____    ______ ____
ROOT
ATOM      1  C   UNL     1       2.515   6.146  19.441  0.00  0.00    +0.000 C 
ATOM      2  C   UNL     1       4.048   6.291  19.250  0.00  0.00    +0.000 C 
ATOM      3  C   UNL     1       4.461   5.197  18.291  0.00  0.00    +0.000 C 
ATOM      4  C   UNL     1       4.544   3.968  19.155  0.00  0.00    +0.000 C 
ATOM      5  C   UNL     1       3.083   3.677  19.336  0.00  0.00    +0.000 A 
ATOM      6  C   UNL     1       2.594   2.603  18.587  0.00  0.00    +0.000 A 
ATOM      7  C   UNL     1       1.310   2.187  18.757  0.00  0.00    +0.000 A 
ATOM      8  C   UNL     1       0.500   2.893  19.654  0.00  0.00    +0.000 A 
ATOM      9  C   UNL     1       0.890   4.171  20.134  0.00  0.00    +0.000 A 
ATOM     10  C   UNL     1       2.176   4.654  19.895  0.00  0.00    +0.000 A 
ENDROOT
BRANCH   1  14
ATOM     11  C   UNL     1       0.004   9.452  20.256  0.00  0.00    +0.000 A 
ATOM     12  C   UNL     1       0.336   8.551  21.266  0.00  0.00    +0.000 A 
ATOM     13  C   UNL     1       1.422   7.683  21.085  0.00  0.00    +0.000 A 
ATOM     14  C   UNL     1       2.164   7.605  19.859  0.00  0.00    +0.000 A 
ATOM     15  C   UNL     1       1.872   8.606  18.919  0.00  0.00    +0.000 A 
ATOM     16  C   UNL     1       0.806   9.500  19.113  0.00  0.00    +0.000 A 
ENDBRANCH   1  14
BRANCH   3  17
ATOM     17  N   UNL     1       5.484   5.526  17.302  0.00  0.00    +0.000 NA
BRANCH  17  18
ATOM     18  C   UNL     1       6.459   6.382  18.043  0.00  0.00    +0.000 C 
ATOM     19  C   UNL     1       7.847   6.734  17.665  0.00  0.00    +0.000 C 
ATOM     20  C   UNL     1       6.756   7.705  17.339  0.00  0.00    +0.000 C 
ENDBRANCH  17  18
BRANCH  17  21
ATOM     21  C   UNL     1       6.090   4.375  16.646  0.00  0.00    +0.000 C 
ATOM     22  C   UNL     1       5.557   3.944  15.288  0.00  0.00    +0.000 C 
ATOM     23  C   UNL     1       6.894   4.611  15.388  0.00  0.00    +0.000 C 
ENDBRANCH  17  21
ENDBRANCH   3  17
TORSDOF 4
ENDMDL
MODEL 3
REMARK VINA RESULT:      -7.7      1.859      5.367
REMARK  Name = 
REMARK  4 active torsions:
REMARK  status: ('A' for Active; 'I' for Inactive)
REMARK    1  A    between atoms: C_4  and  C_5
REMARK    2  A    between atoms: C_7  and  N_8
REMARK    3  A    between atoms: N_8  and  C_9
REMARK    4  A    between atoms: N_8  and  C_12
REMARK                            x       y       z     vdW  Elec       q    Type
REMARK                         _______ _______ _______ _____ _____    ______ ____
ROOT
ATOM      1  C   UNL     1       4.471   5.316  18.984  0.00  0.00    +0.000 C 
ATOM      2  C   UNL     1       3.560   6.433  18.409  0.00  0.00    +0.000 C 
ATOM      3  C   UNL     1       2.469   6.658  19.431  0.00  0.00    +0.000 C 
ATOM      4  C   UNL     1       1.495   5.540  19.176  0.00  0.00    +0.000 C 
ATOM      5  C   UNL     1       2.249   4.394  19.785  0.00  0.00    +0.000 A 
ATOM      6  C   UNL     1       1.773   3.961  21.025  0.00  0.00    +0.000 A 
ATOM      7  C   UNL     1       2.315   2.862  21.614  0.00  0.00    +0.000 A 
ATOM      8  C   UNL     1       3.380   2.223  20.968  0.00  0.00    +0.000 A 
ATOM      9  C   UNL     1       4.075   2.865  19.909  0.00  0.00    +0.000 A 
ATOM     10  C   UNL     1       3.582   4.042  19.348  0.00  0.00    +0.000 A 
ENDROOT
BRANCH   1  14
ATOM     11  C   UNL     1       8.061   7.400  18.168  0.00  0.00    +0.000 A 
ATOM     12  C   UNL     1       8.060   6.304  19.029  0.00  0.00    +0.000 A 
ATOM     13  C   UNL     1       6.970   5.423  19.021  0.00  0.00    +0.000 A 
ATOM     14  C   UNL     1       5.794   5.642  18.229  0.00  0.00    +0.000 A 
ATOM     15  C   UNL     1       5.888   6.686  17.295  0.00  0.00    +0.000 A 
ATOM     16  C   UNL     1       6.995   7.551  17.278  0.00  0.00    +0.000 A 
ENDBRANCH   1  14
BRANCH   3  17
ATOM     17  N   UNL     1       2.035   8.035  19.654  0.00  0.00    +0.000 NA
BRANCH  17  18
ATOM     18  C   UNL     1       1.561   8.498  18.316  0.00  0.00    +0.000 C 
ATOM     19  C   UNL     1       0.718   9.673  17.995  0.00  0.00    +0.000 C 
ATOM     20  C   UNL     1       2.203   9.811  17.870  0.00  0.00    +0.000 C 
ENDBRANCH  17  18
BRANCH  17  21
ATOM     21  C   UNL     1       1.054   8.200  20.718  0.00  0.00    +0.000 C 
ATOM     22  C   UNL     1       1.503   8.806  22.039  0.00  0.00    +0.000 C 
ATOM     23  C   UNL     1       0.647   9.604  21.104  0.00  0.00    +0.000 C 
ENDBRANCH  17  21
ENDBRANCH   3  17
TORSDOF 4
ENDMDL
MODEL 4
REMARK VINA RESULT:      -7.6      1.734      5.372
REMARK  Name = 
REMARK  4 active torsions:
REMARK  status: ('A' for Active; 'I' for Inactive)
REMARK    1  A    between atoms: C_4  and  C_5
REMARK    2  A    between atoms: C_7  and  N_8
REMARK    3  A    between atoms: N_8  and  C_9
REMARK    4  A    between atoms: N_8  and  C_12
REMARK                            x       y       z     vdW  Elec       q    Type
REMARK                         _______ _______ _______ _____ _____    ______ ____
ROOT
ATOM      1  C   UNL     1       4.469   5.258  18.056  0.00  0.00    +0.000 C 
ATOM      2  C   UNL     1       3.788   6.640  17.865  0.00  0.00    +0.000 C 
ATOM      3  C   UNL     1       2.532   6.614  18.706  0.00  0.00    +0.000 C 
ATOM      4  C   UNL     1       1.544   5.855  17.861  0.00  0.00    +0.000 C 
ATOM      5  C   UNL     1       2.063   4.458  18.046  0.00  0.00    +0.000 A 
ATOM      6  C   UNL     1       1.308   3.653  18.903  0.00  0.00    +0.000 A 
ATOM      7  C   UNL     1       1.628   2.340  19.057  0.00  0.00    +0.000 A 
ATOM      8  C   UNL     1       2.749   1.849  18.376  0.00  0.00    +0.000 A 
ATOM      9  C   UNL     1       3.696   2.737  17.802  0.00  0.00    +0.000 A 
ATOM     10  C   UNL     1       3.424   4.102  17.714  0.00  0.00    +0.000 A 
ENDROOT
BRANCH   1  14
ATOM     11  C   UNL     1       8.156   7.277  18.528  0.00  0.00    +0.000 A 
ATOM     12  C   UNL     1       7.934   6.055  19.159  0.00  0.00    +0.000 A 
ATOM     13  C   UNL     1       6.878   5.240  18.729  0.00  0.00    +0.000 A 
ATOM     14  C   UNL     1       5.940   5.643  17.721  0.00  0.00    +0.000 A 
ATOM     15  C   UNL     1       6.271   6.822  17.034  0.00  0.00    +0.000 A 
ATOM     16  C   UNL     1       7.350   7.624  17.442  0.00  0.00    +0.000 A 
ENDBRANCH   1  14
BRANCH   3  17
ATOM     17  N   UNL     1       2.173   7.841  19.412  0.00  0.00    +0.000 NA
BRANCH  17  18
ATOM     18  C   UNL     1       1.436   8.653  18.398  0.00  0.00    +0.000 C 
ATOM     19  C   UNL     1       0.921  10.036  18.525  0.00  0.00    +0.000 C 
ATOM     20  C   UNL     1       2.248   9.833  17.865  0.00  0.00    +0.000 C 
ENDBRANCH  17  18
BRANCH  17  21
ATOM     21  C   UNL     1       1.438   7.638  20.653  0.00  0.00    +0.000 C 
ATOM     22  C   UNL     1       1.649   8.618  21.796  0.00  0.00    +0.000 C 
ATOM     23  C   UNL     1       0.367   8.638  21.021  0.00  0.00    +0.000 C 
ENDBRANCH  17  21
ENDBRANCH   3  17
TORSDOF 4
ENDMDL
MODEL 5
REMARK VINA RESULT:      -7.5      1.722      5.662
REMARK  Name = 
REMARK  4 active torsions:
REMARK  status: ('A' for Active; 'I' for Inactive)
REMARK    1  A    between atoms: C_4  and  C_5
REMARK    2  A    between atoms: C_7  and  N_8
REMARK    3  A    between atoms: N_8  and  C_9
REMARK    4  A    between atoms: N_8  and  C_12
REMARK                            x       y       z     vdW  Elec       q    Type
REMARK                         _______ _______ _______ _____ _____    ______ ____
ROOT
ATOM      1  C   UNL     1       4.276   5.399  18.680  0.00  0.00    +0.000 C 
ATOM      2  C   UNL     1       3.313   6.520  18.206  0.00  0.00    +0.000 C 
ATOM      3  C   UNL     1       2.371   6.785  19.359  0.00  0.00    +0.000 C 
ATOM      4  C   UNL     1       1.355   5.679  19.260  0.00  0.00    +0.000 C 
ATOM      5  C   UNL     1       2.167   4.532  19.789  0.00  0.00    +0.000 A 
ATOM      6  C   UNL     1       1.854   4.133  21.091  0.00  0.00    +0.000 A 
ATOM      7  C   UNL     1       2.454   3.036  21.627  0.00  0.00    +0.000 A 
ATOM      8  C   UNL     1       3.414   2.367  20.859  0.00  0.00    +0.000 A 
ATOM      9  C   UNL     1       3.971   2.974  19.703  0.00  0.00    +0.000 A 
ATOM     10  C   UNL     1       3.425   4.148  19.187  0.00  0.00    +0.000 A 
ENDROOT
BRANCH   1  14
ATOM     11  C   UNL     1       6.952   4.729  15.473  0.00  0.00    +0.000 A 
ATOM     12  C   UNL     1       5.798   5.486  15.283  0.00  0.00    +0.000 A 
ATOM     13  C   UNL     1       5.114   5.991  16.398  0.00  0.00    +0.000 A 
ATOM     14  C   UNL     1       5.491   5.687  17.749  0.00  0.00    +0.000 A 
ATOM     15  C   UNL     1       6.721   5.024  17.892  0.00  0.00    +0.000 A 
ATOM     16  C   UNL     1       7.426   4.547  16.774  0.00  0.00    +0.000 A 
ENDBRANCH   1  14
BRANCH   3  17
ATOM     17  N   UNL     1       1.991   8.173  19.606  0.00  0.00    +0.000 NA
BRANCH  17  18
ATOM     18  C   UNL     1       1.559   8.686  18.272  0.00  0.00    +0.000 C 
ATOM     19  C   UNL     1       0.650   9.815  17.970  0.00  0.00    +0.000 C 
ATOM     20  C   UNL     1       2.125  10.068  17.946  0.00  0.00    +0.000 C 
ENDBRANCH  17  18
BRANCH  17  21
ATOM     21  C   UNL     1       0.998   8.355  20.657  0.00  0.00    +0.000 C 
ATOM     22  C   UNL     1       1.472   8.724  22.054  0.00  0.00    +0.000 C 
ATOM     23  C   UNL     1       0.784   9.747  21.205  0.00  0.00    +0.000 C 
ENDBRANCH  17  21
ENDBRANCH   3  17
TORSDOF 4
ENDMDL
MODEL 6
REMARK VINA RESULT:      -7.1      1.795      5.250
REMARK  Name = 
REMARK  4 active torsions:
REMARK  status: ('A' for Active; 'I' for Inactive)
REMARK    1  A    between atoms: C_4  and  C_5
REMARK    2  A    between atoms: C_7  and  N_8
REMARK    3  A    between atoms: N_8  and  C_9
REMARK    4  A    between atoms: N_8  and  C_12
REMARK                            x       y       z     vdW  Elec       q    Type
REMARK                         _______ _______ _______ _____ _____    ______ ____
ROOT
ATOM      1  C   UNL     1       4.463   5.002  17.844  0.00  0.00    +0.000 C 
ATOM      2  C   UNL     1       3.631   6.240  17.418  0.00  0.00    +0.000 C 
ATOM      3  C   UNL     1       2.336   6.168  18.194  0.00  0.00    +0.000 C 
ATOM      4  C   UNL     1       1.507   5.174  17.427  0.00  0.00    +0.000 C 
ATOM      5  C   UNL     1       2.181   3.899  17.842  0.00  0.00    +0.000 A 
ATOM      6  C   UNL     1       1.478   3.131  18.774  0.00  0.00    +0.000 A 
ATOM      7  C   UNL     1       1.946   1.907  19.136  0.00  0.00    +0.000 A 
ATOM      8  C   UNL     1       3.161   1.476  18.589  0.00  0.00    +0.000 A 
ATOM      9  C   UNL     1       4.026   2.390  17.934  0.00  0.00    +0.000 A 
ATOM     10  C   UNL     1       3.594   3.681  17.630  0.00  0.00    +0.000 A 
ENDROOT
BRANCH   1  14
ATOM     11  C   UNL     1       8.009   7.227  18.454  0.00  0.00    +0.000 A 
ATOM     12  C   UNL     1       7.891   5.934  18.959  0.00  0.00    +0.000 A 
ATOM     13  C   UNL     1       6.885   5.091  18.467  0.00  0.00    +0.000 A 
ATOM     14  C   UNL     1       5.895   5.525  17.523  0.00  0.00    +0.000 A 
ATOM     15  C   UNL     1       6.124   6.789  16.955  0.00  0.00    +0.000 A 
ATOM     16  C   UNL     1       7.153   7.623  17.424  0.00  0.00    +0.000 A 
ENDBRANCH   1  14
BRANCH   3  17
ATOM     17  N   UNL     1       1.784   7.426  18.691  0.00  0.00    +0.000 NA
BRANCH  17  18
ATOM     18  C   UNL     1       2.169   7.459  20.134  0.00  0.00    +0.000 C 
ATOM     19  C   UNL     1       1.362   7.906  21.292  0.00  0.00    +0.000 C 
ATOM     20  C   UNL     1       1.409   6.442  20.985  0.00  0.00    +0.000 C 
ENDBRANCH  17  18
BRANCH  17  21
ATOM     21  C   UNL     1       2.191   8.608  17.945  0.00  0.00    +0.000 C 
ATOM     22  C   UNL     1       1.129   9.615  17.534  0.00  0.00    +0.000 C 
ATOM     23  C   UNL     1       2.095   9.953  18.627  0.00  0.00    +0.000 C 
ENDBRANCH  17  21
ENDBRANCH   3  17
TORSDOF 4
ENDMDL
MODEL 7
REMARK VINA RESULT:      -7.0      1.715      5.689
REMARK  Name = 
REMARK  4 active torsions:
REMARK  status: ('A' for Active; 'I' for Inactive)
REMARK    1  A    between atoms: C_4  and  C_5
REMARK    2  A    between atoms: C_7  and  N_8
REMARK    3  A    between atoms: N_8  and  C_9
REMARK    4  A    between atoms: N_8  and  C_12
REMARK                            x       y       z     vdW  Elec       q    Type
REMARK                         _______ _______ _______ _____ _____    ______ ____
ROOT
ATOM      1  C   UNL     1       4.150   5.179  18.827  0.00  0.00    +0.000 C 
ATOM      2  C   UNL     1       3.081   6.165  18.286  0.00  0.00    +0.000 C 
ATOM      3  C   UNL     1       2.065   6.337  19.393  0.00  0.00    +0.000 C 
ATOM      4  C   UNL     1       1.195   5.115  19.281  0.00  0.00    +0.000 C 
ATOM      5  C   UNL     1       2.115   4.086  19.871  0.00  0.00    +0.000 A 
ATOM      6  C   UNL     1       1.796   3.677  21.169  0.00  0.00    +0.000 A 
ATOM      7  C   UNL     1       2.499   2.672  21.755  0.00  0.00    +0.000 A 
ATOM      8  C   UNL     1       3.565   2.108  21.044  0.00  0.00    +0.000 A 
ATOM      9  C   UNL     1       4.094   2.756  19.897  0.00  0.00    +0.000 A 
ATOM     10  C   UNL     1       3.434   3.845  19.330  0.00  0.00    +0.000 A 
ENDROOT
BRANCH   1  14
ATOM     11  C   UNL     1       6.910   4.864  15.636  0.00  0.00    +0.000 A 
ATOM     12  C   UNL     1       5.717   5.565  15.471  0.00  0.00    +0.000 A 
ATOM     13  C   UNL     1       4.988   5.959  16.602  0.00  0.00    +0.000 A 
ATOM     14  C   UNL     1       5.361   5.593  17.938  0.00  0.00    +0.000 A 
ATOM     15  C   UNL     1       6.625   4.994  18.064  0.00  0.00    +0.000 A 
ATOM     16  C   UNL     1       7.373   4.628  16.932  0.00  0.00    +0.000 A 
ENDBRANCH   1  14
BRANCH   3  17
ATOM     17  N   UNL     1       1.511   7.674  19.591  0.00  0.00    +0.000 NA
BRANCH  17  18
ATOM     18  C   UNL     1       1.498   7.859  21.072  0.00  0.00    +0.000 C 
ATOM     19  C   UNL     1       1.323   9.112  21.842  0.00  0.00    +0.000 C 
ATOM     20  C   UNL     1       0.125   8.244  21.621  0.00  0.00    +0.000 C 
ENDBRANCH  17  18
BRANCH  17  21
ATOM     21  C   UNL     1       2.204   8.734  18.870  0.00  0.00    +0.000 C 
ATOM     22  C   UNL     1       1.710   9.120  17.485  0.00  0.00    +0.000 C 
ATOM     23  C   UNL     1       1.477  10.039  18.644  0.00  0.00    +0.000 C 
ENDBRANCH  17  21
ENDBRANCH   3  17
TORSDOF 4
ENDMDL
MODEL 8
REMARK VINA RESULT:      -7.0      1.847      5.392
REMARK  Name = 
REMARK  4 active torsions:
REMARK  status: ('A' for Active; 'I' for Inactive)
REMARK    1  A    between atoms: C_4  and  C_5
REMARK    2  A    between atoms: C_7  and  N_8
REMARK    3  A    between atoms: N_8  and  C_9
REMARK    4  A    between atoms: N_8  and  C_12
REMARK                            x       y       z     vdW  Elec       q    Type
REMARK                         _______ _______ _______ _____ _____    ______ ____
ROOT
ATOM      1  C   UNL     1       4.333   5.142  18.924  0.00  0.00    +0.000 C 
ATOM      2  C   UNL     1       3.312   6.135  18.307  0.00  0.00    +0.000 C 
ATOM      3  C   UNL     1       2.214   6.305  19.332  0.00  0.00    +0.000 C 
ATOM      4  C   UNL     1       1.351   5.085  19.146  0.00  0.00    +0.000 C 
ATOM      5  C   UNL     1       2.220   4.050  19.800  0.00  0.00    +0.000 A 
ATOM      6  C   UNL     1       1.799   3.636  21.066  0.00  0.00    +0.000 A 
ATOM      7  C   UNL     1       2.452   2.626  21.701  0.00  0.00    +0.000 A 
ATOM      8  C   UNL     1       3.568   2.062  21.072  0.00  0.00    +0.000 A 
ATOM      9  C   UNL     1       4.187   2.714  19.973  0.00  0.00    +0.000 A 
ATOM     10  C   UNL     1       3.576   3.808  19.362  0.00  0.00    +0.000 A 
ENDROOT
BRANCH   1  14
ATOM     11  C   UNL     1       7.836   7.369  18.105  0.00  0.00    +0.000 A 
ATOM     12  C   UNL     1       7.899   6.212  18.877  0.00  0.00    +0.000 A 
ATOM     13  C   UNL     1       6.829   5.307  18.852  0.00  0.00    +0.000 A 
ATOM     14  C   UNL     1       5.611   5.557  18.135  0.00  0.00    +0.000 A 
ATOM     15  C   UNL     1       5.639   6.672  17.281  0.00  0.00    +0.000 A 
ATOM     16  C   UNL     1       6.726   7.562  17.280  0.00  0.00    +0.000 A 
ENDBRANCH   1  14
BRANCH   3  17
ATOM     17  N   UNL     1       1.650   7.642  19.492  0.00  0.00    +0.000 NA
BRANCH  17  18
ATOM     18  C   UNL     1       1.626   7.863  20.969  0.00  0.00    +0.000 C 
ATOM     19  C   UNL     1       1.336   9.114  21.708  0.00  0.00    +0.000 C 
ATOM     20  C   UNL     1       0.225   8.131  21.516  0.00  0.00    +0.000 C 
ENDBRANCH  17  18
BRANCH  17  21
ATOM     21  C   UNL     1       2.340   8.688  18.750  0.00  0.00    +0.000 C 
ATOM     22  C   UNL     1       1.800   9.097  17.389  0.00  0.00    +0.000 C 
ATOM     23  C   UNL     1       1.640  10.014  18.563  0.00  0.00    +0.000 C 
ENDBRANCH  17  21
ENDBRANCH   3  17
TORSDOF 4
ENDMDL
MODEL 9
REMARK VINA RESULT:      -6.9      1.628      4.876
REMARK  Name = 
REMARK  4 active torsions:
REMARK  status: ('A' for Active; 'I' for Inactive)
REMARK    1  A    between atoms: C_4  and  C_5
REMARK    2  A    between atoms: C_7  and  N_8
REMARK    3  A    between atoms: N_8  and  C_9
REMARK    4  A    between atoms: N_8  and  C_12
REMARK                            x       y       z     vdW  Elec       q    Type
REMARK                         _______ _______ _______ _____ _____    ______ ____
ROOT
ATOM      1  C   UNL     1       3.422   6.688  18.292  0.00  0.00    +0.000 C 
ATOM      2  C   UNL     1       2.709   5.310  18.274  0.00  0.00    +0.000 C 
ATOM      3  C   UNL     1       3.741   4.293  18.706  0.00  0.00    +0.000 C 
ATOM      4  C   UNL     1       4.552   4.047  17.463  0.00  0.00    +0.000 C 
ATOM      5  C   UNL     1       5.365   5.308  17.428  0.00  0.00    +0.000 A 
ATOM      6  C   UNL     1       6.699   5.167  17.819  0.00  0.00    +0.000 A 
ATOM      7  C   UNL     1       7.550   6.223  17.722  0.00  0.00    +0.000 A 
ATOM      8  C   UNL     1       7.037   7.446  17.272  0.00  0.00    +0.000 A 
ATOM      9  C   UNL     1       5.636   7.668  17.218  0.00  0.00    +0.000 A 
ATOM     10  C   UNL     1       4.743   6.613  17.402  0.00  0.00    +0.000 A 
ENDROOT
BRANCH   1  14
ATOM     11  C   UNL     1       1.357  10.248  19.272  0.00  0.00    +0.000 A 
ATOM     12  C   UNL     1       1.816  10.032  17.974  0.00  0.00    +0.000 A 
ATOM     13  C   UNL     1       2.176   8.737  17.578  0.00  0.00    +0.000 A 
ATOM     14  C   UNL     1       2.186   7.619  18.477  0.00  0.00    +0.000 A 
ATOM     15  C   UNL     1       1.606   7.857  19.734  0.00  0.00    +0.000 A 
ATOM     16  C   UNL     1       1.213   9.149  20.122  0.00  0.00    +0.000 A 
ENDBRANCH   1  14
BRANCH   3  17
ATOM     17  N   UNL     1       3.288   3.206  19.570  0.00  0.00    +0.000 NA
BRANCH  17  18
ATOM     18  C   UNL     1       4.537   2.469  19.929  0.00  0.00    +0.000 C 
ATOM     19  C   UNL     1       4.716   1.400  20.939  0.00  0.00    +0.000 C 
ATOM     20  C   UNL     1       4.510   0.999  19.511  0.00  0.00    +0.000 C 
ENDBRANCH  17  18
BRANCH  17  21
ATOM     21  C   UNL     1       2.502   3.630  20.721  0.00  0.00    +0.000 C 
ATOM     22  C   UNL     1       0.986   3.654  20.601  0.00  0.00    +0.000 C 
ATOM     23  C   UNL     1       1.653   2.597  21.426  0.00  0.00    +0.000 C 
ENDBRANCH  17  21
ENDBRANCH   3  17
TORSDOF 4
ENDMDL
