MODEL 1
REMARK VINA RESULT:      -6.7      0.000      0.000
REMARK  Name = 
REMARK  11 active torsions:
REMARK  status: ('A' for Active; 'I' for Inactive)
REMARK    1  A    between atoms: C_1  and  C_2
REMARK    2  A    between atoms: C_2  and  C_3
REMARK    3  A    between atoms: C_3  and  C_4
REMARK    4  A    between atoms: C_3  and  N_5
REMARK    5  A    between atoms: C_7  and  C_8
REMARK    6  A    between atoms: N_11  and  C_12
REMARK    7  A    between atoms: C_12  and  C_13
REMARK    8  A    between atoms: C_16  and  N_17
REMARK    9  A    between atoms: C_18  and  C_20
REMARK   10  A    between atoms: C_24  and  C_25
REMARK   11  A    between atoms: C_27  and  C_28
REMARK                            x       y       z     vdW  Elec       q    Type
REMARK                         _______ _______ _______ _____ _____    ______ ____
ROOT
ATOM      1  N   UNL     1      -4.906  12.233  19.434  0.00  0.00    +0.000 N 
ATOM      2  N   UNL     1      -5.536  12.783  20.495  0.00  0.00    +0.000 NA
ATOM      3  C   UNL     1      -4.560  12.985  21.400  0.00  0.00    +0.000 A 
ATOM      4  C   UNL     1      -4.912  13.491  22.758  0.00  0.00    +0.000 C 
ATOM      5  C   UNL     1      -3.278  12.673  20.865  0.00  0.00    +0.000 A 
ATOM      6  C   UNL     1      -3.544  12.180  19.601  0.00  0.00    +0.000 A 
ATOM      7  N   UNL     1      -2.515  11.672  18.807  0.00  0.00    +0.000 N 
ATOM      8  C   UNL     1      -1.325  11.311  19.552  0.00  0.00    +0.000 C 
ATOM      9  O   UNL     1      -1.021  10.131  19.621  0.00  0.00    +0.000 OA
ATOM     10  C   UNL     1      -0.782  12.457  20.406  0.00  0.00    +0.000 C 
ATOM     11  C   UNL     1      -1.891  12.724  21.461  0.00  0.00    +0.000 C 
ENDROOT
BRANCH  11  12
ATOM     12  C   UNL     1      -1.742  14.043  22.215  0.00  0.00    +0.000 A 
ATOM     13  C   UNL     1      -2.008  15.303  21.637  0.00  0.00    +0.000 A 
ATOM     14  C   UNL     1      -1.944  16.470  22.396  0.00  0.00    +0.000 A 
ATOM     15  C   UNL     1      -1.582  16.401  23.733  0.00  0.00    +0.000 A 
ATOM     16  F   UNL     1      -1.552  17.516  24.468  0.00  0.00    +0.000 F 
ATOM     17  C   UNL     1      -1.261  15.177  24.324  0.00  0.00    +0.000 A 
ATOM     18  C   UNL     1      -1.338  14.009  23.566  0.00  0.00    +0.000 A 
ENDBRANCH  11  12
BRANCH  10  19
ATOM     19  N   UNL     1      -0.511  13.591  19.495  0.00  0.00    +0.000 N 
ATOM     20  C   UNL     1       0.742  14.179  19.451  0.00  0.00    +0.000 C 
ATOM     21  O   UNL     1       1.716  13.693  20.007  0.00  0.00    +0.000 OA
ATOM     22  H   UNL     1      -1.294  14.093  19.105  0.00  0.00    +0.000 HD
BRANCH  20  23
ATOM     23  C   UNL     1       0.823  15.481  18.716  0.00  0.00    +0.000 A 
ATOM     24  C   UNL     1       2.084  15.978  18.371  0.00  0.00    +0.000 A 
ATOM     25  C   UNL     1       2.209  17.275  17.874  0.00  0.00    +0.000 A 
ATOM     26  C   UNL     1       1.080  18.083  17.728  0.00  0.00    +0.000 A 
ATOM     27  C   UNL     1      -0.193  17.578  18.013  0.00  0.00    +0.000 A 
ATOM     28  C   UNL     1      -1.398  18.470  17.945  0.00  0.00    +0.000 C 
ATOM     29  C   UNL     1      -0.319  16.260  18.471  0.00  0.00    +0.000 A 
ENDBRANCH  20  23
ENDBRANCH  10  19
BRANCH   1  30
ATOM     30  C   UNL     1      -5.723  11.686  18.357  0.00  0.00    +0.000 C 
ATOM     31  C   UNL     1      -6.012  12.758  17.305  0.00  0.00    +0.000 C 
BRANCH  30  33
ATOM     32  C   UNL     1      -6.788   9.563  19.316  0.00  0.00    +0.000 C 
ATOM     33  C   UNL     1      -7.016  10.990  18.829  0.00  0.00    +0.000 C 
ENDBRANCH  30  33
ENDBRANCH   1  30
BRANCH   7  34
ATOM     34  C   UNL     1      -2.614  11.382  17.376  0.00  0.00    +0.000 C 
ATOM     35  C   UNL     1      -2.955   9.934  17.073  0.00  0.00    +0.000 C 
ENDBRANCH   7  34
TORSDOF 6
ENDMDL
MODEL 2
REMARK VINA RESULT:      -6.5      0.987      1.485
REMARK  Name = 
REMARK  11 active torsions:
REMARK  status: ('A' for Active; 'I' for Inactive)
REMARK    1  A    between atoms: C_1  and  C_2
REMARK    2  A    between atoms: C_2  and  C_3
REMARK    3  A    between atoms: C_3  and  C_4
REMARK    4  A    between atoms: C_3  and  N_5
REMARK    5  A    between atoms: C_7  and  C_8
REMARK    6  A    between atoms: N_11  and  C_12
REMARK    7  A    between atoms: C_12  and  C_13
REMARK    8  A    between atoms: C_16  and  N_17
REMARK    9  A    between atoms: C_18  and  C_20
REMARK   10  A    between atoms: C_24  and  C_25
REMARK   11  A    between atoms: C_27  and  C_28
REMARK                            x       y       z     vdW  Elec       q    Type
REMARK                         _______ _______ _______ _____ _____    ______ ____
ROOT
ATOM      1  N   UNL     1      -5.177  11.970  19.537  0.00  0.00    +0.000 N 
ATOM      2  N   UNL     1      -5.937  12.346  20.588  0.00  0.00    +0.000 NA
ATOM      3  C   UNL     1      -5.052  12.727  21.528  0.00  0.00    +0.000 A 
ATOM      4  C   UNL     1      -5.539  13.111  22.884  0.00  0.00    +0.000 C 
ATOM      5  C   UNL     1      -3.718  12.710  21.027  0.00  0.00    +0.000 A 
ATOM      6  C   UNL     1      -3.840  12.204  19.746  0.00  0.00    +0.000 A 
ATOM      7  N   UNL     1      -2.705  11.947  18.974  0.00  0.00    +0.000 N 
ATOM      8  C   UNL     1      -1.486  11.829  19.749  0.00  0.00    +0.000 C 
ATOM      9  O   UNL     1      -0.939  10.739  19.804  0.00  0.00    +0.000 OA
ATOM     10  C   UNL     1      -1.223  13.041  20.642  0.00  0.00    +0.000 C 
ATOM     11  C   UNL     1      -2.390  13.039  21.667  0.00  0.00    +0.000 C 
ENDROOT
BRANCH  11  12
ATOM     12  C   UNL     1      -2.547  14.338  22.451  0.00  0.00    +0.000 A 
ATOM     13  C   UNL     1      -3.240  15.466  21.959  0.00  0.00    +0.000 A 
ATOM     14  C   UNL     1      -3.432  16.595  22.752  0.00  0.00    +0.000 A 
ATOM     15  C   UNL     1      -2.906  16.632  24.035  0.00  0.00    +0.000 A 
ATOM     16  F   UNL     1      -3.117  17.702  24.806  0.00  0.00    +0.000 F 
ATOM     17  C   UNL     1      -2.169  15.556  24.535  0.00  0.00    +0.000 A 
ATOM     18  C   UNL     1      -1.990  14.421  23.745  0.00  0.00    +0.000 A 
ENDBRANCH  11  12
BRANCH  10  19
ATOM     19  N   UNL     1      -1.176  14.230  19.763  0.00  0.00    +0.000 N 
ATOM     20  C   UNL     1      -0.192  15.192  19.924  0.00  0.00    +0.000 C 
ATOM     21  O   UNL     1       0.773  15.027  20.656  0.00  0.00    +0.000 OA
ATOM     22  H   UNL     1      -1.998  14.466  19.228  0.00  0.00    +0.000 HD
BRANCH  20  23
ATOM     23  C   UNL     1      -0.407  16.473  19.180  0.00  0.00    +0.000 A 
ATOM     24  C   UNL     1      -1.603  17.169  19.378  0.00  0.00    +0.000 A 
ATOM     25  C   UNL     1      -1.925  18.248  18.555  0.00  0.00    +0.000 A 
ATOM     26  C   UNL     1      -1.060  18.631  17.528  0.00  0.00    +0.000 A 
ATOM     27  C   UNL     1       0.167  17.981  17.358  0.00  0.00    +0.000 A 
ATOM     28  C   UNL     1       1.058  18.328  16.201  0.00  0.00    +0.000 C 
ATOM     29  C   UNL     1       0.506  16.924  18.214  0.00  0.00    +0.000 A 
ENDBRANCH  20  23
ENDBRANCH  10  19
BRANCH   1  30
ATOM     30  C   UNL     1      -5.830  11.290  18.425  0.00  0.00    +0.000 C 
ATOM     31  C   UNL     1      -6.115  12.273  17.287  0.00  0.00    +0.000 C 
BRANCH  30  33
ATOM     32  C   UNL     1      -6.776   9.154  19.474  0.00  0.00    +0.000 C 
ATOM     33  C   UNL     1      -7.091  10.494  18.816  0.00  0.00    +0.000 C 
ENDBRANCH  30  33
ENDBRANCH   1  30
BRANCH   7  34
ATOM     34  C   UNL     1      -2.703  11.680  17.535  0.00  0.00    +0.000 C 
ATOM     35  C   UNL     1      -2.722  10.202  17.193  0.00  0.00    +0.000 C 
ENDBRANCH   7  34
TORSDOF 6
ENDMDL
MODEL 3
REMARK VINA RESULT:      -6.2      2.943      7.165
REMARK  Name = 
REMARK  11 active torsions:
REMARK  status: ('A' for Active; 'I' for Inactive)
REMARK    1  A    between atoms: C_1  and  C_2
REMARK    2  A    between atoms: C_2  and  C_3
REMARK    3  A    between atoms: C_3  and  C_4
REMARK    4  A    between atoms: C_3  and  N_5
REMARK    5  A    between atoms: C_7  and  C_8
REMARK    6  A    between atoms: N_11  and  C_12
REMARK    7  A    between atoms: C_12  and  C_13
REMARK    8  A    between atoms: C_16  and  N_17
REMARK    9  A    between atoms: C_18  and  C_20
REMARK   10  A    between atoms: C_24  and  C_25
REMARK   11  A    between atoms: C_27  and  C_28
REMARK                            x       y       z     vdW  Elec       q    Type
REMARK                         _______ _______ _______ _____ _____    ______ ____
ROOT
ATOM      1  N   UNL     1      -0.211  16.269  20.081  0.00  0.00    +0.000 N 
ATOM      2  N   UNL     1       0.896  15.504  19.961  0.00  0.00    +0.000 NA
ATOM      3  C   UNL     1       0.694  14.480  20.810  0.00  0.00    +0.000 A 
ATOM      4  C   UNL     1       1.777  13.477  21.022  0.00  0.00    +0.000 C 
ATOM      5  C   UNL     1      -0.608  14.527  21.386  0.00  0.00    +0.000 A 
ATOM      6  C   UNL     1      -1.155  15.702  20.901  0.00  0.00    +0.000 A 
ATOM      7  N   UNL     1      -2.407  16.135  21.340  0.00  0.00    +0.000 N 
ATOM      8  C   UNL     1      -2.828  15.533  22.590  0.00  0.00    +0.000 C 
ATOM      9  O   UNL     1      -2.921  16.249  23.574  0.00  0.00    +0.000 OA
ATOM     10  C   UNL     1      -2.808  14.005  22.558  0.00  0.00    +0.000 C 
ATOM     11  C   UNL     1      -1.310  13.633  22.380  0.00  0.00    +0.000 C 
ENDROOT
BRANCH  11  12
ATOM     12  C   UNL     1      -1.062  12.182  21.976  0.00  0.00    +0.000 A 
ATOM     13  C   UNL     1      -1.067  11.736  20.636  0.00  0.00    +0.000 A 
ATOM     14  C   UNL     1      -0.745  10.418  20.316  0.00  0.00    +0.000 A 
ATOM     15  C   UNL     1      -0.447   9.518  21.328  0.00  0.00    +0.000 A 
ATOM     16  F   UNL     1      -0.107   8.264  21.018  0.00  0.00    +0.000 F 
ATOM     17  C   UNL     1      -0.484   9.912  22.667  0.00  0.00    +0.000 A 
ATOM     18  C   UNL     1      -0.794  11.234  22.985  0.00  0.00    +0.000 A 
ENDBRANCH  11  12
BRANCH  10  19
ATOM     19  N   UNL     1      -3.685  13.580  21.445  0.00  0.00    +0.000 N 
ATOM     20  C   UNL     1      -4.829  12.837  21.689  0.00  0.00    +0.000 C 
ATOM     21  O   UNL     1      -5.265  12.655  22.816  0.00  0.00    +0.000 OA
ATOM     22  H   UNL     1      -3.319  13.607  20.505  0.00  0.00    +0.000 HD
BRANCH  20  23
ATOM     23  C   UNL     1      -5.477  12.227  20.485  0.00  0.00    +0.000 A 
ATOM     24  C   UNL     1      -6.647  11.481  20.661  0.00  0.00    +0.000 A 
ATOM     25  C   UNL     1      -7.159  10.732  19.602  0.00  0.00    +0.000 A 
ATOM     26  C   UNL     1      -6.504  10.717  18.369  0.00  0.00    +0.000 A 
ATOM     27  C   UNL     1      -5.367  11.505  18.163  0.00  0.00    +0.000 A 
ATOM     28  C   UNL     1      -4.608  11.422  16.871  0.00  0.00    +0.000 C 
ATOM     29  C   UNL     1      -4.879  12.290  19.217  0.00  0.00    +0.000 A 
ENDBRANCH  20  23
ENDBRANCH  10  19
BRANCH   1  30
ATOM     30  C   UNL     1      -0.209  17.585  19.452  0.00  0.00    +0.000 C 
ATOM     31  C   UNL     1      -0.523  17.467  17.960  0.00  0.00    +0.000 C 
BRANCH  30  33
ATOM     32  C   UNL     1       1.376  18.616  21.180  0.00  0.00    +0.000 C 
ATOM     33  C   UNL     1       1.071  18.408  19.700  0.00  0.00    +0.000 C 
ENDBRANCH  30  33
ENDBRANCH   1  30
BRANCH   7  34
ATOM     34  C   UNL     1      -3.205  17.190  20.715  0.00  0.00    +0.000 C 
ATOM     35  C   UNL     1      -4.590  16.734  20.295  0.00  0.00    +0.000 C 
ENDBRANCH   7  34
TORSDOF 6
ENDMDL
MODEL 4
REMARK VINA RESULT:      -6.1      2.874      7.476
REMARK  Name = 
REMARK  11 active torsions:
REMARK  status: ('A' for Active; 'I' for Inactive)
REMARK    1  A    between atoms: C_1  and  C_2
REMARK    2  A    between atoms: C_2  and  C_3
REMARK    3  A    between atoms: C_3  and  C_4
REMARK    4  A    between atoms: C_3  and  N_5
REMARK    5  A    between atoms: C_7  and  C_8
REMARK    6  A    between atoms: N_11  and  C_12
REMARK    7  A    between atoms: C_12  and  C_13
REMARK    8  A    between atoms: C_16  and  N_17
REMARK    9  A    between atoms: C_18  and  C_20
REMARK   10  A    between atoms: C_24  and  C_25
REMARK   11  A    between atoms: C_27  and  C_28
REMARK                            x       y       z     vdW  Elec       q    Type
REMARK                         _______ _______ _______ _____ _____    ______ ____
ROOT
ATOM      1  N   UNL     1       0.269  16.488  19.844  0.00  0.00    +0.000 N 
ATOM      2  N   UNL     1       0.944  15.902  18.832  0.00  0.00    +0.000 NA
ATOM      3  C   UNL     1       0.884  14.585  19.102  0.00  0.00    +0.000 A 
ATOM      4  C   UNL     1       1.625  13.623  18.237  0.00  0.00    +0.000 C 
ATOM      5  C   UNL     1       0.057  14.320  20.231  0.00  0.00    +0.000 A 
ATOM      6  C   UNL     1      -0.309  15.573  20.690  0.00  0.00    +0.000 A 
ATOM      7  N   UNL     1      -1.051  15.709  21.864  0.00  0.00    +0.000 N 
ATOM      8  C   UNL     1      -0.999  14.545  22.727  0.00  0.00    +0.000 C 
ATOM      9  O   UNL     1      -0.433  14.648  23.803  0.00  0.00    +0.000 OA
ATOM     10  C   UNL     1      -1.411  13.254  22.019  0.00  0.00    +0.000 C 
ATOM     11  C   UNL     1      -0.325  13.036  20.929  0.00  0.00    +0.000 C 
ENDROOT
BRANCH  11  12
ATOM     12  C   UNL     1      -0.694  12.006  19.866  0.00  0.00    +0.000 A 
ATOM     13  C   UNL     1      -1.720  12.200  18.916  0.00  0.00    +0.000 A 
ATOM     14  C   UNL     1      -1.956  11.266  17.909  0.00  0.00    +0.000 A 
ATOM     15  C   UNL     1      -1.194  10.109  17.854  0.00  0.00    +0.000 A 
ATOM     16  F   UNL     1      -1.398   9.229  16.870  0.00  0.00    +0.000 F 
ATOM     17  C   UNL     1      -0.205   9.859  18.808  0.00  0.00    +0.000 A 
ATOM     18  C   UNL     1       0.037  10.801  19.807  0.00  0.00    +0.000 A 
ENDBRANCH  11  12
BRANCH  10  19
ATOM     19  N   UNL     1      -2.779  13.461  21.493  0.00  0.00    +0.000 N 
ATOM     20  C   UNL     1      -3.857  12.782  22.036  0.00  0.00    +0.000 C 
ATOM     21  O   UNL     1      -3.770  12.133  23.068  0.00  0.00    +0.000 OA
ATOM     22  H   UNL     1      -2.887  13.892  20.587  0.00  0.00    +0.000 HD
BRANCH  20  23
ATOM     23  C   UNL     1      -5.130  12.850  21.252  0.00  0.00    +0.000 A 
ATOM     24  C   UNL     1      -6.294  13.273  21.901  0.00  0.00    +0.000 A 
ATOM     25  C   UNL     1      -7.529  13.153  21.264  0.00  0.00    +0.000 A 
ATOM     26  C   UNL     1      -7.608  12.603  19.983  0.00  0.00    +0.000 A 
ATOM     27  C   UNL     1      -6.446  12.231  19.300  0.00  0.00    +0.000 A 
ATOM     28  C   UNL     1      -6.533  11.555  17.962  0.00  0.00    +0.000 C 
ATOM     29  C   UNL     1      -5.202  12.392  19.926  0.00  0.00    +0.000 A 
ENDBRANCH  20  23
ENDBRANCH  10  19
BRANCH   1  30
ATOM     30  C   UNL     1       0.340  17.939  19.969  0.00  0.00    +0.000 C 
ATOM     31  C   UNL     1      -0.234  18.614  18.722  0.00  0.00    +0.000 C 
BRANCH  30  33
ATOM     32  C   UNL     1       2.342  17.844  21.563  0.00  0.00    +0.000 C 
ATOM     33  C   UNL     1       1.741  18.481  20.315  0.00  0.00    +0.000 C 
ENDBRANCH  30  33
ENDBRANCH   1  30
BRANCH   7  34
ATOM     34  C   UNL     1      -1.727  16.931  22.301  0.00  0.00    +0.000 C 
ATOM     35  C   UNL     1      -3.218  16.933  22.020  0.00  0.00    +0.000 C 
ENDBRANCH   7  34
TORSDOF 6
ENDMDL
MODEL 5
REMARK VINA RESULT:      -6.1      2.788      7.020
REMARK  Name = 
REMARK  11 active torsions:
REMARK  status: ('A' for Active; 'I' for Inactive)
REMARK    1  A    between atoms: C_1  and  C_2
REMARK    2  A    between atoms: C_2  and  C_3
REMARK    3  A    between atoms: C_3  and  C_4
REMARK    4  A    between atoms: C_3  and  N_5
REMARK    5  A    between atoms: C_7  and  C_8
REMARK    6  A    between atoms: N_11  and  C_12
REMARK    7  A    between atoms: C_12  and  C_13
REMARK    8  A    between atoms: C_16  and  N_17
REMARK    9  A    between atoms: C_18  and  C_20
REMARK   10  A    between atoms: C_24  and  C_25
REMARK   11  A    between atoms: C_27  and  C_28
REMARK                            x       y       z     vdW  Elec       q    Type
REMARK                         _______ _______ _______ _____ _____    ______ ____
ROOT
ATOM      1  N   UNL     1       0.398  16.028  19.557  0.00  0.00    +0.000 N 
ATOM      2  N   UNL     1       1.410  15.135  19.497  0.00  0.00    +0.000 NA
ATOM      3  C   UNL     1       1.115  14.225  20.444  0.00  0.00    +0.000 A 
ATOM      4  C   UNL     1       2.085  13.131  20.737  0.00  0.00    +0.000 C 
ATOM      5  C   UNL     1      -0.159  14.473  21.029  0.00  0.00    +0.000 A 
ATOM      6  C   UNL     1      -0.583  15.651  20.441  0.00  0.00    +0.000 A 
ATOM      7  N   UNL     1      -1.769  16.262  20.852  0.00  0.00    +0.000 N 
ATOM      8  C   UNL     1      -2.225  15.832  22.160  0.00  0.00    +0.000 C 
ATOM      9  O   UNL     1      -2.214  16.644  23.071  0.00  0.00    +0.000 OA
ATOM     10  C   UNL     1      -2.375  14.315  22.275  0.00  0.00    +0.000 C 
ATOM     11  C   UNL     1      -0.933  13.761  22.114  0.00  0.00    +0.000 C 
ENDROOT
BRANCH  11  12
ATOM     12  C   UNL     1      -0.857  12.261  21.849  0.00  0.00    +0.000 A 
ATOM     13  C   UNL     1      -0.806  11.701  20.554  0.00  0.00    +0.000 A 
ATOM     14  C   UNL     1      -0.646  10.329  20.369  0.00  0.00    +0.000 A 
ATOM     15  C   UNL     1      -0.569   9.491  21.471  0.00  0.00    +0.000 A 
ATOM     16  F   UNL     1      -0.383   8.181  21.294  0.00  0.00    +0.000 F 
ATOM     17  C   UNL     1      -0.669  10.005  22.766  0.00  0.00    +0.000 A 
ATOM     18  C   UNL     1      -0.815  11.379  22.949  0.00  0.00    +0.000 A 
ENDBRANCH  11  12
BRANCH  10  19
ATOM     19  N   UNL     1      -3.321  13.889  21.220  0.00  0.00    +0.000 N 
ATOM     20  C   UNL     1      -4.215  12.855  21.446  0.00  0.00    +0.000 C 
ATOM     21  O   UNL     1      -4.395  12.375  22.555  0.00  0.00    +0.000 OA
ATOM     22  H   UNL     1      -3.140  14.171  20.268  0.00  0.00    +0.000 HD
BRANCH  20  23
ATOM     23  C   UNL     1      -4.915  12.324  20.234  0.00  0.00    +0.000 A 
ATOM     24  C   UNL     1      -6.273  12.006  20.332  0.00  0.00    +0.000 A 
ATOM     25  C   UNL     1      -6.904  11.321  19.293  0.00  0.00    +0.000 A 
ATOM     26  C   UNL     1      -6.182  10.945  18.158  0.00  0.00    +0.000 A 
ATOM     27  C   UNL     1      -4.838  11.310  18.022  0.00  0.00    +0.000 A 
ATOM     28  C   UNL     1      -4.035  10.830  16.849  0.00  0.00    +0.000 C 
ATOM     29  C   UNL     1      -4.219  12.035  19.050  0.00  0.00    +0.000 A 
ENDBRANCH  20  23
ENDBRANCH  10  19
BRANCH   1  30
ATOM     30  C   UNL     1       0.530  17.269  18.804  0.00  0.00    +0.000 C 
ATOM     31  C   UNL     1       0.596  18.468  19.753  0.00  0.00    +0.000 C 
BRANCH  30  33
ATOM     32  C   UNL     1      -0.111  18.447  16.622  0.00  0.00    +0.000 C 
ATOM     33  C   UNL     1      -0.539  17.469  17.711  0.00  0.00    +0.000 C 
ENDBRANCH  30  33
ENDBRANCH   1  30
BRANCH   7  34
ATOM     34  C   UNL     1      -2.460  17.336  20.138  0.00  0.00    +0.000 C 
ATOM     35  C   UNL     1      -3.971  17.192  20.140  0.00  0.00    +0.000 C 
ENDBRANCH   7  34
TORSDOF 6
ENDMDL
MODEL 6
REMARK VINA RESULT:      -6.1      2.952      7.436
REMARK  Name = 
REMARK  11 active torsions:
REMARK  status: ('A' for Active; 'I' for Inactive)
REMARK    1  A    between atoms: C_1  and  C_2
REMARK    2  A    between atoms: C_2  and  C_3
REMARK    3  A    between atoms: C_3  and  C_4
REMARK    4  A    between atoms: C_3  and  N_5
REMARK    5  A    between atoms: C_7  and  C_8
REMARK    6  A    between atoms: N_11  and  C_12
REMARK    7  A    between atoms: C_12  and  C_13
REMARK    8  A    between atoms: C_16  and  N_17
REMARK    9  A    between atoms: C_18  and  C_20
REMARK   10  A    between atoms: C_24  and  C_25
REMARK   11  A    between atoms: C_27  and  C_28
REMARK                            x       y       z     vdW  Elec       q    Type
REMARK                         _______ _______ _______ _____ _____    ______ ____
ROOT
ATOM      1  N   UNL     1       0.444  15.959  20.134  0.00  0.00    +0.000 N 
ATOM      2  N   UNL     1       1.148  15.464  19.093  0.00  0.00    +0.000 NA
ATOM      3  C   UNL     1       0.937  14.136  19.141  0.00  0.00    +0.000 A 
ATOM      4  C   UNL     1       1.657  13.242  18.189  0.00  0.00    +0.000 C 
ATOM      5  C   UNL     1      -0.010  13.793  20.148  0.00  0.00    +0.000 A 
ATOM      6  C   UNL     1      -0.294  14.993  20.775  0.00  0.00    +0.000 A 
ATOM      7  N   UNL     1      -1.123  15.028  21.897  0.00  0.00    +0.000 N 
ATOM      8  C   UNL     1      -1.261  13.748  22.562  0.00  0.00    +0.000 C 
ATOM      9  O   UNL     1      -0.788  13.622  23.680  0.00  0.00    +0.000 OA
ATOM     10  C   UNL     1      -1.730  12.634  21.626  0.00  0.00    +0.000 C 
ATOM     11  C   UNL     1      -0.576  12.467  20.599  0.00  0.00    +0.000 C 
ENDROOT
BRANCH  11  12
ATOM     12  C   UNL     1      -0.944  11.659  19.359  0.00  0.00    +0.000 A 
ATOM     13  C   UNL     1      -0.326  10.437  19.013  0.00  0.00    +0.000 A 
ATOM     14  C   UNL     1      -0.762   9.694  17.918  0.00  0.00    +0.000 A 
ATOM     15  C   UNL     1      -1.800  10.173  17.132  0.00  0.00    +0.000 A 
ATOM     16  F   UNL     1      -2.240   9.445  16.103  0.00  0.00    +0.000 F 
ATOM     17  C   UNL     1      -2.400  11.402  17.414  0.00  0.00    +0.000 A 
ATOM     18  C   UNL     1      -1.970  12.138  18.517  0.00  0.00    +0.000 A 
ENDBRANCH  11  12
BRANCH  10  19
ATOM     19  N   UNL     1      -3.018  13.067  21.041  0.00  0.00    +0.000 N 
ATOM     20  C   UNL     1      -4.217  12.763  21.664  0.00  0.00    +0.000 C 
ATOM     21  O   UNL     1      -4.270  12.295  22.791  0.00  0.00    +0.000 OA
ATOM     22  H   UNL     1      -3.036  13.353  20.073  0.00  0.00    +0.000 HD
BRANCH  20  23
ATOM     23  C   UNL     1      -5.451  12.997  20.849  0.00  0.00    +0.000 A 
ATOM     24  C   UNL     1      -6.363  11.948  20.698  0.00  0.00    +0.000 A 
ATOM     25  C   UNL     1      -7.411  12.063  19.784  0.00  0.00    +0.000 A 
ATOM     26  C   UNL     1      -7.548  13.220  19.015  0.00  0.00    +0.000 A 
ATOM     27  C   UNL     1      -6.679  14.300  19.200  0.00  0.00    +0.000 A 
ATOM     28  C   UNL     1      -6.766  15.507  18.312  0.00  0.00    +0.000 C 
ATOM     29  C   UNL     1      -5.653  14.198  20.149  0.00  0.00    +0.000 A 
ENDBRANCH  20  23
ENDBRANCH  10  19
BRANCH   1  30
ATOM     30  C   UNL     1       0.642  17.357  20.496  0.00  0.00    +0.000 C 
ATOM     31  C   UNL     1       0.874  18.208  19.247  0.00  0.00    +0.000 C 
BRANCH  30  33
ATOM     32  C   UNL     1       3.116  17.838  20.950  0.00  0.00    +0.000 C 
ATOM     33  C   UNL     1       1.739  17.591  21.555  0.00  0.00    +0.000 C 
ENDBRANCH  30  33
ENDBRANCH   1  30
BRANCH   7  34
ATOM     34  C   UNL     1      -1.714  16.236  22.475  0.00  0.00    +0.000 C 
ATOM     35  C   UNL     1      -3.019  16.646  21.817  0.00  0.00    +0.000 C 
ENDBRANCH   7  34
TORSDOF 6
ENDMDL
MODEL 7
REMARK VINA RESULT:      -6.1      2.752      6.354
REMARK  Name = 
REMARK  11 active torsions:
REMARK  status: ('A' for Active; 'I' for Inactive)
REMARK    1  A    between atoms: C_1  and  C_2
REMARK    2  A    between atoms: C_2  and  C_3
REMARK    3  A    between atoms: C_3  and  C_4
REMARK    4  A    between atoms: C_3  and  N_5
REMARK    5  A    between atoms: C_7  and  C_8
REMARK    6  A    between atoms: N_11  and  C_12
REMARK    7  A    between atoms: C_12  and  C_13
REMARK    8  A    between atoms: C_16  and  N_17
REMARK    9  A    between atoms: C_18  and  C_20
REMARK   10  A    between atoms: C_24  and  C_25
REMARK   11  A    between atoms: C_27  and  C_28
REMARK                            x       y       z     vdW  Elec       q    Type
REMARK                         _______ _______ _______ _____ _____    ______ ____
ROOT
ATOM      1  N   UNL     1      -1.648  15.081  23.597  0.00  0.00    +0.000 N 
ATOM      2  N   UNL     1      -0.786  16.072  23.284  0.00  0.00    +0.000 NA
ATOM      3  C   UNL     1       0.187  15.465  22.579  0.00  0.00    +0.000 A 
ATOM      4  C   UNL     1       1.383  16.247  22.153  0.00  0.00    +0.000 C 
ATOM      5  C   UNL     1      -0.120  14.095  22.336  0.00  0.00    +0.000 A 
ATOM      6  C   UNL     1      -1.304  13.883  23.019  0.00  0.00    +0.000 A 
ATOM      7  N   UNL     1      -1.863  12.606  23.089  0.00  0.00    +0.000 N 
ATOM      8  C   UNL     1      -0.922  11.540  22.805  0.00  0.00    +0.000 C 
ATOM      9  O   UNL     1      -0.614  10.783  23.712  0.00  0.00    +0.000 OA
ATOM     10  C   UNL     1      -0.216  11.706  21.459  0.00  0.00    +0.000 C 
ATOM     11  C   UNL     1       0.629  13.001  21.613  0.00  0.00    +0.000 C 
ENDROOT
BRANCH  11  12
ATOM     12  C   UNL     1       1.157  13.571  20.300  0.00  0.00    +0.000 A 
ATOM     13  C   UNL     1       0.366  14.320  19.402  0.00  0.00    +0.000 A 
ATOM     14  C   UNL     1       0.921  14.895  18.260  0.00  0.00    +0.000 A 
ATOM     15  C   UNL     1       2.265  14.704  17.979  0.00  0.00    +0.000 A 
ATOM     16  F   UNL     1       2.804  15.281  16.902  0.00  0.00    +0.000 F 
ATOM     17  C   UNL     1       3.066  13.925  18.817  0.00  0.00    +0.000 A 
ATOM     18  C   UNL     1       2.511  13.361  19.966  0.00  0.00    +0.000 A 
ENDBRANCH  11  12
BRANCH  10  19
ATOM     19  N   UNL     1      -1.267  11.775  20.420  0.00  0.00    +0.000 N 
ATOM     20  C   UNL     1      -1.379  10.782  19.460  0.00  0.00    +0.000 C 
ATOM     21  O   UNL     1      -0.756   9.733  19.525  0.00  0.00    +0.000 OA
ATOM     22  H   UNL     1      -1.726  12.658  20.256  0.00  0.00    +0.000 HD
BRANCH  20  23
ATOM     23  C   UNL     1      -2.279  11.094  18.305  0.00  0.00    +0.000 A 
ATOM     24  C   UNL     1      -3.471  11.781  18.551  0.00  0.00    +0.000 A 
ATOM     25  C   UNL     1      -4.424  11.906  17.540  0.00  0.00    +0.000 A 
ATOM     26  C   UNL     1      -4.195  11.340  16.285  0.00  0.00    +0.000 A 
ATOM     27  C   UNL     1      -2.982  10.702  16.007  0.00  0.00    +0.000 A 
ATOM     28  C   UNL     1      -2.768  10.013  14.691  0.00  0.00    +0.000 C 
ATOM     29  C   UNL     1      -2.009  10.616  17.012  0.00  0.00    +0.000 A 
ENDBRANCH  20  23
ENDBRANCH  10  19
BRANCH   1  30
ATOM     30  C   UNL     1      -2.709  15.369  24.554  0.00  0.00    +0.000 C 
ATOM     31  C   UNL     1      -3.883  16.064  23.863  0.00  0.00    +0.000 C 
BRANCH  30  33
ATOM     32  C   UNL     1      -0.910  15.656  26.354  0.00  0.00    +0.000 C 
ATOM     33  C   UNL     1      -2.246  16.144  25.804  0.00  0.00    +0.000 C 
ENDBRANCH  30  33
ENDBRANCH   1  30
BRANCH   7  34
ATOM     34  C   UNL     1      -3.224  12.300  23.533  0.00  0.00    +0.000 C 
ATOM     35  C   UNL     1      -4.289  12.672  22.518  0.00  0.00    +0.000 C 
ENDBRANCH   7  34
TORSDOF 6
ENDMDL
MODEL 8
REMARK VINA RESULT:      -6.0      3.241      7.259
REMARK  Name = 
REMARK  11 active torsions:
REMARK  status: ('A' for Active; 'I' for Inactive)
REMARK    1  A    between atoms: C_1  and  C_2
REMARK    2  A    between atoms: C_2  and  C_3
REMARK    3  A    between atoms: C_3  and  C_4
REMARK    4  A    between atoms: C_3  and  N_5
REMARK    5  A    between atoms: C_7  and  C_8
REMARK    6  A    between atoms: N_11  and  C_12
REMARK    7  A    between atoms: C_12  and  C_13
REMARK    8  A    between atoms: C_16  and  N_17
REMARK    9  A    between atoms: C_18  and  C_20
REMARK   10  A    between atoms: C_24  and  C_25
REMARK   11  A    between atoms: C_27  and  C_28
REMARK                            x       y       z     vdW  Elec       q    Type
REMARK                         _______ _______ _______ _____ _____    ______ ____
ROOT
ATOM      1  N   UNL     1       2.307  16.277  22.218  0.00  0.00    +0.000 N 
ATOM      2  N   UNL     1       1.645  16.393  23.389  0.00  0.00    +0.000 NA
ATOM      3  C   UNL     1       0.379  16.042  23.099  0.00  0.00    +0.000 A 
ATOM      4  C   UNL     1      -0.674  16.156  24.149  0.00  0.00    +0.000 C 
ATOM      5  C   UNL     1       0.259  15.579  21.757  0.00  0.00    +0.000 A 
ATOM      6  C   UNL     1       1.520  15.758  21.219  0.00  0.00    +0.000 A 
ATOM      7  N   UNL     1       1.756  15.502  19.867  0.00  0.00    +0.000 N 
ATOM      8  C   UNL     1       0.555  15.485  19.056  0.00  0.00    +0.000 C 
ATOM      9  O   UNL     1       0.404  16.369  18.227  0.00  0.00    +0.000 OA
ATOM     10  C   UNL     1      -0.505  14.513  19.574  0.00  0.00    +0.000 C 
ATOM     11  C   UNL     1      -0.923  15.083  20.958  0.00  0.00    +0.000 C 
ENDROOT
BRANCH  11  12
ATOM     12  C   UNL     1      -1.715  14.112  21.828  0.00  0.00    +0.000 A 
ATOM     13  C   UNL     1      -1.138  13.002  22.482  0.00  0.00    +0.000 A 
ATOM     14  C   UNL     1      -1.889  12.199  23.338  0.00  0.00    +0.000 A 
ATOM     15  C   UNL     1      -3.235  12.472  23.530  0.00  0.00    +0.000 A 
ATOM     16  F   UNL     1      -3.947  11.722  24.376  0.00  0.00    +0.000 F 
ATOM     17  C   UNL     1      -3.852  13.530  22.860  0.00  0.00    +0.000 A 
ATOM     18  C   UNL     1      -3.096  14.340  22.013  0.00  0.00    +0.000 A 
ENDBRANCH  11  12
BRANCH  10  19
ATOM     19  N   UNL     1       0.118  13.172  19.622  0.00  0.00    +0.000 N 
ATOM     20  C   UNL     1      -0.390  12.127  18.867  0.00  0.00    +0.000 C 
ATOM     21  O   UNL     1      -1.240  12.294  18.005  0.00  0.00    +0.000 OA
ATOM     22  H   UNL     1       0.740  12.957  20.387  0.00  0.00    +0.000 HD
BRANCH  20  23
ATOM     23  C   UNL     1       0.132  10.766  19.206  0.00  0.00    +0.000 A 
ATOM     24  C   UNL     1      -0.094  10.263  20.491  0.00  0.00    +0.000 A 
ATOM     25  C   UNL     1       0.550   9.097  20.905  0.00  0.00    +0.000 A 
ATOM     26  C   UNL     1       1.426   8.434  20.044  0.00  0.00    +0.000 A 
ATOM     27  C   UNL     1       1.615   8.894  18.736  0.00  0.00    +0.000 A 
ATOM     28  C   UNL     1       2.625   8.240  17.839  0.00  0.00    +0.000 C 
ATOM     29  C   UNL     1       0.934  10.042  18.309  0.00  0.00    +0.000 A 
ENDBRANCH  20  23
ENDBRANCH  10  19
BRANCH   1  30
ATOM     30  C   UNL     1       3.665  16.801  22.140  0.00  0.00    +0.000 C 
ATOM     31  C   UNL     1       4.377  16.650  23.485  0.00  0.00    +0.000 C 
BRANCH  30  33
ATOM     32  C   UNL     1       5.116  18.569  20.987  0.00  0.00    +0.000 C 
ATOM     33  C   UNL     1       3.761  18.245  21.606  0.00  0.00    +0.000 C 
ENDBRANCH  30  33
ENDBRANCH   1  30
BRANCH   7  34
ATOM     34  C   UNL     1       3.076  15.387  19.246  0.00  0.00    +0.000 C 
ATOM     35  C   UNL     1       3.259  14.111  18.443  0.00  0.00    +0.000 C 
ENDBRANCH   7  34
TORSDOF 6
ENDMDL
MODEL 9
REMARK VINA RESULT:      -5.9      1.683      2.450
REMARK  Name = 
REMARK  11 active torsions:
REMARK  status: ('A' for Active; 'I' for Inactive)
REMARK    1  A    between atoms: C_1  and  C_2
REMARK    2  A    between atoms: C_2  and  C_3
REMARK    3  A    between atoms: C_3  and  C_4
REMARK    4  A    between atoms: C_3  and  N_5
REMARK    5  A    between atoms: C_7  and  C_8
REMARK    6  A    between atoms: N_11  and  C_12
REMARK    7  A    between atoms: C_12  and  C_13
REMARK    8  A    between atoms: C_16  and  N_17
REMARK    9  A    between atoms: C_18  and  C_20
REMARK   10  A    between atoms: C_24  and  C_25
REMARK   11  A    between atoms: C_27  and  C_28
REMARK                            x       y       z     vdW  Elec       q    Type
REMARK                         _______ _______ _______ _____ _____    ______ ____
ROOT
ATOM      1  N   UNL     1      -3.183  11.526  18.558  0.00  0.00    +0.000 N 
ATOM      2  N   UNL     1      -4.098  12.372  19.081  0.00  0.00    +0.000 NA
ATOM      3  C   UNL     1      -3.536  12.816  20.221  0.00  0.00    +0.000 A 
ATOM      4  C   UNL     1      -4.319  13.701  21.129  0.00  0.00    +0.000 C 
ATOM      5  C   UNL     1      -2.200  12.343  20.364  0.00  0.00    +0.000 A 
ATOM      6  C   UNL     1      -2.015  11.505  19.280  0.00  0.00    +0.000 A 
ATOM      7  N   UNL     1      -0.834  10.772  19.144  0.00  0.00    +0.000 N 
ATOM      8  C   UNL     1      -0.089  10.629  20.379  0.00  0.00    +0.000 C 
ATOM      9  O   UNL     1       0.004   9.516  20.872  0.00  0.00    +0.000 OA
ATOM     10  C   UNL     1       0.224  11.967  21.049  0.00  0.00    +0.000 C 
ATOM     11  C   UNL     1      -1.163  12.547  21.443  0.00  0.00    +0.000 C 
ENDROOT
BRANCH  11  12
ATOM     12  C   UNL     1      -1.147  14.026  21.817  0.00  0.00    +0.000 A 
ATOM     13  C   UNL     1      -1.164  15.070  20.867  0.00  0.00    +0.000 A 
ATOM     14  C   UNL     1      -1.239  16.403  21.264  0.00  0.00    +0.000 A 
ATOM     15  C   UNL     1      -1.266  16.718  22.614  0.00  0.00    +0.000 A 
ATOM     16  F   UNL     1      -1.371  17.994  22.994  0.00  0.00    +0.000 F 
ATOM     17  C   UNL     1      -1.197  15.714  23.583  0.00  0.00    +0.000 A 
ATOM     18  C   UNL     1      -1.134  14.379  23.183  0.00  0.00    +0.000 A 
ENDBRANCH  11  12
BRANCH  10  19
ATOM     19  N   UNL     1       0.977  12.781  20.070  0.00  0.00    +0.000 N 
ATOM     20  C   UNL     1       2.101  13.493  20.456  0.00  0.00    +0.000 C 
ATOM     21  O   UNL     1       2.625  13.348  21.550  0.00  0.00    +0.000 OA
ATOM     22  H   UNL     1       0.531  13.020  19.197  0.00  0.00    +0.000 HD
BRANCH  20  23
ATOM     23  C   UNL     1       2.609  14.494  19.465  0.00  0.00    +0.000 A 
ATOM     24  C   UNL     1       3.984  14.554  19.220  0.00  0.00    +0.000 A 
ATOM     25  C   UNL     1       4.510  15.603  18.465  0.00  0.00    +0.000 A 
ATOM     26  C   UNL     1       3.670  16.597  17.961  0.00  0.00    +0.000 A 
ATOM     27  C   UNL     1       2.286  16.516  18.149  0.00  0.00    +0.000 A 
ATOM     28  C   UNL     1       1.390  17.628  17.688  0.00  0.00    +0.000 C 
ATOM     29  C   UNL     1       1.756  15.438  18.871  0.00  0.00    +0.000 A 
ENDBRANCH  20  23
ENDBRANCH  10  19
BRANCH   1  30
ATOM     30  C   UNL     1      -3.580  10.699  17.425  0.00  0.00    +0.000 C 
ATOM     31  C   UNL     1      -3.575   9.220  17.812  0.00  0.00    +0.000 C 
BRANCH  30  33
ATOM     32  C   UNL     1      -3.387  10.308  14.901  0.00  0.00    +0.000 C 
ATOM     33  C   UNL     1      -2.769  10.952  16.137  0.00  0.00    +0.000 C 
ENDBRANCH  30  33
ENDBRANCH   1  30
BRANCH   7  34
ATOM     34  C   UNL     1      -0.404  10.078  17.930  0.00  0.00    +0.000 C 
ATOM     35  C   UNL     1       1.077   9.750  17.911  0.00  0.00    +0.000 C 
ENDBRANCH   7  34
TORSDOF 6
ENDMDL
