MODEL 1
REMARK VINA RESULT:      -8.5      0.000      0.000
REMARK  Name = 
REMARK  6 active torsions:
REMARK  status: ('A' for Active; 'I' for Inactive)
REMARK    1  A    between atoms: C_1  and  O_2
REMARK    2  A    between atoms: O_2  and  C_3
REMARK    3  A    between atoms: C_6  and  C_7
REMARK    4  A    between atoms: C_8  and  C_9
REMARK    5  A    between atoms: C_12  and  S_13
REMARK    6  A    between atoms: S_13  and  C_14
REMARK                            x       y       z     vdW  Elec       q    Type
REMARK                         _______ _______ _______ _____ _____    ______ ____
ROOT
ATOM      1  C   UNL     1       2.775   5.804  18.160  0.00  0.00    +0.000 C 
ATOM      2  C   UNL     1       4.059   5.378  18.322  0.00  0.00    +0.000 C 
ATOM      3  C   UNL     1       4.357   4.416  19.491  0.00  0.00    +0.000 C 
ATOM      4  C   UNL     1       3.069   4.050  20.233  0.00  0.00    +0.000 C 
ATOM      5  C   UNL     1       3.043   2.719  20.963  0.00  0.00    +0.000 C 
ATOM      6  C   UNL     1       1.536   2.420  21.086  0.00  0.00    +0.000 C 
ATOM      7  C   UNL     1       0.874   3.180  19.936  0.00  0.00    +0.000 C 
ATOM      8  N   UNL     1       1.970   3.869  19.309  0.00  0.00    +0.000 N 
ATOM      9  C   UNL     1       1.841   4.618  18.169  0.00  0.00    +0.000 C 
ATOM     10  O   UNL     1       0.969   4.468  17.317  0.00  0.00    +0.000 OA
ENDROOT
BRANCH   1  14
ATOM     11  C   UNL     1       1.247   9.167  20.405  0.00  0.00    +0.000 A 
ATOM     12  C   UNL     1       1.232   7.890  20.978  0.00  0.00    +0.000 A 
ATOM     13  C   UNL     1       1.721   6.788  20.270  0.00  0.00    +0.000 A 
ATOM     14  C   UNL     1       2.192   6.938  18.961  0.00  0.00    +0.000 A 
ATOM     15  C   UNL     1       2.080   8.212  18.360  0.00  0.00    +0.000 A 
ATOM     16  C   UNL     1       1.599   9.313  19.069  0.00  0.00    +0.000 A 
ATOM     17 BR   UNL     1       1.499  10.986  18.178  0.00  0.00    +0.000 Br
BRANCH  11  19
ATOM     18  C   UNL     1       0.097   9.956  22.252  0.00  0.00    +0.000 C 
ATOM     19  O   UNL     1       0.943  10.279  21.146  0.00  0.00    +0.000 OA
ENDBRANCH  11  19
ENDBRANCH   1  14
BRANCH   2  20
ATOM     20  C   UNL     1       4.889   5.140  17.088  0.00  0.00    +0.000 A 
ATOM     21  C   UNL     1       5.207   6.179  16.199  0.00  0.00    +0.000 A 
ATOM     22  C   UNL     1       5.842   5.925  14.974  0.00  0.00    +0.000 A 
ATOM     23  C   UNL     1       6.204   4.627  14.603  0.00  0.00    +0.000 A 
ATOM     24  C   UNL     1       5.963   3.595  15.509  0.00  0.00    +0.000 A 
ATOM     25  C   UNL     1       5.333   3.852  16.740  0.00  0.00    +0.000 A 
BRANCH  23  26
ATOM     26  S   UNL     1       6.860   4.400  12.956  0.00  0.00    +0.000 S 
ATOM     27  C   UNL     1       5.719   3.203  12.220  0.00  0.00    +0.000 C 
ENDBRANCH  23  26
ENDBRANCH   2  20
TORSDOF 4
ENDMDL
MODEL 2
REMARK VINA RESULT:      -8.4      4.093      6.784
REMARK  Name = 
REMARK  6 active torsions:
REMARK  status: ('A' for Active; 'I' for Inactive)
REMARK    1  A    between atoms: C_1  and  O_2
REMARK    2  A    between atoms: O_2  and  C_3
REMARK    3  A    between atoms: C_6  and  C_7
REMARK    4  A    between atoms: C_8  and  C_9
REMARK    5  A    between atoms: C_12  and  S_13
REMARK    6  A    between atoms: S_13  and  C_14
REMARK                            x       y       z     vdW  Elec       q    Type
REMARK                         _______ _______ _______ _____ _____    ______ ____
ROOT
ATOM      1  C   UNL     1       0.344  10.045  19.269  0.00  0.00    +0.000 C 
ATOM      2  C   UNL     1       1.365   9.719  18.428  0.00  0.00    +0.000 C 
ATOM      3  C   UNL     1       2.229  10.868  17.866  0.00  0.00    +0.000 C 
ATOM      4  C   UNL     1       1.792  12.212  18.455  0.00  0.00    +0.000 C 
ATOM      5  C   UNL     1       2.838  13.312  18.524  0.00  0.00    +0.000 C 
ATOM      6  C   UNL     1       2.286  14.246  19.619  0.00  0.00    +0.000 C 
ATOM      7  C   UNL     1       1.399  13.365  20.499  0.00  0.00    +0.000 C 
ATOM      8  N   UNL     1       1.451  12.080  19.855  0.00  0.00    +0.000 N 
ATOM      9  C   UNL     1       0.854  10.955  20.360  0.00  0.00    +0.000 C 
ATOM     10  O   UNL     1       0.599  10.759  21.546  0.00  0.00    +0.000 OA
ENDROOT
BRANCH   1  14
ATOM     11  C   UNL     1      -3.416  11.460  17.672  0.00  0.00    +0.000 A 
ATOM     12  C   UNL     1      -3.056  11.787  18.985  0.00  0.00    +0.000 A 
ATOM     13  C   UNL     1      -1.845  11.340  19.522  0.00  0.00    +0.000 A 
ATOM     14  C   UNL     1      -0.995  10.522  18.771  0.00  0.00    +0.000 A 
ATOM     15  C   UNL     1      -1.437  10.103  17.495  0.00  0.00    +0.000 A 
ATOM     16  C   UNL     1      -2.642  10.555  16.956  0.00  0.00    +0.000 A 
ATOM     17 BR   UNL     1      -3.143   9.945  15.231  0.00  0.00    +0.000 Br
BRANCH  11  19
ATOM     18  C   UNL     1      -5.728  11.554  17.635  0.00  0.00    +0.000 C 
ATOM     19  O   UNL     1      -4.505  12.036  17.073  0.00  0.00    +0.000 OA
ENDBRANCH  11  19
ENDBRANCH   1  14
BRANCH   2  20
ATOM     20  C   UNL     1       2.115   8.440  18.684  0.00  0.00    +0.000 A 
ATOM     21  C   UNL     1       3.026   7.917  17.752  0.00  0.00    +0.000 A 
ATOM     22  C   UNL     1       3.600   6.649  17.923  0.00  0.00    +0.000 A 
ATOM     23  C   UNL     1       3.305   5.866  19.043  0.00  0.00    +0.000 A 
ATOM     24  C   UNL     1       2.462   6.404  20.014  0.00  0.00    +0.000 A 
ATOM     25  C   UNL     1       1.892   7.679  19.845  0.00  0.00    +0.000 A 
BRANCH  23  26
ATOM     26  S   UNL     1       3.967   4.206  19.079  0.00  0.00    +0.000 S 
ATOM     27  C   UNL     1       4.194   3.816  17.325  0.00  0.00    +0.000 C 
ENDBRANCH  23  26
ENDBRANCH   2  20
TORSDOF 4
ENDMDL
MODEL 3
REMARK VINA RESULT:      -8.3      4.103      6.741
REMARK  Name = 
REMARK  6 active torsions:
REMARK  status: ('A' for Active; 'I' for Inactive)
REMARK    1  A    between atoms: C_1  and  O_2
REMARK    2  A    between atoms: O_2  and  C_3
REMARK    3  A    between atoms: C_6  and  C_7
REMARK    4  A    between atoms: C_8  and  C_9
REMARK    5  A    between atoms: C_12  and  S_13
REMARK    6  A    between atoms: S_13  and  C_14
REMARK                            x       y       z     vdW  Elec       q    Type
REMARK                         _______ _______ _______ _____ _____    ______ ____
ROOT
ATOM      1  C   UNL     1       0.220   9.876  19.041  0.00  0.00    +0.000 C 
ATOM      2  C   UNL     1       1.307   9.694  18.238  0.00  0.00    +0.000 C 
ATOM      3  C   UNL     1       2.168  10.929  17.902  0.00  0.00    +0.000 C 
ATOM      4  C   UNL     1       1.649  12.168  18.637  0.00  0.00    +0.000 C 
ATOM      5  C   UNL     1       2.651  13.271  18.931  0.00  0.00    +0.000 C 
ATOM      6  C   UNL     1       1.997  14.031  20.102  0.00  0.00    +0.000 C 
ATOM      7  C   UNL     1       1.082  13.016  20.788  0.00  0.00    +0.000 C 
ATOM      8  N   UNL     1       1.219  11.835  19.978  0.00  0.00    +0.000 N 
ATOM      9  C   UNL     1       0.626  10.637  20.280  0.00  0.00    +0.000 C 
ATOM     10  O   UNL     1       0.298  10.272  21.406  0.00  0.00    +0.000 OA
ENDROOT
BRANCH   1  14
ATOM     11  C   UNL     1      -3.471  11.394  17.380  0.00  0.00    +0.000 A 
ATOM     12  C   UNL     1      -3.149  11.668  18.714  0.00  0.00    +0.000 A 
ATOM     13  C   UNL     1      -1.961  11.188  19.272  0.00  0.00    +0.000 A 
ATOM     14  C   UNL     1      -1.096  10.387  18.518  0.00  0.00    +0.000 A 
ATOM     15  C   UNL     1      -1.502  10.019  17.216  0.00  0.00    +0.000 A 
ATOM     16  C   UNL     1      -2.684  10.505  16.656  0.00  0.00    +0.000 A 
ATOM     17 BR   UNL     1      -3.138   9.964  14.894  0.00  0.00    +0.000 Br
BRANCH  11  19
ATOM     18  C   UNL     1      -5.680  12.040  17.622  0.00  0.00    +0.000 C 
ATOM     19  O   UNL     1      -4.534  12.004  16.768  0.00  0.00    +0.000 OA
ENDBRANCH  11  19
ENDBRANCH   1  14
BRANCH   2  20
ATOM     20  C   UNL     1       2.079   8.409  18.369  0.00  0.00    +0.000 A 
ATOM     21  C   UNL     1       1.914   7.556  19.472  0.00  0.00    +0.000 A 
ATOM     22  C   UNL     1       2.748   6.445  19.668  0.00  0.00    +0.000 A 
ATOM     23  C   UNL     1       3.759   6.130  18.756  0.00  0.00    +0.000 A 
ATOM     24  C   UNL     1       3.885   6.923  17.617  0.00  0.00    +0.000 A 
ATOM     25  C   UNL     1       3.044   8.033  17.418  0.00  0.00    +0.000 A 
BRANCH  23  26
ATOM     26  S   UNL     1       4.860   4.789  19.186  0.00  0.00    +0.000 S 
ATOM     27  C   UNL     1       3.977   3.325  18.589  0.00  0.00    +0.000 C 
ENDBRANCH  23  26
ENDBRANCH   2  20
TORSDOF 4
ENDMDL
MODEL 4
REMARK VINA RESULT:      -8.2      1.257      1.578
REMARK  Name = 
REMARK  6 active torsions:
REMARK  status: ('A' for Active; 'I' for Inactive)
REMARK    1  A    between atoms: C_1  and  O_2
REMARK    2  A    between atoms: O_2  and  C_3
REMARK    3  A    between atoms: C_6  and  C_7
REMARK    4  A    between atoms: C_8  and  C_9
REMARK    5  A    between atoms: C_12  and  S_13
REMARK    6  A    between atoms: S_13  and  C_14
REMARK                            x       y       z     vdW  Elec       q    Type
REMARK                         _______ _______ _______ _____ _____    ______ ____
ROOT
ATOM      1  C   UNL     1       2.759   6.149  17.781  0.00  0.00    +0.000 C 
ATOM      2  C   UNL     1       4.044   5.756  18.008  0.00  0.00    +0.000 C 
ATOM      3  C   UNL     1       4.355   5.046  19.342  0.00  0.00    +0.000 C 
ATOM      4  C   UNL     1       3.076   4.844  20.159  0.00  0.00    +0.000 C 
ATOM      5  C   UNL     1       3.056   3.686  21.141  0.00  0.00    +0.000 C 
ATOM      6  C   UNL     1       1.550   3.426  21.341  0.00  0.00    +0.000 C 
ATOM      7  C   UNL     1       0.875   3.945  20.071  0.00  0.00    +0.000 C 
ATOM      8  N   UNL     1       1.965   4.488  19.305  0.00  0.00    +0.000 N 
ATOM      9  C   UNL     1       1.822   4.994  18.039  0.00  0.00    +0.000 C 
ATOM     10  O   UNL     1       0.937   4.682  17.246  0.00  0.00    +0.000 OA
ENDROOT
BRANCH   1  14
ATOM     11  C   UNL     1       1.000   9.703  19.502  0.00  0.00    +0.000 A 
ATOM     12  C   UNL     1       1.329   9.684  18.142  0.00  0.00    +0.000 A 
ATOM     13  C   UNL     1       1.899   8.546  17.564  0.00  0.00    +0.000 A 
ATOM     14  C   UNL     1       2.190   7.423  18.346  0.00  0.00    +0.000 A 
ATOM     15  C   UNL     1       1.965   7.512  19.739  0.00  0.00    +0.000 A 
ATOM     16  C   UNL     1       1.390   8.645  20.314  0.00  0.00    +0.000 A 
ATOM     17 BR   UNL     1       1.116   8.663  22.192  0.00  0.00    +0.000 Br
BRANCH  11  19
ATOM     18  C   UNL     1      -1.028  10.817  19.469  0.00  0.00    +0.000 C 
ATOM     19  O   UNL     1       0.279  10.736  20.042  0.00  0.00    +0.000 OA
ENDBRANCH  11  19
ENDBRANCH   1  14
BRANCH   2  20
ATOM     20  C   UNL     1       4.855   5.272  16.836  0.00  0.00    +0.000 A 
ATOM     21  C   UNL     1       5.276   6.141  15.817  0.00  0.00    +0.000 A 
ATOM     22  C   UNL     1       5.892   5.660  14.653  0.00  0.00    +0.000 A 
ATOM     23  C   UNL     1       6.133   4.295  14.474  0.00  0.00    +0.000 A 
ATOM     24  C   UNL     1       5.790   3.427  15.510  0.00  0.00    +0.000 A 
ATOM     25  C   UNL     1       5.179   3.912  16.680  0.00  0.00    +0.000 A 
BRANCH  23  26
ATOM     26  S   UNL     1       6.776   3.778  12.888  0.00  0.00    +0.000 S 
ATOM     27  C   UNL     1       5.303   3.181  12.022  0.00  0.00    +0.000 C 
ENDBRANCH  23  26
ENDBRANCH   2  20
TORSDOF 4
ENDMDL
MODEL 5
REMARK VINA RESULT:      -8.1      4.084      6.844
REMARK  Name = 
REMARK  6 active torsions:
REMARK  status: ('A' for Active; 'I' for Inactive)
REMARK    1  A    between atoms: C_1  and  O_2
REMARK    2  A    between atoms: O_2  and  C_3
REMARK    3  A    between atoms: C_6  and  C_7
REMARK    4  A    between atoms: C_8  and  C_9
REMARK    5  A    between atoms: C_12  and  S_13
REMARK    6  A    between atoms: S_13  and  C_14
REMARK                            x       y       z     vdW  Elec       q    Type
REMARK                         _______ _______ _______ _____ _____    ______ ____
ROOT
ATOM      1  C   UNL     1       0.352  10.139  19.380  0.00  0.00    +0.000 C 
ATOM      2  C   UNL     1       1.326   9.783  18.496  0.00  0.00    +0.000 C 
ATOM      3  C   UNL     1       2.195  10.907  17.892  0.00  0.00    +0.000 C 
ATOM      4  C   UNL     1       1.821  12.264  18.495  0.00  0.00    +0.000 C 
ATOM      5  C   UNL     1       2.898  13.334  18.514  0.00  0.00    +0.000 C 
ATOM      6  C   UNL     1       2.422  14.286  19.628  0.00  0.00    +0.000 C 
ATOM      7  C   UNL     1       1.551  13.432  20.551  0.00  0.00    +0.000 C 
ATOM      8  N   UNL     1       1.540  12.144  19.909  0.00  0.00    +0.000 N 
ATOM      9  C   UNL     1       0.935  11.037  20.444  0.00  0.00    +0.000 C 
ATOM     10  O   UNL     1       0.728  10.851  21.641  0.00  0.00    +0.000 OA
ENDROOT
BRANCH   1  14
ATOM     11  C   UNL     1      -3.578  11.573  18.292  0.00  0.00    +0.000 A 
ATOM     12  C   UNL     1      -2.872  10.752  17.405  0.00  0.00    +0.000 A 
ATOM     13  C   UNL     1      -1.600  10.277  17.736  0.00  0.00    +0.000 A 
ATOM     14  C   UNL     1      -0.994  10.651  18.940  0.00  0.00    +0.000 A 
ATOM     15  C   UNL     1      -1.673  11.579  19.761  0.00  0.00    +0.000 A 
ATOM     16  C   UNL     1      -2.945  12.048  19.434  0.00  0.00    +0.000 A 
ATOM     17 BR   UNL     1      -3.781  13.284  20.607  0.00  0.00    +0.000 Br
BRANCH  11  19
ATOM     18  C   UNL     1      -5.764  10.826  18.430  0.00  0.00    +0.000 C 
ATOM     19  O   UNL     1      -4.890  11.896  18.064  0.00  0.00    +0.000 OA
ENDBRANCH  11  19
ENDBRANCH   1  14
BRANCH   2  20
ATOM     20  C   UNL     1       2.051   8.484  18.723  0.00  0.00    +0.000 A 
ATOM     21  C   UNL     1       2.934   7.953  17.768  0.00  0.00    +0.000 A 
ATOM     22  C   UNL     1       3.482   6.670  17.913  0.00  0.00    +0.000 A 
ATOM     23  C   UNL     1       3.189   5.881  19.028  0.00  0.00    +0.000 A 
ATOM     24  C   UNL     1       2.376   6.424  20.021  0.00  0.00    +0.000 A 
ATOM     25  C   UNL     1       1.832   7.714  19.878  0.00  0.00    +0.000 A 
BRANCH  23  26
ATOM     26  S   UNL     1       3.814   4.206  19.032  0.00  0.00    +0.000 S 
ATOM     27  C   UNL     1       4.176   3.899  17.285  0.00  0.00    +0.000 C 
ENDBRANCH  23  26
ENDBRANCH   2  20
TORSDOF 4
ENDMDL
MODEL 6
REMARK VINA RESULT:      -7.8      4.101      6.869
REMARK  Name = 
REMARK  6 active torsions:
REMARK  status: ('A' for Active; 'I' for Inactive)
REMARK    1  A    between atoms: C_1  and  O_2
REMARK    2  A    between atoms: O_2  and  C_3
REMARK    3  A    between atoms: C_6  and  C_7
REMARK    4  A    between atoms: C_8  and  C_9
REMARK    5  A    between atoms: C_12  and  S_13
REMARK    6  A    between atoms: S_13  and  C_14
REMARK                            x       y       z     vdW  Elec       q    Type
REMARK                         _______ _______ _______ _____ _____    ______ ____
ROOT
ATOM      1  C   UNL     1       0.371  10.139  19.362  0.00  0.00    +0.000 C 
ATOM      2  C   UNL     1       1.297   9.832  18.411  0.00  0.00    +0.000 C 
ATOM      3  C   UNL     1       2.160  10.981  17.849  0.00  0.00    +0.000 C 
ATOM      4  C   UNL     1       1.840  12.298  18.563  0.00  0.00    +0.000 C 
ATOM      5  C   UNL     1       2.938  13.346  18.608  0.00  0.00    +0.000 C 
ATOM      6  C   UNL     1       2.530  14.224  19.808  0.00  0.00    +0.000 C 
ATOM      7  C   UNL     1       1.686  13.320  20.707  0.00  0.00    +0.000 C 
ATOM      8  N   UNL     1       1.620  12.082  19.976  0.00  0.00    +0.000 N 
ATOM      9  C   UNL     1       1.018  10.949  20.459  0.00  0.00    +0.000 C 
ATOM     10  O   UNL     1       0.861  10.681  21.648  0.00  0.00    +0.000 OA
ENDROOT
BRANCH   1  14
ATOM     11  C   UNL     1      -3.571  11.724  18.563  0.00  0.00    +0.000 A 
ATOM     12  C   UNL     1      -2.960  10.885  17.624  0.00  0.00    +0.000 A 
ATOM     13  C   UNL     1      -1.686  10.361  17.861  0.00  0.00    +0.000 A 
ATOM     14  C   UNL     1      -0.983  10.703  19.022  0.00  0.00    +0.000 A 
ATOM     15  C   UNL     1      -1.567  11.649  19.894  0.00  0.00    +0.000 A 
ATOM     16  C   UNL     1      -2.842  12.167  19.660  0.00  0.00    +0.000 A 
ATOM     17 BR   UNL     1      -3.546  13.423  20.896  0.00  0.00    +0.000 Br
BRANCH  11  19
ATOM     18  C   UNL     1      -5.341  11.934  17.087  0.00  0.00    +0.000 C 
ATOM     19  O   UNL     1      -4.883  12.097  18.431  0.00  0.00    +0.000 OA
ENDBRANCH  11  19
ENDBRANCH   1  14
BRANCH   2  20
ATOM     20  C   UNL     1       2.006   8.508  18.512  0.00  0.00    +0.000 A 
ATOM     21  C   UNL     1       1.840   7.662  19.620  0.00  0.00    +0.000 A 
ATOM     22  C   UNL     1       2.621   6.509  19.783  0.00  0.00    +0.000 A 
ATOM     23  C   UNL     1       3.580   6.145  18.834  0.00  0.00    +0.000 A 
ATOM     24  C   UNL     1       3.704   6.933  17.692  0.00  0.00    +0.000 A 
ATOM     25  C   UNL     1       2.915   8.086  17.525  0.00  0.00    +0.000 A 
BRANCH  23  26
ATOM     26  S   UNL     1       4.625   4.748  19.222  0.00  0.00    +0.000 S 
ATOM     27  C   UNL     1       3.915   3.413  18.226  0.00  0.00    +0.000 C 
ENDBRANCH  23  26
ENDBRANCH   2  20
TORSDOF 4
ENDMDL
MODEL 7
REMARK VINA RESULT:      -7.7      3.703      7.153
REMARK  Name = 
REMARK  6 active torsions:
REMARK  status: ('A' for Active; 'I' for Inactive)
REMARK    1  A    between atoms: C_1  and  O_2
REMARK    2  A    between atoms: O_2  and  C_3
REMARK    3  A    between atoms: C_6  and  C_7
REMARK    4  A    between atoms: C_8  and  C_9
REMARK    5  A    between atoms: C_12  and  S_13
REMARK    6  A    between atoms: S_13  and  C_14
REMARK                            x       y       z     vdW  Elec       q    Type
REMARK                         _______ _______ _______ _____ _____    ______ ____
ROOT
ATOM      1  C   UNL     1       4.405   5.915  18.059  0.00  0.00    +0.000 C 
ATOM      2  C   UNL     1       3.076   6.156  17.873  0.00  0.00    +0.000 C 
ATOM      3  C   UNL     1       2.152   4.944  17.632  0.00  0.00    +0.000 C 
ATOM      4  C   UNL     1       2.939   3.634  17.728  0.00  0.00    +0.000 C 
ATOM      5  C   UNL     1       2.168   2.388  18.127  0.00  0.00    +0.000 C 
ATOM      6  C   UNL     1       3.269   1.455  18.667  0.00  0.00    +0.000 C 
ATOM      7  C   UNL     1       4.395   2.380  19.132  0.00  0.00    +0.000 C 
ATOM      8  N   UNL     1       3.917   3.693  18.793  0.00  0.00    +0.000 N 
ATOM      9  C   UNL     1       4.585   4.847  19.111  0.00  0.00    +0.000 C 
ATOM     10  O   UNL     1       5.377   4.975  20.041  0.00  0.00    +0.000 OA
ENDROOT
BRANCH   1  14
ATOM     11  C   UNL     1       7.079   5.085  14.766  0.00  0.00    +0.000 A 
ATOM     12  C   UNL     1       7.515   5.891  15.824  0.00  0.00    +0.000 A 
ATOM     13  C   UNL     1       6.668   6.173  16.899  0.00  0.00    +0.000 A 
ATOM     14  C   UNL     1       5.354   5.690  16.913  0.00  0.00    +0.000 A 
ATOM     15  C   UNL     1       4.898   4.985  15.776  0.00  0.00    +0.000 A 
ATOM     16  C   UNL     1       5.746   4.698  14.707  0.00  0.00    +0.000 A 
ATOM     17 BR   UNL     1       5.043   3.734  13.231  0.00  0.00    +0.000 Br
BRANCH  11  19
ATOM     18  C   UNL     1       8.280   5.700  12.885  0.00  0.00    +0.000 C 
ATOM     19  O   UNL     1       7.950   4.652  13.801  0.00  0.00    +0.000 OA
ENDBRANCH  11  19
ENDBRANCH   1  14
BRANCH   2  20
ATOM     20  C   UNL     1       2.443   7.281  18.647  0.00  0.00    +0.000 A 
ATOM     21  C   UNL     1       2.127   7.156  20.009  0.00  0.00    +0.000 A 
ATOM     22  C   UNL     1       1.395   8.145  20.684  0.00  0.00    +0.000 A 
ATOM     23  C   UNL     1       0.975   9.306  20.029  0.00  0.00    +0.000 A 
ATOM     24  C   UNL     1       1.347   9.479  18.697  0.00  0.00    +0.000 A 
ATOM     25  C   UNL     1       2.087   8.490  18.024  0.00  0.00    +0.000 A 
BRANCH  23  26
ATOM     26  S   UNL     1      -0.084  10.421  20.941  0.00  0.00    +0.000 S 
ATOM     27  C   UNL     1      -0.180   9.651  22.577  0.00  0.00    +0.000 C 
ENDBRANCH  23  26
ENDBRANCH   2  20
TORSDOF 4
ENDMDL
MODEL 8
REMARK VINA RESULT:      -7.4      2.947      5.115
REMARK  Name = 
REMARK  6 active torsions:
REMARK  status: ('A' for Active; 'I' for Inactive)
REMARK    1  A    between atoms: C_1  and  O_2
REMARK    2  A    between atoms: O_2  and  C_3
REMARK    3  A    between atoms: C_6  and  C_7
REMARK    4  A    between atoms: C_8  and  C_9
REMARK    5  A    between atoms: C_12  and  S_13
REMARK    6  A    between atoms: S_13  and  C_14
REMARK                            x       y       z     vdW  Elec       q    Type
REMARK                         _______ _______ _______ _____ _____    ______ ____
ROOT
ATOM      1  C   UNL     1       5.894   4.597  16.935  0.00  0.00    +0.000 C 
ATOM      2  C   UNL     1       5.703   5.352  15.817  0.00  0.00    +0.000 C 
ATOM      3  C   UNL     1       6.006   6.863  15.908  0.00  0.00    +0.000 C 
ATOM      4  C   UNL     1       6.563   7.221  17.288  0.00  0.00    +0.000 C 
ATOM      5  C   UNL     1       7.459   8.444  17.379  0.00  0.00    +0.000 C 
ATOM      6  C   UNL     1       8.258   8.193  18.673  0.00  0.00    +0.000 C 
ATOM      7  C   UNL     1       8.262   6.676  18.863  0.00  0.00    +0.000 C 
ATOM      8  N   UNL     1       7.463   6.195  17.767  0.00  0.00    +0.000 N 
ATOM      9  C   UNL     1       7.267   4.865  17.500  0.00  0.00    +0.000 C 
ATOM     10  O   UNL     1       8.028   3.957  17.825  0.00  0.00    +0.000 OA
ENDROOT
BRANCH   1  14
ATOM     11  C   UNL     1       3.038   4.533  20.179  0.00  0.00    +0.000 A 
ATOM     12  C   UNL     1       3.717   3.359  19.833  0.00  0.00    +0.000 A 
ATOM     13  C   UNL     1       4.645   3.356  18.788  0.00  0.00    +0.000 A 
ATOM     14  C   UNL     1       4.876   4.517  18.041  0.00  0.00    +0.000 A 
ATOM     15  C   UNL     1       4.088   5.654  18.327  0.00  0.00    +0.000 A 
ATOM     16  C   UNL     1       3.167   5.659  19.375  0.00  0.00    +0.000 A 
ATOM     17 BR   UNL     1       2.164   7.239  19.689  0.00  0.00    +0.000 Br
BRANCH  11  19
ATOM     18  C   UNL     1       1.814   3.301  21.709  0.00  0.00    +0.000 C 
ATOM     19  O   UNL     1       2.266   4.597  21.310  0.00  0.00    +0.000 OA
ENDBRANCH  11  19
ENDBRANCH   1  14
BRANCH   2  20
ATOM     20  C   UNL     1       6.009   4.732  14.480  0.00  0.00    +0.000 A 
ATOM     21  C   UNL     1       5.137   3.813  13.874  0.00  0.00    +0.000 A 
ATOM     22  C   UNL     1       5.500   3.120  12.709  0.00  0.00    +0.000 A 
ATOM     23  C   UNL     1       6.735   3.337  12.094  0.00  0.00    +0.000 A 
ATOM     24  C   UNL     1       7.579   4.303  12.640  0.00  0.00    +0.000 A 
ATOM     25  C   UNL     1       7.212   5.002  13.804  0.00  0.00    +0.000 A 
BRANCH  23  26
ATOM     26  S   UNL     1       7.156   2.287  10.710  0.00  0.00    +0.000 S 
ATOM     27  C   UNL     1       6.224   0.771  11.046  0.00  0.00    +0.000 C 
ENDBRANCH  23  26
ENDBRANCH   2  20
TORSDOF 4
ENDMDL
MODEL 9
REMARK VINA RESULT:      -7.2      4.511      7.489
REMARK  Name = 
REMARK  6 active torsions:
REMARK  status: ('A' for Active; 'I' for Inactive)
REMARK    1  A    between atoms: C_1  and  O_2
REMARK    2  A    between atoms: O_2  and  C_3
REMARK    3  A    between atoms: C_6  and  C_7
REMARK    4  A    between atoms: C_8  and  C_9
REMARK    5  A    between atoms: C_12  and  S_13
REMARK    6  A    between atoms: S_13  and  C_14
REMARK                            x       y       z     vdW  Elec       q    Type
REMARK                         _______ _______ _______ _____ _____    ______ ____
ROOT
ATOM      1  C   UNL     1       0.390  11.796  18.930  0.00  0.00    +0.000 C 
ATOM      2  C   UNL     1       0.968  10.969  19.847  0.00  0.00    +0.000 C 
ATOM      3  C   UNL     1       0.472  11.052  21.306  0.00  0.00    +0.000 C 
ATOM      4  C   UNL     1      -0.686  12.048  21.428  0.00  0.00    +0.000 C 
ATOM      5  C   UNL     1      -1.671  11.830  22.563  0.00  0.00    +0.000 C 
ATOM      6  C   UNL     1      -2.928  12.580  22.080  0.00  0.00    +0.000 C 
ATOM      7  C   UNL     1      -2.829  12.602  20.554  0.00  0.00    +0.000 C 
ATOM      8  N   UNL     1      -1.571  11.958  20.287  0.00  0.00    +0.000 N 
ATOM      9  C   UNL     1      -1.112  11.687  19.024  0.00  0.00    +0.000 C 
ATOM     10  O   UNL     1      -1.819  11.537  18.030  0.00  0.00    +0.000 OA
ENDROOT
BRANCH   1  14
ATOM     11  C   UNL     1       1.723  15.892  18.571  0.00  0.00    +0.000 A 
ATOM     12  C   UNL     1       0.358  15.620  18.717  0.00  0.00    +0.000 A 
ATOM     13  C   UNL     1      -0.096  14.303  18.835  0.00  0.00    +0.000 A 
ATOM     14  C   UNL     1       0.804  13.234  18.764  0.00  0.00    +0.000 A 
ATOM     15  C   UNL     1       2.159  13.527  18.490  0.00  0.00    +0.000 A 
ATOM     16  C   UNL     1       2.613  14.842  18.380  0.00  0.00    +0.000 A 
ATOM     17 BR   UNL     1       4.454  15.134  18.024  0.00  0.00    +0.000 Br
BRANCH  11  19
ATOM     18  C   UNL     1       1.623  17.893  19.730  0.00  0.00    +0.000 C 
ATOM     19  O   UNL     1       2.201  17.175  18.637  0.00  0.00    +0.000 OA
ENDBRANCH  11  19
ENDBRANCH   1  14
BRANCH   2  20
ATOM     20  C   UNL     1       1.374   9.589  19.402  0.00  0.00    +0.000 A 
ATOM     21  C   UNL     1       1.476   8.520  20.307  0.00  0.00    +0.000 A 
ATOM     22  C   UNL     1       2.007   7.282  19.918  0.00  0.00    +0.000 A 
ATOM     23  C   UNL     1       2.431   7.057  18.606  0.00  0.00    +0.000 A 
ATOM     24  C   UNL     1       2.266   8.084  17.678  0.00  0.00    +0.000 A 
ATOM     25  C   UNL     1       1.727   9.324  18.067  0.00  0.00    +0.000 A 
BRANCH  23  26
ATOM     26  S   UNL     1       3.236   5.498  18.262  0.00  0.00    +0.000 S 
ATOM     27  C   UNL     1       1.855   4.409  17.833  0.00  0.00    +0.000 C 
ENDBRANCH  23  26
ENDBRANCH   2  20
TORSDOF 4
ENDMDL
