MODEL 1
REMARK VINA RESULT:      -8.3      0.000      0.000
REMARK  Name = 
REMARK  13 active torsions:
REMARK  status: ('A' for Active; 'I' for Inactive)
REMARK    1  A    between atoms: C_1  and  N_2
REMARK    2  A    between atoms: N_2  and  C_3
REMARK    3  A    between atoms: N_12  and  C_13
REMARK    4  A    between atoms: C_13  and  C_14
REMARK    5  A    between atoms: C_14  and  C_15
REMARK    6  A    between atoms: C_14  and  C_26
REMARK    7  A    between atoms: C_15  and  O_16
REMARK    8  A    between atoms: O_16  and  C_17
REMARK    9  A    between atoms: N_19  and  C_20
REMARK   10  A    between atoms: C_26  and  O_27
REMARK   11  A    between atoms: O_27  and  P_28
REMARK   12  A    between atoms: P_28  and  O_30
REMARK   13  A    between atoms: P_28  and  O_31
REMARK                            x       y       z     vdW  Elec       q    Type
REMARK                         _______ _______ _______ _____ _____    ______ ____
ROOT
ATOM      1  C   UNL     1       4.166   5.747  18.220  0.00  0.00    +0.000 C 
ENDROOT
BRANCH   1   2
ATOM      2  C   UNL     1       3.225   6.382  19.266  0.00  0.00    +0.000 C 
BRANCH   2  12
ATOM      3  C   UNL     1       0.302  10.235  19.048  0.00  0.00    +0.000 A 
ATOM      4  N   UNL     1      -0.153  10.090  20.319  0.00  0.00    +0.000 NA
ATOM      5  C   UNL     1       0.373   9.114  21.080  0.00  0.00    +0.000 A 
ATOM      6 CL   UNL     1      -0.311   8.953  22.641  0.00  0.00    +0.000 Cl
ATOM      7  N   UNL     1       1.319   8.208  20.768  0.00  0.00    +0.000 NA
ATOM      8  C   UNL     1       1.738   8.389  19.508  0.00  0.00    +0.000 A 
ATOM      9  C   UNL     1       1.311   9.353  18.607  0.00  0.00    +0.000 A 
ATOM     10  N   UNL     1       1.977   9.223  17.404  0.00  0.00    +0.000 NA
ATOM     11  C   UNL     1       2.758   8.173  17.561  0.00  0.00    +0.000 A 
ATOM     12  N   UNL     1       2.625   7.621  18.807  0.00  0.00    +0.000 N 
BRANCH   3  14
ATOM     13  C   UNL     1      -0.891  12.312  18.874  0.00  0.00    +0.000 C 
ATOM     14  N   UNL     1      -0.251  11.201  18.205  0.00  0.00    +0.000 N 
ATOM     15  H   UNL     1       0.383  11.429  17.442  0.00  0.00    +0.000 HD
ENDBRANCH   3  14
ENDBRANCH   2  12
ENDBRANCH   1   2
BRANCH   1  16
ATOM     16  C   UNL     1       5.540   5.395  18.797  0.00  0.00    +0.000 C 
BRANCH  16  17
ATOM     17  O   UNL     1       6.589   6.005  18.010  0.00  0.00    +0.000 OA
BRANCH  17  18
ATOM     18  C   UNL     1       7.042   5.251  16.975  0.00  0.00    +0.000 C 
ATOM     19  O   UNL     1       7.915   4.406  17.091  0.00  0.00    +0.000 OA
ATOM     20  N   UNL     1       6.416   5.640  15.807  0.00  0.00    +0.000 N 
ATOM     21  H   UNL     1       5.825   6.452  15.880  0.00  0.00    +0.000 HD
BRANCH  20  22
ATOM     22  C   UNL     1       6.570   5.029  14.546  0.00  0.00    +0.000 A 
ATOM     23  C   UNL     1       5.725   4.016  14.084  0.00  0.00    +0.000 A 
ATOM     24  C   UNL     1       5.897   3.458  12.816  0.00  0.00    +0.000 A 
ATOM     25  C   UNL     1       6.926   3.902  11.994  0.00  0.00    +0.000 A 
ATOM     26  C   UNL     1       7.781   4.907  12.442  0.00  0.00    +0.000 A 
ATOM     27  C   UNL     1       7.596   5.476  13.709  0.00  0.00    +0.000 A 
ENDBRANCH  20  22
ENDBRANCH  17  18
ENDBRANCH  16  17
ENDBRANCH   1  16
BRANCH   1  28
ATOM     28  C   UNL     1       3.533   4.489  17.613  0.00  0.00    +0.000 C 
BRANCH  28  29
ATOM     29  O   UNL     1       3.310   3.524  18.626  0.00  0.00    +0.000 OA
BRANCH  29  30
ATOM     30  P   UNL     1       1.712   2.862  18.581  0.00  0.00    +0.000 P 
ATOM     31  O   UNL     1       1.318   3.757  17.410  0.00  0.00    +0.000 OA
BRANCH  30  32
ATOM     32  O   UNL     1       2.297   1.505  17.905  0.00  0.00    +0.000 OA
ATOM     33  H   UNL     1       1.619   0.812  17.962  0.00  0.00    +0.000 HD
ENDBRANCH  30  32
BRANCH  30  34
ATOM     34  O   UNL     1       0.114   2.200  18.534  0.00  0.00    +0.000 OA
ATOM     35  H   UNL     1      -0.408   2.787  19.116  0.00  0.00    +0.000 HD
ENDBRANCH  30  34
ENDBRANCH  29  30
ENDBRANCH  28  29
ENDBRANCH   1  28
TORSDOF 12
ENDMDL
MODEL 2
REMARK VINA RESULT:      -8.1      1.410      1.925
REMARK  Name = 
REMARK  13 active torsions:
REMARK  status: ('A' for Active; 'I' for Inactive)
REMARK    1  A    between atoms: C_1  and  N_2
REMARK    2  A    between atoms: N_2  and  C_3
REMARK    3  A    between atoms: N_12  and  C_13
REMARK    4  A    between atoms: C_13  and  C_14
REMARK    5  A    between atoms: C_14  and  C_15
REMARK    6  A    between atoms: C_14  and  C_26
REMARK    7  A    between atoms: C_15  and  O_16
REMARK    8  A    between atoms: O_16  and  C_17
REMARK    9  A    between atoms: N_19  and  C_20
REMARK   10  A    between atoms: C_26  and  O_27
REMARK   11  A    between atoms: O_27  and  P_28
REMARK   12  A    between atoms: P_28  and  O_30
REMARK   13  A    between atoms: P_28  and  O_31
REMARK                            x       y       z     vdW  Elec       q    Type
REMARK                         _______ _______ _______ _____ _____    ______ ____
ROOT
ATOM      1  C   UNL     1       2.586   5.318  18.140  0.00  0.00    +0.000 C 
ENDROOT
BRANCH   1   2
ATOM      2  C   UNL     1       2.751   6.353  19.273  0.00  0.00    +0.000 C 
BRANCH   2  12
ATOM      3  C   UNL     1       0.405  10.587  19.221  0.00  0.00    +0.000 A 
ATOM      4  N   UNL     1      -0.115  10.431  20.466  0.00  0.00    +0.000 NA
ATOM      5  C   UNL     1       0.240   9.346  21.176  0.00  0.00    +0.000 A 
ATOM      6 CL   UNL     1      -0.519   9.190  22.702  0.00  0.00    +0.000 Cl
ATOM      7  N   UNL     1       1.062   8.337  20.834  0.00  0.00    +0.000 NA
ATOM      8  C   UNL     1       1.550   8.533  19.601  0.00  0.00    +0.000 A 
ATOM      9  C   UNL     1       1.297   9.599  18.753  0.00  0.00    +0.000 A 
ATOM     10  N   UNL     1       1.983   9.449  17.564  0.00  0.00    +0.000 NA
ATOM     11  C   UNL     1       2.605   8.292  17.675  0.00  0.00    +0.000 A 
ATOM     12  N   UNL     1       2.348   7.691  18.878  0.00  0.00    +0.000 N 
BRANCH   3  14
ATOM     13  C   UNL     1      -0.512  12.806  19.144  0.00  0.00    +0.000 C 
ATOM     14  N   UNL     1       0.025  11.672  18.426  0.00  0.00    +0.000 N 
ATOM     15  H   UNL     1       0.725  11.868  17.715  0.00  0.00    +0.000 HD
ENDBRANCH   3  14
ENDBRANCH   2  12
ENDBRANCH   1   2
BRANCH   1  16
ATOM     16  C   UNL     1       3.909   4.650  17.752  0.00  0.00    +0.000 C 
BRANCH  16  17
ATOM     17  O   UNL     1       4.945   5.645  17.579  0.00  0.00    +0.000 OA
BRANCH  17  18
ATOM     18  C   UNL     1       5.336   5.848  16.295  0.00  0.00    +0.000 C 
ATOM     19  O   UNL     1       5.379   6.950  15.771  0.00  0.00    +0.000 OA
ATOM     20  N   UNL     1       5.599   4.634  15.691  0.00  0.00    +0.000 N 
ATOM     21  H   UNL     1       5.373   3.819  16.237  0.00  0.00    +0.000 HD
BRANCH  20  22
ATOM     22  C   UNL     1       6.107   4.454  14.389  0.00  0.00    +0.000 A 
ATOM     23  C   UNL     1       7.249   5.112  13.920  0.00  0.00    +0.000 A 
ATOM     24  C   UNL     1       7.734   4.883  12.632  0.00  0.00    +0.000 A 
ATOM     25  C   UNL     1       7.077   3.994  11.789  0.00  0.00    +0.000 A 
ATOM     26  C   UNL     1       5.935   3.333  12.238  0.00  0.00    +0.000 A 
ATOM     27  C   UNL     1       5.459   3.554  13.538  0.00  0.00    +0.000 A 
ENDBRANCH  20  22
ENDBRANCH  17  18
ENDBRANCH  16  17
ENDBRANCH   1  16
BRANCH   1  28
ATOM     28  C   UNL     1       1.570   4.239  18.533  0.00  0.00    +0.000 C 
BRANCH  28  29
ATOM     29  O   UNL     1       2.243   3.117  19.077  0.00  0.00    +0.000 OA
BRANCH  29  30
ATOM     30  P   UNL     1       1.741   2.754  20.693  0.00  0.00    +0.000 P 
ATOM     31  O   UNL     1       2.853   3.612  21.287  0.00  0.00    +0.000 OA
BRANCH  30  32
ATOM     32  O   UNL     1       0.473   3.755  20.520  0.00  0.00    +0.000 OA
ATOM     33  H   UNL     1       0.756   4.530  20.009  0.00  0.00    +0.000 HD
ENDBRANCH  30  32
BRANCH  30  34
ATOM     34  O   UNL     1       1.239   2.391  22.308  0.00  0.00    +0.000 OA
ATOM     35  H   UNL     1       0.381   1.936  22.199  0.00  0.00    +0.000 HD
ENDBRANCH  30  34
ENDBRANCH  29  30
ENDBRANCH  28  29
ENDBRANCH   1  28
TORSDOF 12
ENDMDL
MODEL 3
REMARK VINA RESULT:      -8.1      1.113      1.764
REMARK  Name = 
REMARK  13 active torsions:
REMARK  status: ('A' for Active; 'I' for Inactive)
REMARK    1  A    between atoms: C_1  and  N_2
REMARK    2  A    between atoms: N_2  and  C_3
REMARK    3  A    between atoms: N_12  and  C_13
REMARK    4  A    between atoms: C_13  and  C_14
REMARK    5  A    between atoms: C_14  and  C_15
REMARK    6  A    between atoms: C_14  and  C_26
REMARK    7  A    between atoms: C_15  and  O_16
REMARK    8  A    between atoms: O_16  and  C_17
REMARK    9  A    between atoms: N_19  and  C_20
REMARK   10  A    between atoms: C_26  and  O_27
REMARK   11  A    between atoms: O_27  and  P_28
REMARK   12  A    between atoms: P_28  and  O_30
REMARK   13  A    between atoms: P_28  and  O_31
REMARK                            x       y       z     vdW  Elec       q    Type
REMARK                         _______ _______ _______ _____ _____    ______ ____
ROOT
ATOM      1  C   UNL     1       3.192   5.801  18.048  0.00  0.00    +0.000 C 
ENDROOT
BRANCH   1   2
ATOM      2  C   UNL     1       2.585   6.549  19.253  0.00  0.00    +0.000 C 
BRANCH   2  12
ATOM      3  C   UNL     1       0.353  10.837  19.525  0.00  0.00    +0.000 A 
ATOM      4  N   UNL     1      -0.040  10.666  20.813  0.00  0.00    +0.000 NA
ATOM      5  C   UNL     1       0.358   9.558  21.463  0.00  0.00    +0.000 A 
ATOM      6 CL   UNL     1      -0.244   9.385  23.055  0.00  0.00    +0.000 Cl
ATOM      7  N   UNL     1       1.115   8.537  21.018  0.00  0.00    +0.000 NA
ATOM      8  C   UNL     1       1.479   8.749  19.745  0.00  0.00    +0.000 A 
ATOM      9  C   UNL     1       1.167   9.839  18.949  0.00  0.00    +0.000 A 
ATOM     10  N   UNL     1       1.724   9.700  17.693  0.00  0.00    +0.000 NA
ATOM     11  C   UNL     1       2.324   8.526  17.716  0.00  0.00    +0.000 A 
ATOM     12  N   UNL     1       2.177   7.905  18.927  0.00  0.00    +0.000 N 
BRANCH   3  14
ATOM     13  C   UNL     1      -1.401  11.832  18.218  0.00  0.00    +0.000 C 
ATOM     14  N   UNL     1      -0.079  11.947  18.795  0.00  0.00    +0.000 N 
ATOM     15  H   UNL     1       0.134  12.813  19.284  0.00  0.00    +0.000 HD
ENDBRANCH   3  14
ENDBRANCH   2  12
ENDBRANCH   1   2
BRANCH   1  16
ATOM     16  C   UNL     1       4.682   5.494  18.232  0.00  0.00    +0.000 C 
BRANCH  16  17
ATOM     17  O   UNL     1       5.488   6.485  17.554  0.00  0.00    +0.000 OA
BRANCH  17  18
ATOM     18  C   UNL     1       5.508   6.380  16.200  0.00  0.00    +0.000 C 
ATOM     19  O   UNL     1       4.976   7.187  15.455  0.00  0.00    +0.000 OA
ATOM     20  N   UNL     1       6.147   5.212  15.834  0.00  0.00    +0.000 N 
ATOM     21  H   UNL     1       6.398   4.597  16.590  0.00  0.00    +0.000 HD
BRANCH  20  22
ATOM     22  C   UNL     1       6.431   4.807  14.513  0.00  0.00    +0.000 A 
ATOM     23  C   UNL     1       7.510   5.309  13.780  0.00  0.00    +0.000 A 
ATOM     24  C   UNL     1       7.771   4.859  12.485  0.00  0.00    +0.000 A 
ATOM     25  C   UNL     1       6.948   3.903  11.901  0.00  0.00    +0.000 A 
ATOM     26  C   UNL     1       5.866   3.395  12.617  0.00  0.00    +0.000 A 
ATOM     27  C   UNL     1       5.615   3.838  13.923  0.00  0.00    +0.000 A 
ENDBRANCH  20  22
ENDBRANCH  17  18
ENDBRANCH  16  17
ENDBRANCH   1  16
BRANCH   1  28
ATOM     28  C   UNL     1       2.434   4.494  17.782  0.00  0.00    +0.000 C 
BRANCH  28  29
ATOM     29  O   UNL     1       2.475   3.670  18.935  0.00  0.00    +0.000 OA
BRANCH  29  30
ATOM     30  P   UNL     1       3.248   2.149  18.642  0.00  0.00    +0.000 P 
ATOM     31  O   UNL     1       3.932   2.176  20.005  0.00  0.00    +0.000 OA
BRANCH  30  32
ATOM     32  O   UNL     1       1.834   1.387  18.887  0.00  0.00    +0.000 OA
ATOM     33  H   UNL     1       1.846   0.985  19.770  0.00  0.00    +0.000 HD
ENDBRANCH  30  32
BRANCH  30  34
ATOM     34  O   UNL     1       4.020   0.630  18.350  0.00  0.00    +0.000 OA
ATOM     35  H   UNL     1       3.932   0.494  17.386  0.00  0.00    +0.000 HD
ENDBRANCH  30  34
ENDBRANCH  29  30
ENDBRANCH  28  29
ENDBRANCH   1  28
TORSDOF 12
ENDMDL
MODEL 4
REMARK VINA RESULT:      -7.9      1.354      1.619
REMARK  Name = 
REMARK  13 active torsions:
REMARK  status: ('A' for Active; 'I' for Inactive)
REMARK    1  A    between atoms: C_1  and  N_2
REMARK    2  A    between atoms: N_2  and  C_3
REMARK    3  A    between atoms: N_12  and  C_13
REMARK    4  A    between atoms: C_13  and  C_14
REMARK    5  A    between atoms: C_14  and  C_15
REMARK    6  A    between atoms: C_14  and  C_26
REMARK    7  A    between atoms: C_15  and  O_16
REMARK    8  A    between atoms: O_16  and  C_17
REMARK    9  A    between atoms: N_19  and  C_20
REMARK   10  A    between atoms: C_26  and  O_27
REMARK   11  A    between atoms: O_27  and  P_28
REMARK   12  A    between atoms: P_28  and  O_30
REMARK   13  A    between atoms: P_28  and  O_31
REMARK                            x       y       z     vdW  Elec       q    Type
REMARK                         _______ _______ _______ _____ _____    ______ ____
ROOT
ATOM      1  C   UNL     1       3.195   5.570  18.325  0.00  0.00    +0.000 C 
ENDROOT
BRANCH   1   2
ATOM      2  C   UNL     1       2.802   6.528  19.469  0.00  0.00    +0.000 C 
BRANCH   2  12
ATOM      3  C   UNL     1       0.347  10.695  19.233  0.00  0.00    +0.000 A 
ATOM      4  N   UNL     1      -0.063  10.645  20.527  0.00  0.00    +0.000 NA
ATOM      5  C   UNL     1       0.379   9.638  21.300  0.00  0.00    +0.000 A 
ATOM      6 CL   UNL     1      -0.246   9.609  22.893  0.00  0.00    +0.000 Cl
ATOM      7  N   UNL     1       1.196   8.616  20.982  0.00  0.00    +0.000 NA
ATOM      8  C   UNL     1       1.575   8.706  19.699  0.00  0.00    +0.000 A 
ATOM      9  C   UNL     1       1.223   9.684  18.783  0.00  0.00    +0.000 A 
ATOM     10  N   UNL     1       1.812   9.438  17.558  0.00  0.00    +0.000 NA
ATOM     11  C   UNL     1       2.471   8.308  17.720  0.00  0.00    +0.000 A 
ATOM     12  N   UNL     1       2.332   7.816  18.990  0.00  0.00    +0.000 N 
BRANCH   3  14
ATOM     13  C   UNL     1      -1.546  11.651  18.104  0.00  0.00    +0.000 C 
ATOM     14  N   UNL     1      -0.127  11.693  18.378  0.00  0.00    +0.000 N 
ATOM     15  H   UNL     1       0.267  12.600  18.620  0.00  0.00    +0.000 HD
ENDBRANCH   3  14
ENDBRANCH   2  12
ENDBRANCH   1   2
BRANCH   1  16
ATOM     16  C   UNL     1       4.678   5.186  18.360  0.00  0.00    +0.000 C 
BRANCH  16  17
ATOM     17  O   UNL     1       5.479   6.207  17.722  0.00  0.00    +0.000 OA
BRANCH  17  18
ATOM     18  C   UNL     1       5.495   6.158  16.364  0.00  0.00    +0.000 C 
ATOM     19  O   UNL     1       4.947   6.987  15.655  0.00  0.00    +0.000 OA
ATOM     20  N   UNL     1       6.152   5.017  15.948  0.00  0.00    +0.000 N 
ATOM     21  H   UNL     1       6.416   4.376  16.677  0.00  0.00    +0.000 HD
BRANCH  20  22
ATOM     22  C   UNL     1       6.437   4.672  14.611  0.00  0.00    +0.000 A 
ATOM     23  C   UNL     1       5.689   3.736  13.891  0.00  0.00    +0.000 A 
ATOM     24  C   UNL     1       5.990   3.446  12.559  0.00  0.00    +0.000 A 
ATOM     25  C   UNL     1       7.052   4.085  11.930  0.00  0.00    +0.000 A 
ATOM     26  C   UNL     1       7.812   5.017  12.635  0.00  0.00    +0.000 A 
ATOM     27  C   UNL     1       7.497   5.317  13.968  0.00  0.00    +0.000 A 
ENDBRANCH  20  22
ENDBRANCH  17  18
ENDBRANCH  16  17
ENDBRANCH   1  16
BRANCH   1  28
ATOM     28  C   UNL     1       2.340   4.298  18.363  0.00  0.00    +0.000 C 
BRANCH  28  29
ATOM     29  O   UNL     1       1.571   4.269  19.554  0.00  0.00    +0.000 OA
BRANCH  29  30
ATOM     30  P   UNL     1       2.275   3.271  20.780  0.00  0.00    +0.000 P 
ATOM     31  O   UNL     1       0.911   2.728  21.195  0.00  0.00    +0.000 OA
BRANCH  30  32
ATOM     32  O   UNL     1       2.813   2.250  19.637  0.00  0.00    +0.000 OA
ATOM     33  H   UNL     1       3.503   1.687  20.022  0.00  0.00    +0.000 HD
ENDBRANCH  30  32
BRANCH  30  34
ATOM     34  O   UNL     1       2.977   2.274  22.006  0.00  0.00    +0.000 OA
ATOM     35  H   UNL     1       2.304   2.248  22.714  0.00  0.00    +0.000 HD
ENDBRANCH  30  34
ENDBRANCH  29  30
ENDBRANCH  28  29
ENDBRANCH   1  28
TORSDOF 12
ENDMDL
MODEL 5
REMARK VINA RESULT:      -7.8      1.174      1.568
REMARK  Name = 
REMARK  13 active torsions:
REMARK  status: ('A' for Active; 'I' for Inactive)
REMARK    1  A    between atoms: C_1  and  N_2
REMARK    2  A    between atoms: N_2  and  C_3
REMARK    3  A    between atoms: N_12  and  C_13
REMARK    4  A    between atoms: C_13  and  C_14
REMARK    5  A    between atoms: C_14  and  C_15
REMARK    6  A    between atoms: C_14  and  C_26
REMARK    7  A    between atoms: C_15  and  O_16
REMARK    8  A    between atoms: O_16  and  C_17
REMARK    9  A    between atoms: N_19  and  C_20
REMARK   10  A    between atoms: C_26  and  O_27
REMARK   11  A    between atoms: O_27  and  P_28
REMARK   12  A    between atoms: P_28  and  O_30
REMARK   13  A    between atoms: P_28  and  O_31
REMARK                            x       y       z     vdW  Elec       q    Type
REMARK                         _______ _______ _______ _____ _____    ______ ____
ROOT
ATOM      1  C   UNL     1       3.686   5.675  18.291  0.00  0.00    +0.000 C 
ENDROOT
BRANCH   1   2
ATOM      2  C   UNL     1       3.034   6.514  19.411  0.00  0.00    +0.000 C 
BRANCH   2  12
ATOM      3  C   UNL     1       0.195  10.425  19.117  0.00  0.00    +0.000 A 
ATOM      4  N   UNL     1      -0.246  10.327  20.398  0.00  0.00    +0.000 NA
ATOM      5  C   UNL     1       0.269   9.362  21.180  0.00  0.00    +0.000 A 
ATOM      6 CL   UNL     1      -0.398   9.262  22.753  0.00  0.00    +0.000 Cl
ATOM      7  N   UNL     1       1.190   8.427  20.882  0.00  0.00    +0.000 NA
ATOM      8  C   UNL     1       1.596   8.561  19.612  0.00  0.00    +0.000 A 
ATOM      9  C   UNL     1       1.178   9.507  18.689  0.00  0.00    +0.000 A 
ATOM     10  N   UNL     1       1.824   9.327  17.481  0.00  0.00    +0.000 NA
ATOM     11  C   UNL     1       2.584   8.265  17.659  0.00  0.00    +0.000 A 
ATOM     12  N   UNL     1       2.456   7.753  18.922  0.00  0.00    +0.000 N 
BRANCH   3  14
ATOM     13  C   UNL     1      -0.176  12.754  18.664  0.00  0.00    +0.000 C 
ATOM     14  N   UNL     1      -0.347  11.379  18.252  0.00  0.00    +0.000 N 
ATOM     15  H   UNL     1      -0.131  11.160  17.282  0.00  0.00    +0.000 HD
ENDBRANCH   3  14
ENDBRANCH   2  12
ENDBRANCH   1   2
BRANCH   1  16
ATOM     16  C   UNL     1       5.197   5.510  18.480  0.00  0.00    +0.000 C 
BRANCH  16  17
ATOM     17  O   UNL     1       5.640   4.250  17.925  0.00  0.00    +0.000 OA
BRANCH  17  18
ATOM     18  C   UNL     1       6.475   4.355  16.859  0.00  0.00    +0.000 C 
ATOM     19  O   UNL     1       7.684   4.489  16.962  0.00  0.00    +0.000 OA
ATOM     20  N   UNL     1       5.740   4.355  15.690  0.00  0.00    +0.000 N 
ATOM     21  H   UNL     1       4.740   4.379  15.805  0.00  0.00    +0.000 HD
BRANCH  20  22
ATOM     22  C   UNL     1       6.269   4.365  14.383  0.00  0.00    +0.000 A 
ATOM     23  C   UNL     1       7.322   5.199  13.995  0.00  0.00    +0.000 A 
ATOM     24  C   UNL     1       7.833   5.155  12.697  0.00  0.00    +0.000 A 
ATOM     25  C   UNL     1       7.291   4.278  11.765  0.00  0.00    +0.000 A 
ATOM     26  C   UNL     1       6.238   3.443  12.133  0.00  0.00    +0.000 A 
ATOM     27  C   UNL     1       5.736   3.479  13.442  0.00  0.00    +0.000 A 
ENDBRANCH  20  22
ENDBRANCH  17  18
ENDBRANCH  16  17
ENDBRANCH   1  16
BRANCH   1  28
ATOM     28  C   UNL     1       3.032   4.291  18.198  0.00  0.00    +0.000 C 
BRANCH  28  29
ATOM     29  O   UNL     1       1.969   4.196  19.130  0.00  0.00    +0.000 OA
BRANCH  29  30
ATOM     30  P   UNL     1       2.397   3.295  20.545  0.00  0.00    +0.000 P 
ATOM     31  O   UNL     1       0.939   3.189  20.982  0.00  0.00    +0.000 OA
BRANCH  30  32
ATOM     32  O   UNL     1       2.664   1.984  19.623  0.00  0.00    +0.000 OA
ATOM     33  H   UNL     1       3.589   1.994  19.328  0.00  0.00    +0.000 HD
ENDBRANCH  30  32
BRANCH  30  34
ATOM     34  O   UNL     1       2.825   2.394  21.957  0.00  0.00    +0.000 OA
ATOM     35  H   UNL     1       1.996   1.946  22.220  0.00  0.00    +0.000 HD
ENDBRANCH  30  34
ENDBRANCH  29  30
ENDBRANCH  28  29
ENDBRANCH   1  28
TORSDOF 12
ENDMDL
MODEL 6
REMARK VINA RESULT:      -7.7      4.644      6.776
REMARK  Name = 
REMARK  13 active torsions:
REMARK  status: ('A' for Active; 'I' for Inactive)
REMARK    1  A    between atoms: C_1  and  N_2
REMARK    2  A    between atoms: N_2  and  C_3
REMARK    3  A    between atoms: N_12  and  C_13
REMARK    4  A    between atoms: C_13  and  C_14
REMARK    5  A    between atoms: C_14  and  C_15
REMARK    6  A    between atoms: C_14  and  C_26
REMARK    7  A    between atoms: C_15  and  O_16
REMARK    8  A    between atoms: O_16  and  C_17
REMARK    9  A    between atoms: N_19  and  C_20
REMARK   10  A    between atoms: C_26  and  O_27
REMARK   11  A    between atoms: O_27  and  P_28
REMARK   12  A    between atoms: P_28  and  O_30
REMARK   13  A    between atoms: P_28  and  O_31
REMARK                            x       y       z     vdW  Elec       q    Type
REMARK                         _______ _______ _______ _____ _____    ______ ____
ROOT
ATOM      1  C   UNL     1       5.907   6.565  17.604  0.00  0.00    +0.000 C 
ENDROOT
BRANCH   1   2
ATOM      2  C   UNL     1       6.112   5.552  18.750  0.00  0.00    +0.000 C 
BRANCH   2  12
ATOM      3  C   UNL     1       1.713   4.250  20.298  0.00  0.00    +0.000 A 
ATOM      4  N   UNL     1       1.305   5.525  20.529  0.00  0.00    +0.000 NA
ATOM      5  C   UNL     1       2.135   6.532  20.205  0.00  0.00    +0.000 A 
ATOM      6 CL   UNL     1       1.574   8.100  20.600  0.00  0.00    +0.000 Cl
ATOM      7  N   UNL     1       3.368   6.478  19.668  0.00  0.00    +0.000 NA
ATOM      8  C   UNL     1       3.728   5.204  19.457  0.00  0.00    +0.000 A 
ATOM      9  C   UNL     1       2.986   4.064  19.719  0.00  0.00    +0.000 A 
ATOM     10  N   UNL     1       3.694   2.931  19.366  0.00  0.00    +0.000 NA
ATOM     11  C   UNL     1       4.858   3.378  18.940  0.00  0.00    +0.000 A 
ATOM     12  N   UNL     1       4.933   4.743  19.004  0.00  0.00    +0.000 N 
BRANCH   3  14
ATOM     13  C   UNL     1       1.344   2.442  21.835  0.00  0.00    +0.000 C 
ATOM     14  N   UNL     1       0.906   3.171  20.666  0.00  0.00    +0.000 N 
ATOM     15  H   UNL     1      -0.080   3.419  20.622  0.00  0.00    +0.000 HD
ENDBRANCH   3  14
ENDBRANCH   2  12
ENDBRANCH   1   2
BRANCH   1  16
ATOM     16  C   UNL     1       7.220   7.202  17.136  0.00  0.00    +0.000 C 
BRANCH  16  17
ATOM     17  O   UNL     1       7.992   7.656  18.270  0.00  0.00    +0.000 OA
BRANCH  17  18
ATOM     18  C   UNL     1       8.256   8.988  18.288  0.00  0.00    +0.000 C 
ATOM     19  O   UNL     1       7.764   9.782  17.502  0.00  0.00    +0.000 OA
ATOM     20  N   UNL     1       9.195   9.264  19.263  0.00  0.00    +0.000 N 
ATOM     21  H   UNL     1       9.595   8.462  19.721  0.00  0.00    +0.000 HD
BRANCH  20  22
ATOM     22  C   UNL     1       9.651  10.547  19.629  0.00  0.00    +0.000 A 
ATOM     23  C   UNL     1       9.312  11.157  20.840  0.00  0.00    +0.000 A 
ATOM     24  C   UNL     1       9.810  12.418  21.174  0.00  0.00    +0.000 A 
ATOM     25  C   UNL     1      10.650  13.090  20.294  0.00  0.00    +0.000 A 
ATOM     26  C   UNL     1      10.994  12.497  19.081  0.00  0.00    +0.000 A 
ATOM     27  C   UNL     1      10.504  11.225  18.755  0.00  0.00    +0.000 A 
ENDBRANCH  20  22
ENDBRANCH  17  18
ENDBRANCH  16  17
ENDBRANCH   1  16
BRANCH   1  28
ATOM     28  C   UNL     1       5.211   5.901  16.410  0.00  0.00    +0.000 C 
BRANCH  28  29
ATOM     29  O   UNL     1       5.977   6.099  15.234  0.00  0.00    +0.000 OA
BRANCH  29  30
ATOM     30  P   UNL     1       6.161   4.651  14.304  0.00  0.00    +0.000 P 
ATOM     31  O   UNL     1       7.449   5.161  13.666  0.00  0.00    +0.000 OA
BRANCH  30  32
ATOM     32  O   UNL     1       6.630   3.855  15.640  0.00  0.00    +0.000 OA
ATOM     33  H   UNL     1       7.505   4.181  15.905  0.00  0.00    +0.000 HD
ENDBRANCH  30  32
BRANCH  30  34
ATOM     34  O   UNL     1       6.345   3.204  13.374  0.00  0.00    +0.000 OA
ATOM     35  H   UNL     1       6.500   2.505  14.041  0.00  0.00    +0.000 HD
ENDBRANCH  30  34
ENDBRANCH  29  30
ENDBRANCH  28  29
ENDBRANCH   1  28
TORSDOF 12
ENDMDL
MODEL 7
REMARK VINA RESULT:      -7.7      0.979      1.267
REMARK  Name = 
REMARK  13 active torsions:
REMARK  status: ('A' for Active; 'I' for Inactive)
REMARK    1  A    between atoms: C_1  and  N_2
REMARK    2  A    between atoms: N_2  and  C_3
REMARK    3  A    between atoms: N_12  and  C_13
REMARK    4  A    between atoms: C_13  and  C_14
REMARK    5  A    between atoms: C_14  and  C_15
REMARK    6  A    between atoms: C_14  and  C_26
REMARK    7  A    between atoms: C_15  and  O_16
REMARK    8  A    between atoms: O_16  and  C_17
REMARK    9  A    between atoms: N_19  and  C_20
REMARK   10  A    between atoms: C_26  and  O_27
REMARK   11  A    between atoms: O_27  and  P_28
REMARK   12  A    between atoms: P_28  and  O_30
REMARK   13  A    between atoms: P_28  and  O_31
REMARK                            x       y       z     vdW  Elec       q    Type
REMARK                         _______ _______ _______ _____ _____    ______ ____
ROOT
ATOM      1  C   UNL     1       3.398   5.846  18.605  0.00  0.00    +0.000 C 
ENDROOT
BRANCH   1   2
ATOM      2  C   UNL     1       2.634   6.701  19.638  0.00  0.00    +0.000 C 
BRANCH   2  12
ATOM      3  C   UNL     1       0.182  10.847  19.147  0.00  0.00    +0.000 A 
ATOM      4  N   UNL     1      -0.301  10.831  20.416  0.00  0.00    +0.000 NA
ATOM      5  C   UNL     1       0.099   9.846  21.241  0.00  0.00    +0.000 A 
ATOM      6 CL   UNL     1      -0.617   9.858  22.796  0.00  0.00    +0.000 Cl
ATOM      7  N   UNL     1       0.936   8.821  20.998  0.00  0.00    +0.000 NA
ATOM      8  C   UNL     1       1.388   8.878  19.737  0.00  0.00    +0.000 A 
ATOM      9  C   UNL     1       1.086   9.830  18.776  0.00  0.00    +0.000 A 
ATOM     10  N   UNL     1       1.746   9.553  17.594  0.00  0.00    +0.000 NA
ATOM     11  C   UNL     1       2.398   8.431  17.824  0.00  0.00    +0.000 A 
ATOM     12  N   UNL     1       2.188   7.973  19.097  0.00  0.00    +0.000 N 
BRANCH   3  14
ATOM     13  C   UNL     1      -1.658  12.124  18.280  0.00  0.00    +0.000 C 
ATOM     14  N   UNL     1      -0.245  11.820  18.240  0.00  0.00    +0.000 N 
ATOM     15  H   UNL     1       0.395  12.611  18.223  0.00  0.00    +0.000 HD
ENDBRANCH   3  14
ENDBRANCH   2  12
ENDBRANCH   1   2
BRANCH   1  16
ATOM     16  C   UNL     1       4.898   5.759  18.903  0.00  0.00    +0.000 C 
BRANCH  16  17
ATOM     17  O   UNL     1       5.661   6.349  17.826  0.00  0.00    +0.000 OA
BRANCH  17  18
ATOM     18  C   UNL     1       6.202   5.461  16.953  0.00  0.00    +0.000 C 
ATOM     19  O   UNL     1       6.913   4.529  17.294  0.00  0.00    +0.000 OA
ATOM     20  N   UNL     1       5.878   5.824  15.660  0.00  0.00    +0.000 N 
ATOM     21  H   UNL     1       5.400   6.705  15.562  0.00  0.00    +0.000 HD
BRANCH  20  22
ATOM     22  C   UNL     1       6.192   5.094  14.495  0.00  0.00    +0.000 A 
ATOM     23  C   UNL     1       5.352   4.112  13.963  0.00  0.00    +0.000 A 
ATOM     24  C   UNL     1       5.690   3.434  12.792  0.00  0.00    +0.000 A 
ATOM     25  C   UNL     1       6.882   3.724  12.138  0.00  0.00    +0.000 A 
ATOM     26  C   UNL     1       7.734   4.698  12.658  0.00  0.00    +0.000 A 
ATOM     27  C   UNL     1       7.384   5.388  13.827  0.00  0.00    +0.000 A 
ENDBRANCH  20  22
ENDBRANCH  17  18
ENDBRANCH  16  17
ENDBRANCH   1  16
BRANCH   1  28
ATOM     28  C   UNL     1       2.812   4.431  18.531  0.00  0.00    +0.000 C 
BRANCH  28  29
ATOM     29  O   UNL     1       3.481   3.583  19.448  0.00  0.00    +0.000 OA
BRANCH  29  30
ATOM     30  P   UNL     1       3.773   2.002  18.807  0.00  0.00    +0.000 P 
ATOM     31  O   UNL     1       2.318   1.851  18.375  0.00  0.00    +0.000 OA
BRANCH  30  32
ATOM     32  O   UNL     1       4.533   2.663  17.532  0.00  0.00    +0.000 OA
ATOM     33  H   UNL     1       5.490   2.549  17.647  0.00  0.00    +0.000 HD
ENDBRANCH  30  32
BRANCH  30  34
ATOM     34  O   UNL     1       4.065   0.422  18.167  0.00  0.00    +0.000 OA
ATOM     35  H   UNL     1       4.989   0.225  18.418  0.00  0.00    +0.000 HD
ENDBRANCH  30  34
ENDBRANCH  29  30
ENDBRANCH  28  29
ENDBRANCH   1  28
TORSDOF 12
ENDMDL
MODEL 8
REMARK VINA RESULT:      -7.6      0.998      1.444
REMARK  Name = 
REMARK  13 active torsions:
REMARK  status: ('A' for Active; 'I' for Inactive)
REMARK    1  A    between atoms: C_1  and  N_2
REMARK    2  A    between atoms: N_2  and  C_3
REMARK    3  A    between atoms: N_12  and  C_13
REMARK    4  A    between atoms: C_13  and  C_14
REMARK    5  A    between atoms: C_14  and  C_15
REMARK    6  A    between atoms: C_14  and  C_26
REMARK    7  A    between atoms: C_15  and  O_16
REMARK    8  A    between atoms: O_16  and  C_17
REMARK    9  A    between atoms: N_19  and  C_20
REMARK   10  A    between atoms: C_26  and  O_27
REMARK   11  A    between atoms: O_27  and  P_28
REMARK   12  A    between atoms: P_28  and  O_30
REMARK   13  A    between atoms: P_28  and  O_31
REMARK                            x       y       z     vdW  Elec       q    Type
REMARK                         _______ _______ _______ _____ _____    ______ ____
ROOT
ATOM      1  C   UNL     1       3.254   6.010  18.280  0.00  0.00    +0.000 C 
ENDROOT
BRANCH   1   2
ATOM      2  C   UNL     1       2.610   6.787  19.447  0.00  0.00    +0.000 C 
BRANCH   2  12
ATOM      3  C   UNL     1       0.089  10.920  19.466  0.00  0.00    +0.000 A 
ATOM      4  N   UNL     1      -0.337  10.774  20.748  0.00  0.00    +0.000 NA
ATOM      5  C   UNL     1       0.113   9.722  21.456  0.00  0.00    +0.000 A 
ATOM      6 CL   UNL     1      -0.532   9.573  23.034  0.00  0.00    +0.000 Cl
ATOM      7  N   UNL     1       0.951   8.739  21.079  0.00  0.00    +0.000 NA
ATOM      8  C   UNL     1       1.344   8.924  19.810  0.00  0.00    +0.000 A 
ATOM      9  C   UNL     1       0.988   9.958  18.959  0.00  0.00    +0.000 A 
ATOM     10  N   UNL     1       1.596   9.807  17.729  0.00  0.00    +0.000 NA
ATOM     11  C   UNL     1       2.272   8.679  17.821  0.00  0.00    +0.000 A 
ATOM     12  N   UNL     1       2.125   8.097  19.051  0.00  0.00    +0.000 N 
BRANCH   3  14
ATOM     13  C   UNL     1      -1.628  11.700  17.978  0.00  0.00    +0.000 C 
ATOM     14  N   UNL     1      -0.391  11.968  18.677  0.00  0.00    +0.000 N 
ATOM     15  H   UNL     1      -0.325  12.857  19.168  0.00  0.00    +0.000 HD
ENDBRANCH   3  14
ENDBRANCH   2  12
ENDBRANCH   1   2
BRANCH   1  16
ATOM     16  C   UNL     1       4.594   5.372  18.661  0.00  0.00    +0.000 C 
BRANCH  16  17
ATOM     17  O   UNL     1       4.837   4.193  17.861  0.00  0.00    +0.000 OA
BRANCH  17  18
ATOM     18  C   UNL     1       5.799   4.332  16.912  0.00  0.00    +0.000 C 
ATOM     19  O   UNL     1       6.975   4.530  17.171  0.00  0.00    +0.000 OA
ATOM     20  N   UNL     1       5.225   4.282  15.657  0.00  0.00    +0.000 N 
ATOM     21  H   UNL     1       4.219   4.254  15.639  0.00  0.00    +0.000 HD
BRANCH  20  22
ATOM     22  C   UNL     1       5.921   4.307  14.431  0.00  0.00    +0.000 A 
ATOM     23  C   UNL     1       7.055   5.096  14.217  0.00  0.00    +0.000 A 
ATOM     24  C   UNL     1       7.730   5.068  12.995  0.00  0.00    +0.000 A 
ATOM     25  C   UNL     1       7.273   4.254  11.965  0.00  0.00    +0.000 A 
ATOM     26  C   UNL     1       6.140   3.465  12.161  0.00  0.00    +0.000 A 
ATOM     27  C   UNL     1       5.474   3.484  13.394  0.00  0.00    +0.000 A 
ENDBRANCH  20  22
ENDBRANCH  17  18
ENDBRANCH  16  17
ENDBRANCH   1  16
BRANCH   1  28
ATOM     28  C   UNL     1       2.304   4.924  17.761  0.00  0.00    +0.000 C 
BRANCH  28  29
ATOM     29  O   UNL     1       1.541   4.398  18.833  0.00  0.00    +0.000 OA
BRANCH  29  30
ATOM     30  P   UNL     1       1.744   2.690  19.025  0.00  0.00    +0.000 P 
ATOM     31  O   UNL     1       0.263   2.432  18.770  0.00  0.00    +0.000 OA
BRANCH  30  32
ATOM     32  O   UNL     1       2.451   2.613  17.564  0.00  0.00    +0.000 OA
ATOM     33  H   UNL     1       3.161   3.273  17.527  0.00  0.00    +0.000 HD
ENDBRANCH  30  32
BRANCH  30  34
ATOM     34  O   UNL     1       1.948   0.984  19.217  0.00  0.00    +0.000 OA
ATOM     35  H   UNL     1       2.742   0.896  19.781  0.00  0.00    +0.000 HD
ENDBRANCH  30  34
ENDBRANCH  29  30
ENDBRANCH  28  29
ENDBRANCH   1  28
TORSDOF 12
ENDMDL
MODEL 9
REMARK VINA RESULT:      -7.6      1.064      1.196
REMARK  Name = 
REMARK  13 active torsions:
REMARK  status: ('A' for Active; 'I' for Inactive)
REMARK    1  A    between atoms: C_1  and  N_2
REMARK    2  A    between atoms: N_2  and  C_3
REMARK    3  A    between atoms: N_12  and  C_13
REMARK    4  A    between atoms: C_13  and  C_14
REMARK    5  A    between atoms: C_14  and  C_15
REMARK    6  A    between atoms: C_14  and  C_26
REMARK    7  A    between atoms: C_15  and  O_16
REMARK    8  A    between atoms: O_16  and  C_17
REMARK    9  A    between atoms: N_19  and  C_20
REMARK   10  A    between atoms: C_26  and  O_27
REMARK   11  A    between atoms: O_27  and  P_28
REMARK   12  A    between atoms: P_28  and  O_30
REMARK   13  A    between atoms: P_28  and  O_31
REMARK                            x       y       z     vdW  Elec       q    Type
REMARK                         _______ _______ _______ _____ _____    ______ ____
ROOT
ATOM      1  C   UNL     1       3.341   6.286  18.120  0.00  0.00    +0.000 C 
ENDROOT
BRANCH   1   2
ATOM      2  C   UNL     1       2.711   6.928  19.374  0.00  0.00    +0.000 C 
BRANCH   2  12
ATOM      3  C   UNL     1      -0.232  10.739  19.883  0.00  0.00    +0.000 A 
ATOM      4  N   UNL     1      -0.384  10.572  21.222  0.00  0.00    +0.000 NA
ATOM      5  C   UNL     1       0.313   9.595  21.829  0.00  0.00    +0.000 A 
ATOM      6 CL   UNL     1       0.004   9.405  23.502  0.00  0.00    +0.000 Cl
ATOM      7  N   UNL     1       1.174   8.708  21.297  0.00  0.00    +0.000 NA
ATOM      8  C   UNL     1       1.293   8.910  19.977  0.00  0.00    +0.000 A 
ATOM      9  C   UNL     1       0.661   9.877  19.211  0.00  0.00    +0.000 A 
ATOM     10  N   UNL     1       1.036   9.771  17.886  0.00  0.00    +0.000 NA
ATOM     11  C   UNL     1       1.846   8.732  17.846  0.00  0.00    +0.000 A 
ATOM     12  N   UNL     1       2.007   8.164  19.081  0.00  0.00    +0.000 N 
BRANCH   3  14
ATOM     13  C   UNL     1      -0.835  13.057  19.700  0.00  0.00    +0.000 C 
ATOM     14  N   UNL     1      -0.974  11.706  19.202  0.00  0.00    +0.000 N 
ATOM     15  H   UNL     1      -0.906  11.579  18.195  0.00  0.00    +0.000 HD
ENDBRANCH   3  14
ENDBRANCH   2  12
ENDBRANCH   1   2
BRANCH   1  16
ATOM     16  C   UNL     1       4.801   5.875  18.337  0.00  0.00    +0.000 C 
BRANCH  16  17
ATOM     17  O   UNL     1       5.024   4.532  17.851  0.00  0.00    +0.000 OA
BRANCH  17  18
ATOM     18  C   UNL     1       5.963   4.423  16.875  0.00  0.00    +0.000 C 
ATOM     19  O   UNL     1       7.156   4.295  17.101  0.00  0.00    +0.000 OA
ATOM     20  N   UNL     1       5.364   4.549  15.637  0.00  0.00    +0.000 N 
ATOM     21  H   UNL     1       4.387   4.792  15.649  0.00  0.00    +0.000 HD
BRANCH  20  22
ATOM     22  C   UNL     1       6.008   4.407  14.391  0.00  0.00    +0.000 A 
ATOM     23  C   UNL     1       5.554   3.538  13.395  0.00  0.00    +0.000 A 
ATOM     24  C   UNL     1       6.207   3.450  12.165  0.00  0.00    +0.000 A 
ATOM     25  C   UNL     1       7.333   4.227  11.917  0.00  0.00    +0.000 A 
ATOM     26  C   UNL     1       7.802   5.095  12.901  0.00  0.00    +0.000 A 
ATOM     27  C   UNL     1       7.135   5.192  14.130  0.00  0.00    +0.000 A 
ENDBRANCH  20  22
ENDBRANCH  17  18
ENDBRANCH  16  17
ENDBRANCH   1  16
BRANCH   1  28
ATOM     28  C   UNL     1       2.531   5.065  17.669  0.00  0.00    +0.000 C 
BRANCH  28  29
ATOM     29  O   UNL     1       1.710   4.611  18.731  0.00  0.00    +0.000 OA
BRANCH  29  30
ATOM     30  P   UNL     1       1.712   2.888  18.890  0.00  0.00    +0.000 P 
ATOM     31  O   UNL     1       2.030   2.700  17.410  0.00  0.00    +0.000 OA
BRANCH  30  32
ATOM     32  O   UNL     1       3.155   2.961  19.632  0.00  0.00    +0.000 OA
ATOM     33  H   UNL     1       3.793   3.381  19.033  0.00  0.00    +0.000 HD
ENDBRANCH  30  32
BRANCH  30  34
ATOM     34  O   UNL     1       1.714   1.166  19.048  0.00  0.00    +0.000 OA
ATOM     35  H   UNL     1       2.380   0.986  19.740  0.00  0.00    +0.000 HD
ENDBRANCH  30  34
ENDBRANCH  29  30
ENDBRANCH  28  29
ENDBRANCH   1  28
TORSDOF 12
ENDMDL
