MODEL 1
REMARK VINA RESULT:      -7.8      0.000      0.000
REMARK  Name = 
REMARK  10 active torsions:
REMARK  status: ('A' for Active; 'I' for Inactive)
REMARK    1  A    between atoms: C_1  and  C_2
REMARK    2  A    between atoms: C_2  and  O_3
REMARK    3  A    between atoms: O_3  and  C_4
REMARK    4  A    between atoms: C_9  and  C_10
REMARK    5  A    between atoms: N_12  and  C_13
REMARK    6  A    between atoms: C_15  and  C_16
REMARK    7  A    between atoms: N_18  and  C_19
REMARK    8  A    between atoms: C_19  and  C_20
REMARK    9  A    between atoms: C_20  and  C_21
REMARK   10  A    between atoms: C_20  and  C_22
REMARK                            x       y       z     vdW  Elec       q    Type
REMARK                         _______ _______ _______ _____ _____    ______ ____
ROOT
ATOM      1  C   UNL     1       2.629   5.891  19.240  0.00  0.00    +0.000 A 
ATOM      2  C   UNL     1       3.624   6.224  18.312  0.00  0.00    +0.000 A 
ATOM      3  C   UNL     1       4.253   5.257  17.521  0.00  0.00    +0.000 A 
ATOM      4  C   UNL     1       3.852   3.925  17.626  0.00  0.00    +0.000 A 
ATOM      5  C   UNL     1       2.821   3.574  18.506  0.00  0.00    +0.000 A 
ATOM      6  C   UNL     1       2.203   4.553  19.297  0.00  0.00    +0.000 A 
ATOM      7 CL   UNL     1       0.923   4.064  20.347  0.00  0.00    +0.000 Cl
ENDROOT
BRANCH   1  10
ATOM      8  C   UNL     1       1.658   8.146  19.647  0.00  0.00    +0.000 C 
ATOM      9  O   UNL     1       1.894   8.584  18.521  0.00  0.00    +0.000 OA
ATOM     10  N   UNL     1       2.046   6.885  20.076  0.00  0.00    +0.000 N 
ATOM     11  H   UNL     1       2.021   6.701  21.077  0.00  0.00    +0.000 HD
BRANCH   8  17
ATOM     12  C   UNL     1       0.234  10.217  20.256  0.00  0.00    +0.000 A 
ATOM     13  C   UNL     1      -0.424  10.941  21.268  0.00  0.00    +0.000 A 
ATOM     14  C   UNL     1      -0.319  10.566  22.611  0.00  0.00    +0.000 A 
ATOM     15  C   UNL     1       0.412   9.442  22.958  0.00  0.00    +0.000 A 
ATOM     16  C   UNL     1       1.018   8.683  21.960  0.00  0.00    +0.000 A 
ATOM     17  C   UNL     1       0.935   9.050  20.597  0.00  0.00    +0.000 A 
BRANCH  12  18
ATOM     18  O   UNL     1       0.212  10.611  18.941  0.00  0.00    +0.000 OA
BRANCH  18  20
ATOM     19  C   UNL     1      -1.588  10.041  17.470  0.00  0.00    +0.000 C 
ATOM     20  C   UNL     1      -1.059  11.062  18.457  0.00  0.00    +0.000 C 
ENDBRANCH  18  20
ENDBRANCH  12  18
ENDBRANCH   8  17
ENDBRANCH   1  10
BRANCH   3  21
ATOM     21  C   UNL     1       5.295   5.643  16.528  0.00  0.00    +0.000 C 
ATOM     22  O   UNL     1       5.431   6.825  16.218  0.00  0.00    +0.000 OA
ATOM     23  N   UNL     1       6.063   4.622  16.005  0.00  0.00    +0.000 N 
ATOM     24  H   UNL     1       5.844   3.659  16.231  0.00  0.00    +0.000 HD
BRANCH  23  25
ATOM     25  C   UNL     1       7.187   4.858  15.124  0.00  0.00    +0.000 C 
BRANCH  25  26
ATOM     26  C   UNL     1       6.778   4.929  13.643  0.00  0.00    +0.000 C 
ATOM     27  C   UNL     1       7.964   5.259  12.733  0.00  0.00    +0.000 C 
ATOM     28  C   UNL     1       6.156   3.598  13.213  0.00  0.00    +0.000 C 
ENDBRANCH  25  26
ENDBRANCH  23  25
ENDBRANCH   3  21
TORSDOF 7
ENDMDL
MODEL 2
REMARK VINA RESULT:      -7.8      2.802      9.129
REMARK  Name = 
REMARK  10 active torsions:
REMARK  status: ('A' for Active; 'I' for Inactive)
REMARK    1  A    between atoms: C_1  and  C_2
REMARK    2  A    between atoms: C_2  and  O_3
REMARK    3  A    between atoms: O_3  and  C_4
REMARK    4  A    between atoms: C_9  and  C_10
REMARK    5  A    between atoms: N_12  and  C_13
REMARK    6  A    between atoms: C_15  and  C_16
REMARK    7  A    between atoms: N_18  and  C_19
REMARK    8  A    between atoms: C_19  and  C_20
REMARK    9  A    between atoms: C_20  and  C_21
REMARK   10  A    between atoms: C_20  and  C_22
REMARK                            x       y       z     vdW  Elec       q    Type
REMARK                         _______ _______ _______ _____ _____    ______ ____
ROOT
ATOM      1  C   UNL     1       1.711   8.258  20.181  0.00  0.00    +0.000 A 
ATOM      2  C   UNL     1       1.052   8.757  21.312  0.00  0.00    +0.000 A 
ATOM      3  C   UNL     1       0.365   9.976  21.292  0.00  0.00    +0.000 A 
ATOM      4  C   UNL     1       0.297  10.700  20.102  0.00  0.00    +0.000 A 
ATOM      5  C   UNL     1       0.900  10.196  18.943  0.00  0.00    +0.000 A 
ATOM      6  C   UNL     1       1.590   8.976  18.978  0.00  0.00    +0.000 A 
ATOM      7 CL   UNL     1       2.295   8.395  17.513  0.00  0.00    +0.000 Cl
ENDROOT
BRANCH   1  10
ATOM      8  C   UNL     1       1.890   5.780  20.330  0.00  0.00    +0.000 C 
ATOM      9  O   UNL     1       0.686   5.582  20.492  0.00  0.00    +0.000 OA
ATOM     10  N   UNL     1       2.453   7.046  20.242  0.00  0.00    +0.000 N 
ATOM     11  H   UNL     1       3.464   7.118  20.348  0.00  0.00    +0.000 HD
BRANCH   8  17
ATOM     12  C   UNL     1       3.851   4.399  19.365  0.00  0.00    +0.000 A 
ATOM     13  C   UNL     1       4.616   3.220  19.444  0.00  0.00    +0.000 A 
ATOM     14  C   UNL     1       4.275   2.194  20.329  0.00  0.00    +0.000 A 
ATOM     15  C   UNL     1       3.188   2.346  21.175  0.00  0.00    +0.000 A 
ATOM     16  C   UNL     1       2.460   3.533  21.149  0.00  0.00    +0.000 A 
ATOM     17  C   UNL     1       2.780   4.578  20.253  0.00  0.00    +0.000 A 
BRANCH  12  18
ATOM     18  O   UNL     1       4.120   5.385  18.448  0.00  0.00    +0.000 OA
BRANCH  18  20
ATOM     19  C   UNL     1       5.015   6.122  16.354  0.00  0.00    +0.000 C 
ATOM     20  C   UNL     1       4.547   4.927  17.160  0.00  0.00    +0.000 C 
ENDBRANCH  18  20
ENDBRANCH  12  18
ENDBRANCH   8  17
ENDBRANCH   1  10
BRANCH   3  21
ATOM     21  C   UNL     1      -0.345  10.471  22.505  0.00  0.00    +0.000 C 
ATOM     22  O   UNL     1      -0.201   9.885  23.576  0.00  0.00    +0.000 OA
ATOM     23  N   UNL     1      -1.139  11.588  22.346  0.00  0.00    +0.000 N 
ATOM     24  H   UNL     1      -1.289  11.974  21.422  0.00  0.00    +0.000 HD
BRANCH  23  25
ATOM     25  C   UNL     1      -1.792  12.252  23.455  0.00  0.00    +0.000 C 
BRANCH  25  26
ATOM     26  C   UNL     1      -3.325  12.165  23.382  0.00  0.00    +0.000 C 
ATOM     27  C   UNL     1      -4.000  12.870  24.561  0.00  0.00    +0.000 C 
ATOM     28  C   UNL     1      -3.817  12.779  22.068  0.00  0.00    +0.000 C 
ENDBRANCH  25  26
ENDBRANCH  23  25
ENDBRANCH   3  21
TORSDOF 7
ENDMDL
MODEL 3
REMARK VINA RESULT:      -7.8      2.511      4.149
REMARK  Name = 
REMARK  10 active torsions:
REMARK  status: ('A' for Active; 'I' for Inactive)
REMARK    1  A    between atoms: C_1  and  C_2
REMARK    2  A    between atoms: C_2  and  O_3
REMARK    3  A    between atoms: O_3  and  C_4
REMARK    4  A    between atoms: C_9  and  C_10
REMARK    5  A    between atoms: N_12  and  C_13
REMARK    6  A    between atoms: C_15  and  C_16
REMARK    7  A    between atoms: N_18  and  C_19
REMARK    8  A    between atoms: C_19  and  C_20
REMARK    9  A    between atoms: C_20  and  C_21
REMARK   10  A    between atoms: C_20  and  C_22
REMARK                            x       y       z     vdW  Elec       q    Type
REMARK                         _______ _______ _______ _____ _____    ______ ____
ROOT
ATOM      1  C   UNL     1       5.566   6.050  17.105  0.00  0.00    +0.000 A 
ATOM      2  C   UNL     1       5.837   5.901  15.738  0.00  0.00    +0.000 A 
ATOM      3  C   UNL     1       6.841   5.045  15.271  0.00  0.00    +0.000 A 
ATOM      4  C   UNL     1       7.568   4.284  16.186  0.00  0.00    +0.000 A 
ATOM      5  C   UNL     1       7.278   4.373  17.552  0.00  0.00    +0.000 A 
ATOM      6  C   UNL     1       6.275   5.238  18.008  0.00  0.00    +0.000 A 
ATOM      7 CL   UNL     1       5.948   5.289  19.703  0.00  0.00    +0.000 Cl
ENDROOT
BRANCH   1  10
ATOM      8  C   UNL     1       3.283   6.629  17.909  0.00  0.00    +0.000 C 
ATOM      9  O   UNL     1       2.808   5.505  17.742  0.00  0.00    +0.000 OA
ATOM     10  N   UNL     1       4.582   6.971  17.559  0.00  0.00    +0.000 N 
ATOM     11  H   UNL     1       4.809   7.963  17.512  0.00  0.00    +0.000 HD
BRANCH   8  17
ATOM     12  C   UNL     1       1.924   7.713  19.823  0.00  0.00    +0.000 A 
ATOM     13  C   UNL     1       1.111   8.786  20.232  0.00  0.00    +0.000 A 
ATOM     14  C   UNL     1       0.687   9.760  19.324  0.00  0.00    +0.000 A 
ATOM     15  C   UNL     1       1.101   9.698  18.003  0.00  0.00    +0.000 A 
ATOM     16  C   UNL     1       1.955   8.675  17.600  0.00  0.00    +0.000 A 
ATOM     17  C   UNL     1       2.386   7.672  18.498  0.00  0.00    +0.000 A 
BRANCH  12  18
ATOM     18  O   UNL     1       2.287   6.702  20.678  0.00  0.00    +0.000 OA
BRANCH  18  20
ATOM     19  C   UNL     1       2.129   4.346  21.072  0.00  0.00    +0.000 C 
ATOM     20  C   UNL     1       1.358   5.616  20.775  0.00  0.00    +0.000 C 
ENDBRANCH  18  20
ENDBRANCH  12  18
ENDBRANCH   8  17
ENDBRANCH   1  10
BRANCH   3  21
ATOM     21  C   UNL     1       7.093   4.892  13.810  0.00  0.00    +0.000 C 
ATOM     22  O   UNL     1       7.719   5.761  13.206  0.00  0.00    +0.000 OA
ATOM     23  N   UNL     1       6.595   3.753  13.210  0.00  0.00    +0.000 N 
ATOM     24  H   UNL     1       6.010   3.118  13.740  0.00  0.00    +0.000 HD
BRANCH  23  25
ATOM     25  C   UNL     1       6.864   3.411  11.829  0.00  0.00    +0.000 C 
BRANCH  25  26
ATOM     26  C   UNL     1       5.691   2.677  11.159  0.00  0.00    +0.000 C 
ATOM     27  C   UNL     1       5.807   1.157  11.300  0.00  0.00    +0.000 C 
ATOM     28  C   UNL     1       4.368   3.148  11.769  0.00  0.00    +0.000 C 
ENDBRANCH  25  26
ENDBRANCH  23  25
ENDBRANCH   3  21
TORSDOF 7
ENDMDL
MODEL 4
REMARK VINA RESULT:      -7.7      1.295      1.613
REMARK  Name = 
REMARK  10 active torsions:
REMARK  status: ('A' for Active; 'I' for Inactive)
REMARK    1  A    between atoms: C_1  and  C_2
REMARK    2  A    between atoms: C_2  and  O_3
REMARK    3  A    between atoms: O_3  and  C_4
REMARK    4  A    between atoms: C_9  and  C_10
REMARK    5  A    between atoms: N_12  and  C_13
REMARK    6  A    between atoms: C_15  and  C_16
REMARK    7  A    between atoms: N_18  and  C_19
REMARK    8  A    between atoms: C_19  and  C_20
REMARK    9  A    between atoms: C_20  and  C_21
REMARK   10  A    between atoms: C_20  and  C_22
REMARK                            x       y       z     vdW  Elec       q    Type
REMARK                         _______ _______ _______ _____ _____    ______ ____
ROOT
ATOM      1  C   UNL     1       2.765   6.254  18.872  0.00  0.00    +0.000 A 
ATOM      2  C   UNL     1       3.677   6.485  17.833  0.00  0.00    +0.000 A 
ATOM      3  C   UNL     1       4.232   5.439  17.088  0.00  0.00    +0.000 A 
ATOM      4  C   UNL     1       3.838   4.128  17.355  0.00  0.00    +0.000 A 
ATOM      5  C   UNL     1       2.886   3.875  18.350  0.00  0.00    +0.000 A 
ATOM      6  C   UNL     1       2.342   4.932  19.093  0.00  0.00    +0.000 A 
ATOM      7 CL   UNL     1       1.157   4.560  20.293  0.00  0.00    +0.000 Cl
ENDROOT
BRANCH   1  10
ATOM      8  C   UNL     1       1.542   8.404  19.149  0.00  0.00    +0.000 C 
ATOM      9  O   UNL     1       1.374   8.603  17.946  0.00  0.00    +0.000 OA
ATOM     10  N   UNL     1       2.260   7.329  19.655  0.00  0.00    +0.000 N 
ATOM     11  H   UNL     1       2.546   7.374  20.632  0.00  0.00    +0.000 HD
BRANCH   8  17
ATOM     12  C   UNL     1       0.989  10.796  19.958  0.00  0.00    +0.000 A 
ATOM     13  C   UNL     1       0.356  11.598  20.925  0.00  0.00    +0.000 A 
ATOM     14  C   UNL     1      -0.231  11.034  22.062  0.00  0.00    +0.000 A 
ATOM     15  C   UNL     1      -0.226   9.659  22.229  0.00  0.00    +0.000 A 
ATOM     16  C   UNL     1       0.344   8.851  21.249  0.00  0.00    +0.000 A 
ATOM     17  C   UNL     1       0.953   9.400  20.098  0.00  0.00    +0.000 A 
BRANCH  12  18
ATOM     18  O   UNL     1       1.641  11.333  18.874  0.00  0.00    +0.000 OA
BRANCH  18  20
ATOM     19  C   UNL     1       2.656  13.460  18.459  0.00  0.00    +0.000 C 
ATOM     20  C   UNL     1       1.348  12.708  18.601  0.00  0.00    +0.000 C 
ENDBRANCH  18  20
ENDBRANCH  12  18
ENDBRANCH   8  17
ENDBRANCH   1  10
BRANCH   3  21
ATOM     21  C   UNL     1       5.184   5.717  15.975  0.00  0.00    +0.000 C 
ATOM     22  O   UNL     1       5.419   6.880  15.653  0.00  0.00    +0.000 OA
ATOM     23  N   UNL     1       5.757   4.622  15.361  0.00  0.00    +0.000 N 
ATOM     24  H   UNL     1       5.456   3.688  15.611  0.00  0.00    +0.000 HD
BRANCH  23  25
ATOM     25  C   UNL     1       6.787   4.739  14.350  0.00  0.00    +0.000 C 
BRANCH  25  26
ATOM     26  C   UNL     1       6.533   3.831  13.135  0.00  0.00    +0.000 C 
ATOM     27  C   UNL     1       5.041   3.697  12.818  0.00  0.00    +0.000 C 
ATOM     28  C   UNL     1       7.269   4.385  11.912  0.00  0.00    +0.000 C 
ENDBRANCH  25  26
ENDBRANCH  23  25
ENDBRANCH   3  21
TORSDOF 7
ENDMDL
MODEL 5
REMARK VINA RESULT:      -7.6      2.710      8.032
REMARK  Name = 
REMARK  10 active torsions:
REMARK  status: ('A' for Active; 'I' for Inactive)
REMARK    1  A    between atoms: C_1  and  C_2
REMARK    2  A    between atoms: C_2  and  O_3
REMARK    3  A    between atoms: O_3  and  C_4
REMARK    4  A    between atoms: C_9  and  C_10
REMARK    5  A    between atoms: N_12  and  C_13
REMARK    6  A    between atoms: C_15  and  C_16
REMARK    7  A    between atoms: N_18  and  C_19
REMARK    8  A    between atoms: C_19  and  C_20
REMARK    9  A    between atoms: C_20  and  C_21
REMARK   10  A    between atoms: C_20  and  C_22
REMARK                            x       y       z     vdW  Elec       q    Type
REMARK                         _______ _______ _______ _____ _____    ______ ____
ROOT
ATOM      1  C   UNL     1       2.324   7.427  18.671  0.00  0.00    +0.000 A 
ATOM      2  C   UNL     1       2.019   8.740  18.287  0.00  0.00    +0.000 A 
ATOM      3  C   UNL     1       1.325   9.616  19.130  0.00  0.00    +0.000 A 
ATOM      4  C   UNL     1       0.960   9.188  20.406  0.00  0.00    +0.000 A 
ATOM      5  C   UNL     1       1.302   7.899  20.833  0.00  0.00    +0.000 A 
ATOM      6  C   UNL     1       1.992   7.030  19.977  0.00  0.00    +0.000 A 
ATOM      7 CL   UNL     1       2.405   5.461  20.567  0.00  0.00    +0.000 Cl
ENDROOT
BRANCH   1  10
ATOM      8  C   UNL     1       4.308   6.635  17.394  0.00  0.00    +0.000 C 
ATOM      9  O   UNL     1       5.033   7.583  17.699  0.00  0.00    +0.000 OA
ATOM     10  N   UNL     1       2.977   6.537  17.773  0.00  0.00    +0.000 N 
ATOM     11  H   UNL     1       2.400   5.853  17.286  0.00  0.00    +0.000 HD
BRANCH   8  17
ATOM     12  C   UNL     1       4.978   4.193  16.874  0.00  0.00    +0.000 A 
ATOM     13  C   UNL     1       5.546   3.297  15.949  0.00  0.00    +0.000 A 
ATOM     14  C   UNL     1       6.115   3.751  14.756  0.00  0.00    +0.000 A 
ATOM     15  C   UNL     1       6.092   5.102  14.452  0.00  0.00    +0.000 A 
ATOM     16  C   UNL     1       5.480   5.992  15.331  0.00  0.00    +0.000 A 
ATOM     17  C   UNL     1       4.908   5.556  16.548  0.00  0.00    +0.000 A 
BRANCH  12  18
ATOM     18  O   UNL     1       4.485   3.780  18.087  0.00  0.00    +0.000 OA
BRANCH  18  20
ATOM     19  C   UNL     1       2.251   3.024  17.675  0.00  0.00    +0.000 C 
ATOM     20  C   UNL     1       3.660   2.609  18.047  0.00  0.00    +0.000 C 
ENDBRANCH  18  20
ENDBRANCH  12  18
ENDBRANCH   8  17
ENDBRANCH   1  10
BRANCH   3  21
ATOM     21  C   UNL     1       1.033  11.014  18.703  0.00  0.00    +0.000 C 
ATOM     22  O   UNL     1      -0.128  11.420  18.705  0.00  0.00    +0.000 OA
ATOM     23  N   UNL     1       2.112  11.785  18.323  0.00  0.00    +0.000 N 
ATOM     24  H   UNL     1       3.033  11.368  18.257  0.00  0.00    +0.000 HD
BRANCH  23  25
ATOM     25  C   UNL     1       1.997  13.192  18.000  0.00  0.00    +0.000 C 
BRANCH  25  26
ATOM     26  C   UNL     1       3.251  13.995  18.385  0.00  0.00    +0.000 C 
ATOM     27  C   UNL     1       3.340  15.322  17.627  0.00  0.00    +0.000 C 
ATOM     28  C   UNL     1       3.251  14.264  19.892  0.00  0.00    +0.000 C 
ENDBRANCH  25  26
ENDBRANCH  23  25
ENDBRANCH   3  21
TORSDOF 7
ENDMDL
MODEL 6
REMARK VINA RESULT:      -7.5      1.371      1.644
REMARK  Name = 
REMARK  10 active torsions:
REMARK  status: ('A' for Active; 'I' for Inactive)
REMARK    1  A    between atoms: C_1  and  C_2
REMARK    2  A    between atoms: C_2  and  O_3
REMARK    3  A    between atoms: O_3  and  C_4
REMARK    4  A    between atoms: C_9  and  C_10
REMARK    5  A    between atoms: N_12  and  C_13
REMARK    6  A    between atoms: C_15  and  C_16
REMARK    7  A    between atoms: N_18  and  C_19
REMARK    8  A    between atoms: C_19  and  C_20
REMARK    9  A    between atoms: C_20  and  C_21
REMARK   10  A    between atoms: C_20  and  C_22
REMARK                            x       y       z     vdW  Elec       q    Type
REMARK                         _______ _______ _______ _____ _____    ______ ____
ROOT
ATOM      1  C   UNL     1       2.901   5.596  19.765  0.00  0.00    +0.000 A 
ATOM      2  C   UNL     1       4.122   5.714  19.088  0.00  0.00    +0.000 A 
ATOM      3  C   UNL     1       4.738   4.617  18.476  0.00  0.00    +0.000 A 
ATOM      4  C   UNL     1       4.103   3.376  18.503  0.00  0.00    +0.000 A 
ATOM      5  C   UNL     1       2.856   3.244  19.126  0.00  0.00    +0.000 A 
ATOM      6  C   UNL     1       2.252   4.350  19.740  0.00  0.00    +0.000 A 
ATOM      7 CL   UNL     1       0.704   4.131  20.472  0.00  0.00    +0.000 Cl
ENDROOT
BRANCH   1  10
ATOM      8  C   UNL     1       1.825   7.841  19.792  0.00  0.00    +0.000 C 
ATOM      9  O   UNL     1       1.947   8.047  18.585  0.00  0.00    +0.000 OA
ATOM     10  N   UNL     1       2.323   6.713  20.431  0.00  0.00    +0.000 N 
ATOM     11  H   UNL     1       2.387   6.740  21.447  0.00  0.00    +0.000 HD
BRANCH   8  17
ATOM     12  C   UNL     1       0.959  10.234  20.243  0.00  0.00    +0.000 A 
ATOM     13  C   UNL     1       0.240  11.087  21.101  0.00  0.00    +0.000 A 
ATOM     14  C   UNL     1      -0.237  10.638  22.336  0.00  0.00    +0.000 A 
ATOM     15  C   UNL     1      -0.035   9.321  22.715  0.00  0.00    +0.000 A 
ATOM     16  C   UNL     1       0.623   8.451  21.848  0.00  0.00    +0.000 A 
ATOM     17  C   UNL     1       1.123   8.887  20.600  0.00  0.00    +0.000 A 
BRANCH  12  18
ATOM     18  O   UNL     1       1.505  10.675  19.062  0.00  0.00    +0.000 OA
BRANCH  18  20
ATOM     19  C   UNL     1       2.355  12.787  18.326  0.00  0.00    +0.000 C 
ATOM     20  C   UNL     1       1.109  11.990  18.656  0.00  0.00    +0.000 C 
ENDBRANCH  18  20
ENDBRANCH  12  18
ENDBRANCH   8  17
ENDBRANCH   1  10
BRANCH   3  21
ATOM     21  C   UNL     1       6.027   4.777  17.745  0.00  0.00    +0.000 C 
ATOM     22  O   UNL     1       7.066   4.349  18.243  0.00  0.00    +0.000 OA
ATOM     23  N   UNL     1       5.972   5.411  16.521  0.00  0.00    +0.000 N 
ATOM     24  H   UNL     1       5.102   5.822  16.203  0.00  0.00    +0.000 HD
BRANCH  23  25
ATOM     25  C   UNL     1       7.119   5.532  15.645  0.00  0.00    +0.000 C 
BRANCH  25  26
ATOM     26  C   UNL     1       7.059   4.566  14.451  0.00  0.00    +0.000 C 
ATOM     27  C   UNL     1       5.622   4.174  14.097  0.00  0.00    +0.000 C 
ATOM     28  C   UNL     1       7.729   5.206  13.232  0.00  0.00    +0.000 C 
ENDBRANCH  25  26
ENDBRANCH  23  25
ENDBRANCH   3  21
TORSDOF 7
ENDMDL
MODEL 7
REMARK VINA RESULT:      -7.5      1.030      2.270
REMARK  Name = 
REMARK  10 active torsions:
REMARK  status: ('A' for Active; 'I' for Inactive)
REMARK    1  A    between atoms: C_1  and  C_2
REMARK    2  A    between atoms: C_2  and  O_3
REMARK    3  A    between atoms: O_3  and  C_4
REMARK    4  A    between atoms: C_9  and  C_10
REMARK    5  A    between atoms: N_12  and  C_13
REMARK    6  A    between atoms: C_15  and  C_16
REMARK    7  A    between atoms: N_18  and  C_19
REMARK    8  A    between atoms: C_19  and  C_20
REMARK    9  A    between atoms: C_20  and  C_21
REMARK   10  A    between atoms: C_20  and  C_22
REMARK                            x       y       z     vdW  Elec       q    Type
REMARK                         _______ _______ _______ _____ _____    ______ ____
ROOT
ATOM      1  C   UNL     1       2.742   6.658  18.964  0.00  0.00    +0.000 A 
ATOM      2  C   UNL     1       3.744   6.795  17.995  0.00  0.00    +0.000 A 
ATOM      3  C   UNL     1       4.650   5.765  17.715  0.00  0.00    +0.000 A 
ATOM      4  C   UNL     1       4.529   4.550  18.390  0.00  0.00    +0.000 A 
ATOM      5  C   UNL     1       3.501   4.369  19.323  0.00  0.00    +0.000 A 
ATOM      6  C   UNL     1       2.604   5.411  19.597  0.00  0.00    +0.000 A 
ATOM      7 CL   UNL     1       1.344   5.122  20.742  0.00  0.00    +0.000 Cl
ENDROOT
BRANCH   1  10
ATOM      8  C   UNL     1       1.571   8.783  18.406  0.00  0.00    +0.000 C 
ATOM      9  O   UNL     1       2.129   8.946  17.321  0.00  0.00    +0.000 OA
ATOM     10  N   UNL     1       1.871   7.741  19.273  0.00  0.00    +0.000 N 
ATOM     11  H   UNL     1       1.540   7.818  20.233  0.00  0.00    +0.000 HD
BRANCH   8  17
ATOM     12  C   UNL     1       0.396  10.370  20.074  0.00  0.00    +0.000 A 
ATOM     13  C   UNL     1      -0.611  11.331  20.279  0.00  0.00    +0.000 A 
ATOM     14  C   UNL     1      -1.524  11.651  19.269  0.00  0.00    +0.000 A 
ATOM     15  C   UNL     1      -1.419  11.043  18.029  0.00  0.00    +0.000 A 
ATOM     16  C   UNL     1      -0.389  10.135  17.794  0.00  0.00    +0.000 A 
ATOM     17  C   UNL     1       0.537   9.789  18.805  0.00  0.00    +0.000 A 
BRANCH  12  18
ATOM     18  O   UNL     1       1.253   9.983  21.075  0.00  0.00    +0.000 OA
BRANCH  18  20
ATOM     19  C   UNL     1      -0.338   8.437  21.974  0.00  0.00    +0.000 C 
ATOM     20  C   UNL     1       0.625   9.562  22.292  0.00  0.00    +0.000 C 
ENDBRANCH  18  20
ENDBRANCH  12  18
ENDBRANCH   8  17
ENDBRANCH   1  10
BRANCH   3  21
ATOM     21  C   UNL     1       5.693   5.931  16.664  0.00  0.00    +0.000 C 
ATOM     22  O   UNL     1       6.128   7.053  16.411  0.00  0.00    +0.000 OA
ATOM     23  N   UNL     1       6.118   4.784  16.025  0.00  0.00    +0.000 N 
ATOM     24  H   UNL     1       5.659   3.901  16.214  0.00  0.00    +0.000 HD
BRANCH  23  25
ATOM     25  C   UNL     1       7.207   4.774  15.071  0.00  0.00    +0.000 C 
BRANCH  25  26
ATOM     26  C   UNL     1       6.725   4.908  13.617  0.00  0.00    +0.000 C 
ATOM     27  C   UNL     1       7.864   5.278  12.663  0.00  0.00    +0.000 C 
ATOM     28  C   UNL     1       6.081   3.595  13.162  0.00  0.00    +0.000 C 
ENDBRANCH  25  26
ENDBRANCH  23  25
ENDBRANCH   3  21
TORSDOF 7
ENDMDL
MODEL 8
REMARK VINA RESULT:      -7.5      1.939      8.294
REMARK  Name = 
REMARK  10 active torsions:
REMARK  status: ('A' for Active; 'I' for Inactive)
REMARK    1  A    between atoms: C_1  and  C_2
REMARK    2  A    between atoms: C_2  and  O_3
REMARK    3  A    between atoms: O_3  and  C_4
REMARK    4  A    between atoms: C_9  and  C_10
REMARK    5  A    between atoms: N_12  and  C_13
REMARK    6  A    between atoms: C_15  and  C_16
REMARK    7  A    between atoms: N_18  and  C_19
REMARK    8  A    between atoms: C_19  and  C_20
REMARK    9  A    between atoms: C_20  and  C_21
REMARK   10  A    between atoms: C_20  and  C_22
REMARK                            x       y       z     vdW  Elec       q    Type
REMARK                         _______ _______ _______ _____ _____    ______ ____
ROOT
ATOM      1  C   UNL     1       2.395   7.099  18.672  0.00  0.00    +0.000 A 
ATOM      2  C   UNL     1       1.893   8.354  18.303  0.00  0.00    +0.000 A 
ATOM      3  C   UNL     1       1.185   9.162  19.199  0.00  0.00    +0.000 A 
ATOM      4  C   UNL     1       1.006   8.728  20.513  0.00  0.00    +0.000 A 
ATOM      5  C   UNL     1       1.546   7.502  20.922  0.00  0.00    +0.000 A 
ATOM      6  C   UNL     1       2.249   6.700  20.012  0.00  0.00    +0.000 A 
ATOM      7 CL   UNL     1       2.911   5.210  20.580  0.00  0.00    +0.000 Cl
ENDROOT
BRANCH   1  10
ATOM      8  C   UNL     1       4.372   6.445  17.309  0.00  0.00    +0.000 C 
ATOM      9  O   UNL     1       5.061   7.417  17.621  0.00  0.00    +0.000 OA
ATOM     10  N   UNL     1       3.060   6.270  17.726  0.00  0.00    +0.000 N 
ATOM     11  H   UNL     1       2.500   5.576  17.234  0.00  0.00    +0.000 HD
BRANCH   8  17
ATOM     12  C   UNL     1       5.040   4.040  16.635  0.00  0.00    +0.000 A 
ATOM     13  C   UNL     1       5.634   3.207  15.669  0.00  0.00    +0.000 A 
ATOM     14  C   UNL     1       6.252   3.740  14.535  0.00  0.00    +0.000 A 
ATOM     15  C   UNL     1       6.252   5.111  14.330  0.00  0.00    +0.000 A 
ATOM     16  C   UNL     1       5.615   5.941  15.248  0.00  0.00    +0.000 A 
ATOM     17  C   UNL     1       4.994   5.424  16.408  0.00  0.00    +0.000 A 
BRANCH  12  18
ATOM     18  O   UNL     1       4.498   3.545  17.796  0.00  0.00    +0.000 OA
BRANCH  18  20
ATOM     19  C   UNL     1       3.127   1.984  18.985  0.00  0.00    +0.000 C 
ATOM     20  C   UNL     1       3.492   2.539  17.623  0.00  0.00    +0.000 C 
ENDBRANCH  18  20
ENDBRANCH  12  18
ENDBRANCH   8  17
ENDBRANCH   1  10
BRANCH   3  21
ATOM     21  C   UNL     1       0.679  10.501  18.784  0.00  0.00    +0.000 C 
ATOM     22  O   UNL     1       1.475  11.420  18.598  0.00  0.00    +0.000 OA
ATOM     23  N   UNL     1      -0.686  10.629  18.630  0.00  0.00    +0.000 N 
ATOM     24  H   UNL     1      -1.297   9.862  18.885  0.00  0.00    +0.000 HD
BRANCH  23  25
ATOM     25  C   UNL     1      -1.310  11.831  18.118  0.00  0.00    +0.000 C 
BRANCH  25  26
ATOM     26  C   UNL     1      -2.534  11.536  17.235  0.00  0.00    +0.000 C 
ATOM     27  C   UNL     1      -2.398  10.208  16.486  0.00  0.00    +0.000 C 
ATOM     28  C   UNL     1      -3.800  11.512  18.096  0.00  0.00    +0.000 C 
ENDBRANCH  25  26
ENDBRANCH  23  25
ENDBRANCH   3  21
TORSDOF 7
ENDMDL
MODEL 9
REMARK VINA RESULT:      -7.4      3.504      5.519
REMARK  Name = 
REMARK  10 active torsions:
REMARK  status: ('A' for Active; 'I' for Inactive)
REMARK    1  A    between atoms: C_1  and  C_2
REMARK    2  A    between atoms: C_2  and  O_3
REMARK    3  A    between atoms: O_3  and  C_4
REMARK    4  A    between atoms: C_9  and  C_10
REMARK    5  A    between atoms: N_12  and  C_13
REMARK    6  A    between atoms: C_15  and  C_16
REMARK    7  A    between atoms: N_18  and  C_19
REMARK    8  A    between atoms: C_19  and  C_20
REMARK    9  A    between atoms: C_20  and  C_21
REMARK   10  A    between atoms: C_20  and  C_22
REMARK                            x       y       z     vdW  Elec       q    Type
REMARK                         _______ _______ _______ _____ _____    ______ ____
ROOT
ATOM      1  C   UNL     1       5.282   4.594  16.575  0.00  0.00    +0.000 A 
ATOM      2  C   UNL     1       5.200   4.101  15.266  0.00  0.00    +0.000 A 
ATOM      3  C   UNL     1       6.182   4.375  14.308  0.00  0.00    +0.000 A 
ATOM      4  C   UNL     1       7.298   5.127  14.672  0.00  0.00    +0.000 A 
ATOM      5  C   UNL     1       7.431   5.585  15.989  0.00  0.00    +0.000 A 
ATOM      6  C   UNL     1       6.438   5.307  16.938  0.00  0.00    +0.000 A 
ATOM      7 CL   UNL     1       6.667   5.879  18.550  0.00  0.00    +0.000 Cl
ENDROOT
BRANCH   1  10
ATOM      8  C   UNL     1       4.397   3.644  18.698  0.00  0.00    +0.000 C 
ATOM      9  O   UNL     1       5.427   3.041  18.999  0.00  0.00    +0.000 OA
ATOM     10  N   UNL     1       4.241   4.352  17.514  0.00  0.00    +0.000 N 
ATOM     11  H   UNL     1       3.294   4.613  17.245  0.00  0.00    +0.000 HD
BRANCH   8  17
ATOM     12  C   UNL     1       2.149   4.437  19.697  0.00  0.00    +0.000 A 
ATOM     13  C   UNL     1       1.136   4.216  20.650  0.00  0.00    +0.000 A 
ATOM     14  C   UNL     1       1.255   3.209  21.612  0.00  0.00    +0.000 A 
ATOM     15  C   UNL     1       2.369   2.384  21.612  0.00  0.00    +0.000 A 
ATOM     16  C   UNL     1       3.349   2.554  20.637  0.00  0.00    +0.000 A 
ATOM     17  C   UNL     1       3.254   3.574  19.663  0.00  0.00    +0.000 A 
BRANCH  12  18
ATOM     18  O   UNL     1       2.090   5.470  18.794  0.00  0.00    +0.000 OA
BRANCH  18  20
ATOM     19  C   UNL     1       2.755   7.673  18.134  0.00  0.00    +0.000 C 
ATOM     20  C   UNL     1       2.468   6.754  19.305  0.00  0.00    +0.000 C 
ENDBRANCH  18  20
ENDBRANCH  12  18
ENDBRANCH   8  17
ENDBRANCH   1  10
BRANCH   3  21
ATOM     21  C   UNL     1       6.078   3.820  12.929  0.00  0.00    +0.000 C 
ATOM     22  O   UNL     1       7.101   3.586  12.288  0.00  0.00    +0.000 OA
ATOM     23  N   UNL     1       4.805   3.596  12.444  0.00  0.00    +0.000 N 
ATOM     24  H   UNL     1       4.000   3.892  12.983  0.00  0.00    +0.000 HD
BRANCH  23  25
ATOM     25  C   UNL     1       4.551   2.952  11.173  0.00  0.00    +0.000 C 
BRANCH  25  26
ATOM     26  C   UNL     1       3.150   3.260  10.619  0.00  0.00    +0.000 C 
ATOM     27  C   UNL     1       3.175   4.388   9.584  0.00  0.00    +0.000 C 
ATOM     28  C   UNL     1       2.552   1.999   9.989  0.00  0.00    +0.000 C 
ENDBRANCH  25  26
ENDBRANCH  23  25
ENDBRANCH   3  21
TORSDOF 7
ENDMDL
