MODEL 1
REMARK VINA RESULT:      -7.9      0.000      0.000
REMARK  Name = 
REMARK  5 active torsions:
REMARK  status: ('A' for Active; 'I' for Inactive)
REMARK    1  A    between atoms: C_1  and  C_2
REMARK    2  A    between atoms: C_4  and  O_5
REMARK    3  A    between atoms: C_7  and  S_8
REMARK    4  A    between atoms: S_8  and  C_9
REMARK    5  A    between atoms: C_9  and  C_10
REMARK                            x       y       z     vdW  Elec       q    Type
REMARK                         _______ _______ _______ _____ _____    ______ ____
ROOT
ATOM      1  C   UNL     1       4.788   5.579  16.648  0.00  0.00    +0.000 C 
ENDROOT
BRANCH   1   2
ATOM      2  C   UNL     1       4.382   5.935  18.082  0.00  0.00    +0.000 C 
ATOM      3  C   UNL     1       5.396   5.424  19.091  0.00  0.00    +0.000 C 
ATOM      4  O   UNL     1       4.655   4.741  20.098  0.00  0.00    +0.000 OA
ATOM      5  C   UNL     1       3.412   4.393  19.492  0.00  0.00    +0.000 C 
ATOM      6  C   UNL     1       3.483   2.970  18.917  0.00  0.00    +0.000 C 
ATOM      7  C   UNL     1       2.144   2.544  18.314  0.00  0.00    +0.000 C 
ATOM      8  C   UNL     1       1.010   2.663  19.330  0.00  0.00    +0.000 C 
ATOM      9  C   UNL     1       0.946   4.049  19.968  0.00  0.00    +0.000 C 
ATOM     10  C   UNL     1       2.298   4.477  20.537  0.00  0.00    +0.000 C 
ATOM     11  O   UNL     1       3.141   5.310  18.432  0.00  0.00    +0.000 OA
ENDBRANCH   1   2
BRANCH   1  12
ATOM     12  S   UNL     1       6.122   4.329  16.612  0.00  0.00    +0.000 S 
BRANCH  12  18
ATOM     13  C   UNL     1       5.527   2.816  11.798  0.00  0.00    +0.000 C 
ATOM     14  C   UNL     1       6.286   3.694  12.745  0.00  0.00    +0.000 A 
ATOM     15  C   UNL     1       7.291   4.524  12.293  0.00  0.00    +0.000 A 
ATOM     16  C   UNL     1       7.905   5.286  13.258  0.00  0.00    +0.000 A 
ATOM     17  N   UNL     1       7.583   5.271  14.554  0.00  0.00    +0.000 NA
ATOM     18  C   UNL     1       6.597   4.435  14.902  0.00  0.00    +0.000 A 
ATOM     19  N   UNL     1       5.926   3.645  14.043  0.00  0.00    +0.000 NA
BRANCH  16  20
ATOM     20  O   UNL     1       8.930   6.130  12.941  0.00  0.00    +0.000 OA
ATOM     21  H   UNL     1       8.650   7.039  13.126  0.00  0.00    +0.000 HD
ENDBRANCH  16  20
ENDBRANCH  12  18
ENDBRANCH   1  12
TORSDOF 4
ENDMDL
MODEL 2
REMARK VINA RESULT:      -7.7      1.020      1.101
REMARK  Name = 
REMARK  5 active torsions:
REMARK  status: ('A' for Active; 'I' for Inactive)
REMARK    1  A    between atoms: C_1  and  C_2
REMARK    2  A    between atoms: C_4  and  O_5
REMARK    3  A    between atoms: C_7  and  S_8
REMARK    4  A    between atoms: S_8  and  C_9
REMARK    5  A    between atoms: C_9  and  C_10
REMARK                            x       y       z     vdW  Elec       q    Type
REMARK                         _______ _______ _______ _____ _____    ______ ____
ROOT
ATOM      1  C   UNL     1       4.431   3.978  16.633  0.00  0.00    +0.000 C 
ENDROOT
BRANCH   1   2
ATOM      2  C   UNL     1       3.523   4.998  17.328  0.00  0.00    +0.000 C 
ATOM      3  C   UNL     1       4.324   5.959  18.191  0.00  0.00    +0.000 C 
ATOM      4  O   UNL     1       3.679   5.994  19.461  0.00  0.00    +0.000 OA
ATOM      5  C   UNL     1       2.923   4.787  19.542  0.00  0.00    +0.000 C 
ATOM      6  C   UNL     1       3.739   3.696  20.253  0.00  0.00    +0.000 C 
ATOM      7  C   UNL     1       2.931   2.409  20.410  0.00  0.00    +0.000 C 
ATOM      8  C   UNL     1       1.612   2.660  21.138  0.00  0.00    +0.000 C 
ATOM      9  C   UNL     1       0.799   3.782  20.493  0.00  0.00    +0.000 C 
ATOM     10  C   UNL     1       1.628   5.053  20.311  0.00  0.00    +0.000 C 
ATOM     11  O   UNL     1       2.611   4.347  18.220  0.00  0.00    +0.000 OA
ENDBRANCH   1   2
BRANCH   1  12
ATOM     12  S   UNL     1       6.197   4.429  16.783  0.00  0.00    +0.000 S 
BRANCH  12  18
ATOM     13  C   UNL     1       5.447   2.942  11.983  0.00  0.00    +0.000 C 
ATOM     14  C   UNL     1       6.257   3.792  12.914  0.00  0.00    +0.000 A 
ATOM     15  C   UNL     1       7.280   4.587  12.441  0.00  0.00    +0.000 A 
ATOM     16  C   UNL     1       7.941   5.326  13.393  0.00  0.00    +0.000 A 
ATOM     17  N   UNL     1       7.647   5.321  14.695  0.00  0.00    +0.000 NA
ATOM     18  C   UNL     1       6.639   4.519  15.064  0.00  0.00    +0.000 A 
ATOM     19  N   UNL     1       5.922   3.755  14.220  0.00  0.00    +0.000 NA
BRANCH  16  20
ATOM     20  O   UNL     1       8.988   6.133  13.054  0.00  0.00    +0.000 OA
ATOM     21  H   UNL     1       8.699   6.736  12.353  0.00  0.00    +0.000 HD
ENDBRANCH  16  20
ENDBRANCH  12  18
ENDBRANCH   1  12
TORSDOF 4
ENDMDL
MODEL 3
REMARK VINA RESULT:      -7.7      1.192      1.603
REMARK  Name = 
REMARK  5 active torsions:
REMARK  status: ('A' for Active; 'I' for Inactive)
REMARK    1  A    between atoms: C_1  and  C_2
REMARK    2  A    between atoms: C_4  and  O_5
REMARK    3  A    between atoms: C_7  and  S_8
REMARK    4  A    between atoms: S_8  and  C_9
REMARK    5  A    between atoms: C_9  and  C_10
REMARK                            x       y       z     vdW  Elec       q    Type
REMARK                         _______ _______ _______ _____ _____    ______ ____
ROOT
ATOM      1  C   UNL     1       5.886   6.067  17.132  0.00  0.00    +0.000 C 
ENDROOT
BRANCH   1   2
ATOM      2  C   UNL     1       4.385   6.092  16.824  0.00  0.00    +0.000 C 
ATOM      3  C   UNL     1       3.668   7.156  17.639  0.00  0.00    +0.000 C 
ATOM      4  O   UNL     1       2.536   6.520  18.225  0.00  0.00    +0.000 OA
ATOM      5  C   UNL     1       2.838   5.126  18.231  0.00  0.00    +0.000 C 
ATOM      6  C   UNL     1       3.461   4.724  19.576  0.00  0.00    +0.000 C 
ATOM      7  C   UNL     1       3.739   3.222  19.636  0.00  0.00    +0.000 C 
ATOM      8  C   UNL     1       2.477   2.408  19.358  0.00  0.00    +0.000 C 
ATOM      9  C   UNL     1       1.794   2.822  18.056  0.00  0.00    +0.000 C 
ATOM     10  C   UNL     1       1.553   4.330  17.994  0.00  0.00    +0.000 C 
ATOM     11  O   UNL     1       3.769   4.850  17.185  0.00  0.00    +0.000 OA
ENDBRANCH   1   2
BRANCH   1  12
ATOM     12  S   UNL     1       6.616   4.421  16.813  0.00  0.00    +0.000 S 
BRANCH  12  18
ATOM     13  C   UNL     1       5.409   2.950  12.103  0.00  0.00    +0.000 C 
ATOM     14  C   UNL     1       6.291   3.812  12.952  0.00  0.00    +0.000 A 
ATOM     15  C   UNL     1       7.241   4.634  12.384  0.00  0.00    +0.000 A 
ATOM     16  C   UNL     1       7.980   5.382  13.269  0.00  0.00    +0.000 A 
ATOM     17  N   UNL     1       7.822   5.361  14.595  0.00  0.00    +0.000 NA
ATOM     18  C   UNL     1       6.876   4.534  15.058  0.00  0.00    +0.000 A 
ATOM     19  N   UNL     1       6.094   3.758  14.285  0.00  0.00    +0.000 NA
BRANCH  16  20
ATOM     20  O   UNL     1       8.967   6.217  12.832  0.00  0.00    +0.000 OA
ATOM     21  H   UNL     1       8.649   6.690  12.050  0.00  0.00    +0.000 HD
ENDBRANCH  16  20
ENDBRANCH  12  18
ENDBRANCH   1  12
TORSDOF 4
ENDMDL
MODEL 4
REMARK VINA RESULT:      -7.3      3.293      4.535
REMARK  Name = 
REMARK  5 active torsions:
REMARK  status: ('A' for Active; 'I' for Inactive)
REMARK    1  A    between atoms: C_1  and  C_2
REMARK    2  A    between atoms: C_4  and  O_5
REMARK    3  A    between atoms: C_7  and  S_8
REMARK    4  A    between atoms: S_8  and  C_9
REMARK    5  A    between atoms: C_9  and  C_10
REMARK                            x       y       z     vdW  Elec       q    Type
REMARK                         _______ _______ _______ _____ _____    ______ ____
ROOT
ATOM      1  C   UNL     1       4.564   4.523  16.699  0.00  0.00    +0.000 C 
ENDROOT
BRANCH   1   2
ATOM      2  C   UNL     1       4.028   3.190  17.232  0.00  0.00    +0.000 C 
ATOM      3  C   UNL     1       2.694   2.834  16.599  0.00  0.00    +0.000 C 
ATOM      4  O   UNL     1       1.820   2.486  17.669  0.00  0.00    +0.000 OA
ATOM      5  C   UNL     1       2.375   3.095  18.833  0.00  0.00    +0.000 C 
ATOM      6  C   UNL     1       1.730   4.469  19.071  0.00  0.00    +0.000 C 
ATOM      7  C   UNL     1       2.261   5.120  20.348  0.00  0.00    +0.000 C 
ATOM      8  C   UNL     1       2.067   4.213  21.561  0.00  0.00    +0.000 C 
ATOM      9  C   UNL     1       2.643   2.816  21.338  0.00  0.00    +0.000 C 
ATOM     10  C   UNL     1       2.131   2.189  20.041  0.00  0.00    +0.000 C 
ATOM     11  O   UNL     1       3.779   3.266  18.640  0.00  0.00    +0.000 OA
ENDBRANCH   1   2
BRANCH   1  12
ATOM     12  S   UNL     1       6.310   4.390  16.170  0.00  0.00    +0.000 S 
BRANCH  12  18
ATOM     13  C   UNL     1       8.079   8.954  17.532  0.00  0.00    +0.000 C 
ATOM     14  C   UNL     1       7.876   7.525  17.932  0.00  0.00    +0.000 A 
ATOM     15  C   UNL     1       8.274   7.071  19.172  0.00  0.00    +0.000 A 
ATOM     16  C   UNL     1       8.024   5.743  19.423  0.00  0.00    +0.000 A 
ATOM     17  N   UNL     1       7.432   4.909  18.565  0.00  0.00    +0.000 NA
ATOM     18  C   UNL     1       7.080   5.436  17.385  0.00  0.00    +0.000 A 
ATOM     19  N   UNL     1       7.273   6.720  17.034  0.00  0.00    +0.000 NA
BRANCH  16  20
ATOM     20  O   UNL     1       8.392   5.168  20.605  0.00  0.00    +0.000 OA
ATOM     21  H   UNL     1       8.850   4.337  20.415  0.00  0.00    +0.000 HD
ENDBRANCH  16  20
ENDBRANCH  12  18
ENDBRANCH   1  12
TORSDOF 4
ENDMDL
MODEL 5
REMARK VINA RESULT:      -7.2      1.245      1.899
REMARK  Name = 
REMARK  5 active torsions:
REMARK  status: ('A' for Active; 'I' for Inactive)
REMARK    1  A    between atoms: C_1  and  C_2
REMARK    2  A    between atoms: C_4  and  O_5
REMARK    3  A    between atoms: C_7  and  S_8
REMARK    4  A    between atoms: S_8  and  C_9
REMARK    5  A    between atoms: C_9  and  C_10
REMARK                            x       y       z     vdW  Elec       q    Type
REMARK                         _______ _______ _______ _____ _____    ______ ____
ROOT
ATOM      1  C   UNL     1       4.929   5.621  16.508  0.00  0.00    +0.000 C 
ENDROOT
BRANCH   1   2
ATOM      2  C   UNL     1       4.402   5.846  17.929  0.00  0.00    +0.000 C 
ATOM      3  C   UNL     1       5.382   5.336  18.972  0.00  0.00    +0.000 C 
ATOM      4  O   UNL     1       4.626   4.536  19.877  0.00  0.00    +0.000 OA
ATOM      5  C   UNL     1       3.456   4.146  19.161  0.00  0.00    +0.000 C 
ATOM      6  C   UNL     1       3.670   2.775  18.502  0.00  0.00    +0.000 C 
ATOM      7  C   UNL     1       2.410   2.301  17.778  0.00  0.00    +0.000 C 
ATOM      8  C   UNL     1       1.204   2.270  18.715  0.00  0.00    +0.000 C 
ATOM      9  C   UNL     1       0.996   3.600  19.436  0.00  0.00    +0.000 C 
ATOM     10  C   UNL     1       2.272   4.079  20.127  0.00  0.00    +0.000 C 
ATOM     11  O   UNL     1       3.191   5.114  18.147  0.00  0.00    +0.000 OA
ENDBRANCH   1   2
BRANCH   1  12
ATOM     12  S   UNL     1       6.446   4.599  16.501  0.00  0.00    +0.000 S 
BRANCH  12  18
ATOM     13  C   UNL     1       8.686   6.262  12.255  0.00  0.00    +0.000 C 
ATOM     14  C   UNL     1       7.745   5.267  12.861  0.00  0.00    +0.000 A 
ATOM     15  C   UNL     1       7.131   4.306  12.085  0.00  0.00    +0.000 A 
ATOM     16  C   UNL     1       6.298   3.446  12.760  0.00  0.00    +0.000 A 
ATOM     17  N   UNL     1       6.072   3.487  14.075  0.00  0.00    +0.000 NA
ATOM     18  C   UNL     1       6.710   4.453  14.749  0.00  0.00    +0.000 A 
ATOM     19  N   UNL     1       7.549   5.346  14.193  0.00  0.00    +0.000 NA
BRANCH  16  20
ATOM     20  O   UNL     1       5.614   2.467  12.101  0.00  0.00    +0.000 OA
ATOM     21  H   UNL     1       5.045   2.006  12.735  0.00  0.00    +0.000 HD
ENDBRANCH  16  20
ENDBRANCH  12  18
ENDBRANCH   1  12
TORSDOF 4
ENDMDL
MODEL 6
REMARK VINA RESULT:      -7.2      3.242      4.154
REMARK  Name = 
REMARK  5 active torsions:
REMARK  status: ('A' for Active; 'I' for Inactive)
REMARK    1  A    between atoms: C_1  and  C_2
REMARK    2  A    between atoms: C_4  and  O_5
REMARK    3  A    between atoms: C_7  and  S_8
REMARK    4  A    between atoms: S_8  and  C_9
REMARK    5  A    between atoms: C_9  and  C_10
REMARK                            x       y       z     vdW  Elec       q    Type
REMARK                         _______ _______ _______ _____ _____    ______ ____
ROOT
ATOM      1  C   UNL     1       4.731   3.981  16.964  0.00  0.00    +0.000 C 
ENDROOT
BRANCH   1   2
ATOM      2  C   UNL     1       3.387   4.652  17.268  0.00  0.00    +0.000 C 
ATOM      3  C   UNL     1       3.579   6.014  17.913  0.00  0.00    +0.000 C 
ATOM      4  O   UNL     1       2.733   6.041  19.059  0.00  0.00    +0.000 OA
ATOM      5  C   UNL     1       2.490   4.675  19.390  0.00  0.00    +0.000 C 
ATOM      6  C   UNL     1       3.501   4.196  20.443  0.00  0.00    +0.000 C 
ATOM      7  C   UNL     1       3.226   2.753  20.864  0.00  0.00    +0.000 C 
ATOM      8  C   UNL     1       1.795   2.579  21.368  0.00  0.00    +0.000 C 
ATOM      9  C   UNL     1       0.762   3.101  20.371  0.00  0.00    +0.000 C 
ATOM     10  C   UNL     1       1.067   4.533  19.932  0.00  0.00    +0.000 C 
ATOM     11  O   UNL     1       2.633   3.882  18.212  0.00  0.00    +0.000 OA
ENDBRANCH   1   2
BRANCH   1  12
ATOM     12  S   UNL     1       5.775   5.016  15.876  0.00  0.00    +0.000 S 
BRANCH  12  18
ATOM     13  C   UNL     1       8.013   9.262  17.542  0.00  0.00    +0.000 C 
ATOM     14  C   UNL     1       7.760   7.807  17.788  0.00  0.00    +0.000 A 
ATOM     15  C   UNL     1       8.272   7.175  18.902  0.00  0.00    +0.000 A 
ATOM     16  C   UNL     1       7.962   5.841  19.020  0.00  0.00    +0.000 A 
ATOM     17  N   UNL     1       7.212   5.159  18.150  0.00  0.00    +0.000 NA
ATOM     18  C   UNL     1       6.757   5.852  17.099  0.00  0.00    +0.000 A 
ATOM     19  N   UNL     1       6.997   7.159  16.884  0.00  0.00    +0.000 NA
BRANCH  16  20
ATOM     20  O   UNL     1       8.428   5.099  20.066  0.00  0.00    +0.000 OA
ATOM     21  H   UNL     1       8.422   4.166  19.810  0.00  0.00    +0.000 HD
ENDBRANCH  16  20
ENDBRANCH  12  18
ENDBRANCH   1  12
TORSDOF 4
ENDMDL
MODEL 7
REMARK VINA RESULT:      -7.1      1.752      2.540
REMARK  Name = 
REMARK  5 active torsions:
REMARK  status: ('A' for Active; 'I' for Inactive)
REMARK    1  A    between atoms: C_1  and  C_2
REMARK    2  A    between atoms: C_4  and  O_5
REMARK    3  A    between atoms: C_7  and  S_8
REMARK    4  A    between atoms: S_8  and  C_9
REMARK    5  A    between atoms: C_9  and  C_10
REMARK                            x       y       z     vdW  Elec       q    Type
REMARK                         _______ _______ _______ _____ _____    ______ ____
ROOT
ATOM      1  C   UNL     1       6.056   6.313  16.931  0.00  0.00    +0.000 C 
ENDROOT
BRANCH   1   2
ATOM      2  C   UNL     1       4.551   6.192  16.667  0.00  0.00    +0.000 C 
ATOM      3  C   UNL     1       3.750   7.093  17.591  0.00  0.00    +0.000 C 
ATOM      4  O   UNL     1       2.717   6.284  18.148  0.00  0.00    +0.000 OA
ATOM      5  C   UNL     1       3.173   4.939  18.021  0.00  0.00    +0.000 C 
ATOM      6  C   UNL     1       3.885   4.497  19.308  0.00  0.00    +0.000 C 
ATOM      7  C   UNL     1       4.330   3.036  19.226  0.00  0.00    +0.000 C 
ATOM      8  C   UNL     1       3.158   2.110  18.910  0.00  0.00    +0.000 C 
ATOM      9  C   UNL     1       2.387   2.555  17.668  0.00  0.00    +0.000 C 
ATOM     10  C   UNL     1       1.977   4.024  17.748  0.00  0.00    +0.000 C 
ATOM     11  O   UNL     1       4.091   4.862  16.931  0.00  0.00    +0.000 OA
ENDBRANCH   1   2
BRANCH   1  12
ATOM     12  S   UNL     1       6.904   4.700  16.774  0.00  0.00    +0.000 S 
BRANCH  12  18
ATOM     13  C   UNL     1       8.782   6.267  12.321  0.00  0.00    +0.000 C 
ATOM     14  C   UNL     1       7.848   5.328  13.019  0.00  0.00    +0.000 A 
ATOM     15  C   UNL     1       7.093   4.418  12.309  0.00  0.00    +0.000 A 
ATOM     16  C   UNL     1       6.282   3.605  13.065  0.00  0.00    +0.000 A 
ATOM     17  N   UNL     1       6.201   3.645  14.397  0.00  0.00    +0.000 NA
ATOM     18  C   UNL     1       6.970   4.559  15.003  0.00  0.00    +0.000 A 
ATOM     19  N   UNL     1       7.800   5.403  14.365  0.00  0.00    +0.000 NA
BRANCH  16  20
ATOM     20  O   UNL     1       5.469   2.680  12.478  0.00  0.00    +0.000 OA
ATOM     21  H   UNL     1       5.930   1.829  12.461  0.00  0.00    +0.000 HD
ENDBRANCH  16  20
ENDBRANCH  12  18
ENDBRANCH   1  12
TORSDOF 4
ENDMDL
MODEL 8
REMARK VINA RESULT:      -7.1      1.389      2.206
REMARK  Name = 
REMARK  5 active torsions:
REMARK  status: ('A' for Active; 'I' for Inactive)
REMARK    1  A    between atoms: C_1  and  C_2
REMARK    2  A    between atoms: C_4  and  O_5
REMARK    3  A    between atoms: C_7  and  S_8
REMARK    4  A    between atoms: S_8  and  C_9
REMARK    5  A    between atoms: C_9  and  C_10
REMARK                            x       y       z     vdW  Elec       q    Type
REMARK                         _______ _______ _______ _____ _____    ______ ____
ROOT
ATOM      1  C   UNL     1       5.417   4.020  17.271  0.00  0.00    +0.000 C 
ENDROOT
BRANCH   1   2
ATOM      2  C   UNL     1       4.210   3.167  17.677  0.00  0.00    +0.000 C 
ATOM      3  C   UNL     1       3.134   3.180  16.605  0.00  0.00    +0.000 C 
ATOM      4  O   UNL     1       1.907   3.469  17.269  0.00  0.00    +0.000 OA
ATOM      5  C   UNL     1       2.272   4.109  18.491  0.00  0.00    +0.000 C 
ATOM      6  C   UNL     1       2.261   5.635  18.315  0.00  0.00    +0.000 C 
ATOM      7  C   UNL     1       2.588   6.350  19.626  0.00  0.00    +0.000 C 
ATOM      8  C   UNL     1       1.641   5.926  20.746  0.00  0.00    +0.000 C 
ATOM      9  C   UNL     1       1.580   4.409  20.911  0.00  0.00    +0.000 C 
ATOM     10  C   UNL     1       1.285   3.704  19.587  0.00  0.00    +0.000 C 
ATOM     11  O   UNL     1       3.588   3.692  18.855  0.00  0.00    +0.000 OA
ENDBRANCH   1   2
BRANCH   1  12
ATOM     12  S   UNL     1       4.934   5.395  16.165  0.00  0.00    +0.000 S 
BRANCH  12  18
ATOM     13  C   UNL     1       5.411   2.693  11.888  0.00  0.00    +0.000 C 
ATOM     14  C   UNL     1       6.034   3.704  12.801  0.00  0.00    +0.000 A 
ATOM     15  C   UNL     1       7.266   4.255  12.515  0.00  0.00    +0.000 A 
ATOM     16  C   UNL     1       7.726   5.177  13.425  0.00  0.00    +0.000 A 
ATOM     17  N   UNL     1       7.062   5.556  14.520  0.00  0.00    +0.000 NA
ATOM     18  C   UNL     1       5.874   4.969  14.717  0.00  0.00    +0.000 A 
ATOM     19  N   UNL     1       5.327   4.057  13.893  0.00  0.00    +0.000 NA
BRANCH  16  20
ATOM     20  O   UNL     1       8.942   5.776  13.267  0.00  0.00    +0.000 OA
ATOM     21  H   UNL     1       8.860   6.469  12.596  0.00  0.00    +0.000 HD
ENDBRANCH  16  20
ENDBRANCH  12  18
ENDBRANCH   1  12
TORSDOF 4
ENDMDL
MODEL 9
REMARK VINA RESULT:      -7.0      3.083      6.917
REMARK  Name = 
REMARK  5 active torsions:
REMARK  status: ('A' for Active; 'I' for Inactive)
REMARK    1  A    between atoms: C_1  and  C_2
REMARK    2  A    between atoms: C_4  and  O_5
REMARK    3  A    between atoms: C_7  and  S_8
REMARK    4  A    between atoms: S_8  and  C_9
REMARK    5  A    between atoms: C_9  and  C_10
REMARK                            x       y       z     vdW  Elec       q    Type
REMARK                         _______ _______ _______ _____ _____    ______ ____
ROOT
ATOM      1  C   UNL     1       4.432   3.272  16.979  0.00  0.00    +0.000 C 
ENDROOT
BRANCH   1   2
ATOM      2  C   UNL     1       5.032   4.341  16.059  0.00  0.00    +0.000 C 
ATOM      3  C   UNL     1       6.137   3.768  15.188  0.00  0.00    +0.000 C 
ATOM      4  O   UNL     1       7.245   4.656  15.307  0.00  0.00    +0.000 OA
ATOM      5  C   UNL     1       7.041   5.364  16.529  0.00  0.00    +0.000 C 
ATOM      6  C   UNL     1       7.783   4.664  17.678  0.00  0.00    +0.000 C 
ATOM      7  C   UNL     1       7.634   5.436  18.989  0.00  0.00    +0.000 C 
ATOM      8  C   UNL     1       8.100   6.883  18.844  0.00  0.00    +0.000 C 
ATOM      9  C   UNL     1       7.427   7.593  17.671  0.00  0.00    +0.000 C 
ATOM     10  C   UNL     1       7.554   6.797  16.373  0.00  0.00    +0.000 C 
ATOM     11  O   UNL     1       5.644   5.386  16.822  0.00  0.00    +0.000 OA
ENDBRANCH   1   2
BRANCH   1  12
ATOM     12  S   UNL     1       2.605   3.348  17.005  0.00  0.00    +0.000 S 
BRANCH  12  18
ATOM     13  C   UNL     1       1.466   2.595  21.899  0.00  0.00    +0.000 C 
ATOM     14  C   UNL     1       1.810   3.595  20.839  0.00  0.00    +0.000 A 
ATOM     15  C   UNL     1       1.914   4.938  21.134  0.00  0.00    +0.000 A 
ATOM     16  C   UNL     1       2.244   5.752  20.077  0.00  0.00    +0.000 A 
ATOM     17  N   UNL     1       2.471   5.323  18.833  0.00  0.00    +0.000 NA
ATOM     18  C   UNL     1       2.348   4.003  18.638  0.00  0.00    +0.000 A 
ATOM     19  N   UNL     1       2.032   3.115  19.598  0.00  0.00    +0.000 NA
BRANCH  16  20
ATOM     20  O   UNL     1       2.353   7.103  20.236  0.00  0.00    +0.000 OA
ATOM     21  H   UNL     1       2.265   7.524  19.369  0.00  0.00    +0.000 HD
ENDBRANCH  16  20
ENDBRANCH  12  18
ENDBRANCH   1  12
TORSDOF 4
ENDMDL
