MODEL 1
REMARK VINA RESULT:      -8.5      0.000      0.000
REMARK  Name = 
REMARK  5 active torsions:
REMARK  status: ('A' for Active; 'I' for Inactive)
REMARK    1  A    between atoms: C_2  and  C_3
REMARK    2  A    between atoms: C_3  and  N_4
REMARK    3  A    between atoms: C_6  and  C_7
REMARK    4  A    between atoms: N_16  and  C_17
REMARK    5  A    between atoms: C_19  and  C_20
REMARK                            x       y       z     vdW  Elec       q    Type
REMARK                         _______ _______ _______ _____ _____    ______ ____
ROOT
ATOM      1  O   UNL     1      -0.234   7.740  21.465  0.00  0.00    +0.000 OA
ATOM      2  C   UNL     1       0.778   8.410  21.258  0.00  0.00    +0.000 C 
ATOM      3  N   UNL     1       1.887   7.993  20.538  0.00  0.00    +0.000 N 
ATOM      4  H   UNL     1       2.707   8.604  20.546  0.00  0.00    +0.000 HD
ENDROOT
BRANCH   3   5
ATOM      5  C   UNL     1       2.063   6.727  19.928  0.00  0.00    +0.000 A 
ATOM      6  C   UNL     1       1.843   5.531  20.620  0.00  0.00    +0.000 A 
ATOM      7  C   UNL     1       2.092   4.282  20.030  0.00  0.00    +0.000 A 
ATOM      8  C   UNL     1       2.535   4.234  18.702  0.00  0.00    +0.000 A 
ATOM      9  C   UNL     1       2.718   5.415  17.981  0.00  0.00    +0.000 A 
ATOM     10  C   UNL     1       2.480   6.653  18.587  0.00  0.00    +0.000 A 
ATOM     11 CL   UNL     1       2.764   8.079  17.651  0.00  0.00    +0.000 Cl
BRANCH   7  12
ATOM     12  C   UNL     1       1.909   3.010  20.825  0.00  0.00    +0.000 C 
ATOM     13  F   UNL     1       1.759   1.895  20.058  0.00  0.00    +0.000 F 
ATOM     14  F   UNL     1       2.964   2.755  21.646  0.00  0.00    +0.000 F 
ATOM     15  F   UNL     1       0.812   3.060  21.630  0.00  0.00    +0.000 F 
ENDBRANCH   7  12
ENDBRANCH   3   5
BRANCH   2  16
ATOM     16  C   UNL     1       0.850   9.850  21.758  0.00  0.00    +0.000 C 
BRANCH  16  17
ATOM     17  N   UNL     1      -0.208  10.687  21.209  0.00  0.00    +0.000 N 
ATOM     18  N   UNL     1      -0.603  10.423  19.913  0.00  0.00    +0.000 NA
ATOM     19  C   UNL     1      -1.506  11.192  19.379  0.00  0.00    +0.000 A 
ATOM     20  C   UNL     1      -2.064  12.384  20.062  0.00  0.00    +0.000 A 
ATOM     21  C   UNL     1      -1.727  12.576  21.337  0.00  0.00    +0.000 A 
ATOM     22  C   UNL     1      -0.791  11.655  22.007  0.00  0.00    +0.000 A 
ATOM     23  O   UNL     1      -0.567  11.774  23.209  0.00  0.00    +0.000 OA
BRANCH  19  24
ATOM     24  C   UNL     1      -2.005  10.871  18.058  0.00  0.00    +0.000 A 
ATOM     25  C   UNL     1      -1.694   9.844  17.186  0.00  0.00    +0.000 A 
ATOM     26  C   UNL     1      -2.556   9.975  16.070  0.00  0.00    +0.000 A 
ATOM     27  C   UNL     1      -3.328  11.085  16.314  0.00  0.00    +0.000 A 
ATOM     28  O   UNL     1      -3.000  11.638  17.509  0.00  0.00    +0.000 OA
ENDBRANCH  19  24
ENDBRANCH  16  17
ENDBRANCH   2  16
TORSDOF 5
ENDMDL
MODEL 2
REMARK VINA RESULT:      -8.5      4.931      8.375
REMARK  Name = 
REMARK  5 active torsions:
REMARK  status: ('A' for Active; 'I' for Inactive)
REMARK    1  A    between atoms: C_2  and  C_3
REMARK    2  A    between atoms: C_3  and  N_4
REMARK    3  A    between atoms: C_6  and  C_7
REMARK    4  A    between atoms: N_16  and  C_17
REMARK    5  A    between atoms: C_19  and  C_20
REMARK                            x       y       z     vdW  Elec       q    Type
REMARK                         _______ _______ _______ _____ _____    ______ ____
ROOT
ATOM      1  O   UNL     1       1.771   4.957  17.699  0.00  0.00    +0.000 OA
ATOM      2  C   UNL     1       2.799   5.062  18.368  0.00  0.00    +0.000 C 
ATOM      3  N   UNL     1       3.149   6.158  19.140  0.00  0.00    +0.000 N 
ATOM      4  H   UNL     1       4.088   6.163  19.548  0.00  0.00    +0.000 HD
ENDROOT
BRANCH   3   5
ATOM      5  C   UNL     1       2.403   7.353  19.290  0.00  0.00    +0.000 A 
ATOM      6  C   UNL     1       1.670   7.630  20.449  0.00  0.00    +0.000 A 
ATOM      7  C   UNL     1       0.873   8.781  20.558  0.00  0.00    +0.000 A 
ATOM      8  C   UNL     1       0.844   9.691  19.494  0.00  0.00    +0.000 A 
ATOM      9  C   UNL     1       1.604   9.454  18.348  0.00  0.00    +0.000 A 
ATOM     10  C   UNL     1       2.381   8.295  18.247  0.00  0.00    +0.000 A 
ATOM     11 CL   UNL     1       3.267   8.041  16.784  0.00  0.00    +0.000 Cl
BRANCH   7  12
ATOM     12  C   UNL     1       0.040   9.020  21.796  0.00  0.00    +0.000 C 
ATOM     13  F   UNL     1      -0.945   8.100  21.986  0.00  0.00    +0.000 F 
ATOM     14  F   UNL     1       0.785   9.006  22.935  0.00  0.00    +0.000 F 
ATOM     15  F   UNL     1      -0.581  10.232  21.771  0.00  0.00    +0.000 F 
ENDBRANCH   7  12
ENDBRANCH   3   5
BRANCH   2  16
ATOM     16  C   UNL     1       3.779   3.894  18.440  0.00  0.00    +0.000 C 
BRANCH  16  17
ATOM     17  N   UNL     1       5.097   4.238  17.926  0.00  0.00    +0.000 N 
ATOM     18  N   UNL     1       5.287   4.123  16.564  0.00  0.00    +0.000 NA
ATOM     19  C   UNL     1       6.471   4.371  16.086  0.00  0.00    +0.000 A 
ATOM     20  C   UNL     1       7.641   4.683  16.941  0.00  0.00    +0.000 A 
ATOM     21  C   UNL     1       7.421   4.865  18.243  0.00  0.00    +0.000 A 
ATOM     22  C   UNL     1       6.066   4.702  18.799  0.00  0.00    +0.000 A 
ATOM     23  O   UNL     1       5.850   4.974  19.977  0.00  0.00    +0.000 OA
BRANCH  19  24
ATOM     24  C   UNL     1       6.663   4.352  14.651  0.00  0.00    +0.000 A 
ATOM     25  C   UNL     1       5.999   3.673  13.646  0.00  0.00    +0.000 A 
ATOM     26  C   UNL     1       6.558   4.104  12.418  0.00  0.00    +0.000 A 
ATOM     27  C   UNL     1       7.544   5.004  12.743  0.00  0.00    +0.000 A 
ATOM     28  O   UNL     1       7.621   5.158  14.090  0.00  0.00    +0.000 OA
ENDBRANCH  19  24
ENDBRANCH  16  17
ENDBRANCH   2  16
TORSDOF 5
ENDMDL
MODEL 3
REMARK VINA RESULT:      -8.3      1.063      1.173
REMARK  Name = 
REMARK  5 active torsions:
REMARK  status: ('A' for Active; 'I' for Inactive)
REMARK    1  A    between atoms: C_2  and  C_3
REMARK    2  A    between atoms: C_3  and  N_4
REMARK    3  A    between atoms: C_6  and  C_7
REMARK    4  A    between atoms: N_16  and  C_17
REMARK    5  A    between atoms: C_19  and  C_20
REMARK                            x       y       z     vdW  Elec       q    Type
REMARK                         _______ _______ _______ _____ _____    ______ ____
ROOT
ATOM      1  O   UNL     1      -0.638   7.982  21.573  0.00  0.00    +0.000 OA
ATOM      2  C   UNL     1       0.266   8.788  21.357  0.00  0.00    +0.000 C 
ATOM      3  N   UNL     1       1.430   8.523  20.652  0.00  0.00    +0.000 N 
ATOM      4  H   UNL     1       2.152   9.248  20.651  0.00  0.00    +0.000 HD
ENDROOT
BRANCH   3   5
ATOM      5  C   UNL     1       1.794   7.285  20.069  0.00  0.00    +0.000 A 
ATOM      6  C   UNL     1       1.660   6.072  20.755  0.00  0.00    +0.000 A 
ATOM      7  C   UNL     1       2.092   4.859  20.197  0.00  0.00    +0.000 A 
ATOM      8  C   UNL     1       2.636   4.860  18.907  0.00  0.00    +0.000 A 
ATOM      9  C   UNL     1       2.737   6.052  18.189  0.00  0.00    +0.000 A 
ATOM     10  C   UNL     1       2.315   7.256  18.763  0.00  0.00    +0.000 A 
ATOM     11 CL   UNL     1       2.505   8.704  17.837  0.00  0.00    +0.000 Cl
BRANCH   7  12
ATOM     12  C   UNL     1       1.996   3.575  20.989  0.00  0.00    +0.000 C 
ATOM     13  F   UNL     1       0.732   3.081  21.091  0.00  0.00    +0.000 F 
ATOM     14  F   UNL     1       2.743   2.574  20.448  0.00  0.00    +0.000 F 
ATOM     15  F   UNL     1       2.443   3.725  22.267  0.00  0.00    +0.000 F 
ENDBRANCH   7  12
ENDBRANCH   3   5
BRANCH   2  16
ATOM     16  C   UNL     1       0.123  10.233  21.828  0.00  0.00    +0.000 C 
BRANCH  16  17
ATOM     17  N   UNL     1      -0.223  11.142  20.744  0.00  0.00    +0.000 N 
ATOM     18  N   UNL     1      -0.910  10.607  19.674  0.00  0.00    +0.000 NA
ATOM     19  C   UNL     1      -1.182  11.385  18.668  0.00  0.00    +0.000 A 
ATOM     20  C   UNL     1      -0.715  12.789  18.580  0.00  0.00    +0.000 A 
ATOM     21  C   UNL     1      -0.122  13.309  19.654  0.00  0.00    +0.000 A 
ATOM     22  C   UNL     1       0.102  12.484  20.855  0.00  0.00    +0.000 A 
ATOM     23  O   UNL     1       0.551  12.995  21.876  0.00  0.00    +0.000 OA
BRANCH  19  24
ATOM     24  C   UNL     1      -1.988  10.868  17.582  0.00  0.00    +0.000 A 
ATOM     25  C   UNL     1      -2.753   9.720  17.474  0.00  0.00    +0.000 A 
ATOM     26  C   UNL     1      -3.395   9.770  16.213  0.00  0.00    +0.000 A 
ATOM     27  C   UNL     1      -2.971  10.931  15.615  0.00  0.00    +0.000 A 
ATOM     28  O   UNL     1      -2.116  11.600  16.430  0.00  0.00    +0.000 OA
ENDBRANCH  19  24
ENDBRANCH  16  17
ENDBRANCH   2  16
TORSDOF 5
ENDMDL
MODEL 4
REMARK VINA RESULT:      -8.3      3.049      3.635
REMARK  Name = 
REMARK  5 active torsions:
REMARK  status: ('A' for Active; 'I' for Inactive)
REMARK    1  A    between atoms: C_2  and  C_3
REMARK    2  A    between atoms: C_3  and  N_4
REMARK    3  A    between atoms: C_6  and  C_7
REMARK    4  A    between atoms: N_16  and  C_17
REMARK    5  A    between atoms: C_19  and  C_20
REMARK                            x       y       z     vdW  Elec       q    Type
REMARK                         _______ _______ _______ _____ _____    ______ ____
ROOT
ATOM      1  O   UNL     1       2.364   8.022  18.808  0.00  0.00    +0.000 OA
ATOM      2  C   UNL     1       2.186   7.241  19.742  0.00  0.00    +0.000 C 
ATOM      3  N   UNL     1       2.793   6.002  19.882  0.00  0.00    +0.000 N 
ATOM      4  H   UNL     1       2.464   5.403  20.643  0.00  0.00    +0.000 HD
ENDROOT
BRANCH   3   5
ATOM      5  C   UNL     1       3.709   5.410  18.979  0.00  0.00    +0.000 A 
ATOM      6  C   UNL     1       5.093   5.571  19.113  0.00  0.00    +0.000 A 
ATOM      7  C   UNL     1       5.991   5.042  18.171  0.00  0.00    +0.000 A 
ATOM      8  C   UNL     1       5.487   4.303  17.093  0.00  0.00    +0.000 A 
ATOM      9  C   UNL     1       4.113   4.093  16.968  0.00  0.00    +0.000 A 
ATOM     10  C   UNL     1       3.230   4.639  17.906  0.00  0.00    +0.000 A 
ATOM     11 CL   UNL     1       1.537   4.375  17.671  0.00  0.00    +0.000 Cl
BRANCH   7  12
ATOM     12  C   UNL     1       7.475   5.291  18.305  0.00  0.00    +0.000 C 
ATOM     13  F   UNL     1       7.886   5.513  19.583  0.00  0.00    +0.000 F 
ATOM     14  F   UNL     1       8.219   4.244  17.853  0.00  0.00    +0.000 F 
ATOM     15  F   UNL     1       7.881   6.374  17.587  0.00  0.00    +0.000 F 
ENDBRANCH   7  12
ENDBRANCH   3   5
BRANCH   2  16
ATOM     16  C   UNL     1       1.279   7.639  20.903  0.00  0.00    +0.000 C 
BRANCH  16  17
ATOM     17  N   UNL     1       0.708   8.968  20.735  0.00  0.00    +0.000 N 
ATOM     18  N   UNL     1      -0.146   9.151  19.667  0.00  0.00    +0.000 NA
ATOM     19  C   UNL     1      -0.626  10.343  19.462  0.00  0.00    +0.000 A 
ATOM     20  C   UNL     1      -0.232  11.524  20.266  0.00  0.00    +0.000 A 
ATOM     21  C   UNL     1       0.532  11.313  21.337  0.00  0.00    +0.000 A 
ATOM     22  C   UNL     1       1.001   9.954  21.661  0.00  0.00    +0.000 A 
ATOM     23  O   UNL     1       1.614   9.749  22.705  0.00  0.00    +0.000 OA
BRANCH  19  24
ATOM     24  C   UNL     1      -1.601  10.532  18.409  0.00  0.00    +0.000 A 
ATOM     25  C   UNL     1      -1.757   9.911  17.182  0.00  0.00    +0.000 A 
ATOM     26  C   UNL     1      -2.937  10.437  16.601  0.00  0.00    +0.000 A 
ATOM     27  C   UNL     1      -3.421  11.362  17.494  0.00  0.00    +0.000 A 
ATOM     28  O   UNL     1      -2.619  11.433  18.587  0.00  0.00    +0.000 OA
ENDBRANCH  19  24
ENDBRANCH  16  17
ENDBRANCH   2  16
TORSDOF 5
ENDMDL
MODEL 5
REMARK VINA RESULT:      -8.2      1.204      1.512
REMARK  Name = 
REMARK  5 active torsions:
REMARK  status: ('A' for Active; 'I' for Inactive)
REMARK    1  A    between atoms: C_2  and  C_3
REMARK    2  A    between atoms: C_3  and  N_4
REMARK    3  A    between atoms: C_6  and  C_7
REMARK    4  A    between atoms: N_16  and  C_17
REMARK    5  A    between atoms: C_19  and  C_20
REMARK                            x       y       z     vdW  Elec       q    Type
REMARK                         _______ _______ _______ _____ _____    ______ ____
ROOT
ATOM      1  O   UNL     1      -0.186   7.785  21.405  0.00  0.00    +0.000 OA
ATOM      2  C   UNL     1       0.814   8.463  21.165  0.00  0.00    +0.000 C 
ATOM      3  N   UNL     1       1.921   8.038  20.447  0.00  0.00    +0.000 N 
ATOM      4  H   UNL     1       2.732   8.661  20.426  0.00  0.00    +0.000 HD
ENDROOT
BRANCH   3   5
ATOM      5  C   UNL     1       2.110   6.756  19.876  0.00  0.00    +0.000 A 
ATOM      6  C   UNL     1       1.881   5.579  20.599  0.00  0.00    +0.000 A 
ATOM      7  C   UNL     1       2.142   4.314  20.049  0.00  0.00    +0.000 A 
ATOM      8  C   UNL     1       2.606   4.230  18.730  0.00  0.00    +0.000 A 
ATOM      9  C   UNL     1       2.797   5.389  17.978  0.00  0.00    +0.000 A 
ATOM     10  C   UNL     1       2.547   6.644  18.544  0.00  0.00    +0.000 A 
ATOM     11 CL   UNL     1       2.842   8.043  17.572  0.00  0.00    +0.000 Cl
BRANCH   7  12
ATOM     12  C   UNL     1       1.950   3.065  20.877  0.00  0.00    +0.000 C 
ATOM     13  F   UNL     1       3.084   2.629  21.491  0.00  0.00    +0.000 F 
ATOM     14  F   UNL     1       1.034   3.236  21.870  0.00  0.00    +0.000 F 
ATOM     15  F   UNL     1       1.503   2.018  20.131  0.00  0.00    +0.000 F 
ENDBRANCH   7  12
ENDBRANCH   3   5
BRANCH   2  16
ATOM     16  C   UNL     1       0.870   9.919  21.617  0.00  0.00    +0.000 C 
BRANCH  16  17
ATOM     17  N   UNL     1       0.498  10.848  20.559  0.00  0.00    +0.000 N 
ATOM     18  N   UNL     1      -0.497  10.443  19.693  0.00  0.00    +0.000 NA
ATOM     19  C   UNL     1      -0.809  11.231  18.706  0.00  0.00    +0.000 A 
ATOM     20  C   UNL     1      -0.089  12.494  18.418  0.00  0.00    +0.000 A 
ATOM     21  C   UNL     1       0.815  12.904  19.308  0.00  0.00    +0.000 A 
ATOM     22  C   UNL     1       1.111  12.088  20.499  0.00  0.00    +0.000 A 
ATOM     23  O   UNL     1       1.865  12.519  21.367  0.00  0.00    +0.000 OA
BRANCH  19  24
ATOM     24  C   UNL     1      -1.917  10.870  17.847  0.00  0.00    +0.000 A 
ATOM     25  C   UNL     1      -3.202  11.372  17.749  0.00  0.00    +0.000 A 
ATOM     26  C   UNL     1      -3.828  10.696  16.673  0.00  0.00    +0.000 A 
ATOM     27  C   UNL     1      -2.898   9.808  16.189  0.00  0.00    +0.000 A 
ATOM     28  O   UNL     1      -1.742   9.899  16.894  0.00  0.00    +0.000 OA
ENDBRANCH  19  24
ENDBRANCH  16  17
ENDBRANCH   2  16
TORSDOF 5
ENDMDL
MODEL 6
REMARK VINA RESULT:      -8.1      5.013      7.384
REMARK  Name = 
REMARK  5 active torsions:
REMARK  status: ('A' for Active; 'I' for Inactive)
REMARK    1  A    between atoms: C_2  and  C_3
REMARK    2  A    between atoms: C_3  and  N_4
REMARK    3  A    between atoms: C_6  and  C_7
REMARK    4  A    between atoms: N_16  and  C_17
REMARK    5  A    between atoms: C_19  and  C_20
REMARK                            x       y       z     vdW  Elec       q    Type
REMARK                         _______ _______ _______ _____ _____    ______ ____
ROOT
ATOM      1  O   UNL     1       4.260   1.768  17.353  0.00  0.00    +0.000 OA
ATOM      2  C   UNL     1       3.563   2.782  17.395  0.00  0.00    +0.000 C 
ATOM      3  N   UNL     1       3.846   3.981  16.759  0.00  0.00    +0.000 N 
ATOM      4  H   UNL     1       3.245   4.780  16.977  0.00  0.00    +0.000 HD
ENDROOT
BRANCH   3   5
ATOM      5  C   UNL     1       4.984   4.260  15.965  0.00  0.00    +0.000 A 
ATOM      6  C   UNL     1       5.054   3.899  14.614  0.00  0.00    +0.000 A 
ATOM      7  C   UNL     1       6.215   4.113  13.854  0.00  0.00    +0.000 A 
ATOM      8  C   UNL     1       7.314   4.740  14.454  0.00  0.00    +0.000 A 
ATOM      9  C   UNL     1       7.247   5.148  15.787  0.00  0.00    +0.000 A 
ATOM     10  C   UNL     1       6.090   4.914  16.536  0.00  0.00    +0.000 A 
ATOM     11 CL   UNL     1       6.086   5.409  18.193  0.00  0.00    +0.000 Cl
BRANCH   7  12
ATOM     12  C   UNL     1       6.284   3.651  12.417  0.00  0.00    +0.000 C 
ATOM     13  F   UNL     1       5.095   3.713  11.757  0.00  0.00    +0.000 F 
ATOM     14  F   UNL     1       7.157   4.388  11.676  0.00  0.00    +0.000 F 
ATOM     15  F   UNL     1       6.703   2.360  12.313  0.00  0.00    +0.000 F 
ENDBRANCH   7  12
ENDBRANCH   3   5
BRANCH   2  16
ATOM     16  C   UNL     1       2.234   2.758  18.144  0.00  0.00    +0.000 C 
BRANCH  16  17
ATOM     17  N   UNL     1       2.126   3.828  19.126  0.00  0.00    +0.000 N 
ATOM     18  N   UNL     1       2.164   5.122  18.646  0.00  0.00    +0.000 NA
ATOM     19  C   UNL     1       2.126   6.097  19.507  0.00  0.00    +0.000 A 
ATOM     20  C   UNL     1       2.132   5.883  20.974  0.00  0.00    +0.000 A 
ATOM     21  C   UNL     1       2.018   4.631  21.414  0.00  0.00    +0.000 A 
ATOM     22  C   UNL     1       1.945   3.510  20.461  0.00  0.00    +0.000 A 
ATOM     23  O   UNL     1       1.733   2.371  20.867  0.00  0.00    +0.000 OA
BRANCH  19  24
ATOM     24  C   UNL     1       2.064   7.458  19.019  0.00  0.00    +0.000 A 
ATOM     25  C   UNL     1       2.487   8.026  17.830  0.00  0.00    +0.000 A 
ATOM     26  C   UNL     1       2.090   9.385  17.858  0.00  0.00    +0.000 A 
ATOM     27  C   UNL     1       1.468   9.575  19.068  0.00  0.00    +0.000 A 
ATOM     28  O   UNL     1       1.451   8.420  19.780  0.00  0.00    +0.000 OA
ENDBRANCH  19  24
ENDBRANCH  16  17
ENDBRANCH   2  16
TORSDOF 5
ENDMDL
MODEL 7
REMARK VINA RESULT:      -8.1      2.084      3.589
REMARK  Name = 
REMARK  5 active torsions:
REMARK  status: ('A' for Active; 'I' for Inactive)
REMARK    1  A    between atoms: C_2  and  C_3
REMARK    2  A    between atoms: C_3  and  N_4
REMARK    3  A    between atoms: C_6  and  C_7
REMARK    4  A    between atoms: N_16  and  C_17
REMARK    5  A    between atoms: C_19  and  C_20
REMARK                            x       y       z     vdW  Elec       q    Type
REMARK                         _______ _______ _______ _____ _____    ______ ____
ROOT
ATOM      1  O   UNL     1      -0.394   7.783  21.458  0.00  0.00    +0.000 OA
ATOM      2  C   UNL     1       0.727   8.288  21.502  0.00  0.00    +0.000 C 
ATOM      3  N   UNL     1       1.850   7.814  20.841  0.00  0.00    +0.000 N 
ATOM      4  H   UNL     1       2.745   8.258  21.062  0.00  0.00    +0.000 HD
ENDROOT
BRANCH   3   5
ATOM      5  C   UNL     1       1.916   6.666  20.014  0.00  0.00    +0.000 A 
ATOM      6  C   UNL     1       1.547   5.397  20.475  0.00  0.00    +0.000 A 
ATOM      7  C   UNL     1       1.686   4.253  19.672  0.00  0.00    +0.000 A 
ATOM      8  C   UNL     1       2.168   4.395  18.365  0.00  0.00    +0.000 A 
ATOM      9  C   UNL     1       2.498   5.659  17.872  0.00  0.00    +0.000 A 
ATOM     10  C   UNL     1       2.369   6.787  18.689  0.00  0.00    +0.000 A 
ATOM     11 CL   UNL     1       2.832   8.318  18.031  0.00  0.00    +0.000 Cl
BRANCH   7  12
ATOM     12  C   UNL     1       1.344   2.887  20.220  0.00  0.00    +0.000 C 
ATOM     13  F   UNL     1       2.370   1.994  20.161  0.00  0.00    +0.000 F 
ATOM     14  F   UNL     1       0.967   2.932  21.528  0.00  0.00    +0.000 F 
ATOM     15  F   UNL     1       0.308   2.310  19.552  0.00  0.00    +0.000 F 
ENDBRANCH   7  12
ENDBRANCH   3   5
BRANCH   2  16
ATOM     16  C   UNL     1       0.948   9.579  22.284  0.00  0.00    +0.000 C 
BRANCH  16  17
ATOM     17  N   UNL     1       0.081  10.660  21.834  0.00  0.00    +0.000 N 
ATOM     18  N   UNL     1      -0.864  11.117  22.730  0.00  0.00    +0.000 NA
ATOM     19  C   UNL     1      -1.688  12.043  22.335  0.00  0.00    +0.000 A 
ATOM     20  C   UNL     1      -1.715  12.565  20.948  0.00  0.00    +0.000 A 
ATOM     21  C   UNL     1      -0.747  12.168  20.121  0.00  0.00    +0.000 A 
ATOM     22  C   UNL     1       0.270  11.203  20.575  0.00  0.00    +0.000 A 
ATOM     23  O   UNL     1       1.218  10.923  19.847  0.00  0.00    +0.000 OA
BRANCH  19  24
ATOM     24  C   UNL     1      -2.619  12.604  23.290  0.00  0.00    +0.000 A 
ATOM     25  C   UNL     1      -2.802  13.900  23.740  0.00  0.00    +0.000 A 
ATOM     26  C   UNL     1      -3.919  13.880  24.611  0.00  0.00    +0.000 A 
ATOM     27  C   UNL     1      -4.340  12.573  24.660  0.00  0.00    +0.000 A 
ATOM     28  O   UNL     1      -3.559  11.792  23.871  0.00  0.00    +0.000 OA
ENDBRANCH  19  24
ENDBRANCH  16  17
ENDBRANCH   2  16
TORSDOF 5
ENDMDL
MODEL 8
REMARK VINA RESULT:      -8.1      4.224      7.989
REMARK  Name = 
REMARK  5 active torsions:
REMARK  status: ('A' for Active; 'I' for Inactive)
REMARK    1  A    between atoms: C_2  and  C_3
REMARK    2  A    between atoms: C_3  and  N_4
REMARK    3  A    between atoms: C_6  and  C_7
REMARK    4  A    between atoms: N_16  and  C_17
REMARK    5  A    between atoms: C_19  and  C_20
REMARK                            x       y       z     vdW  Elec       q    Type
REMARK                         _______ _______ _______ _____ _____    ______ ____
ROOT
ATOM      1  O   UNL     1       0.437   5.535  20.630  0.00  0.00    +0.000 OA
ATOM      2  C   UNL     1       1.653   5.718  20.577  0.00  0.00    +0.000 C 
ATOM      3  N   UNL     1       2.276   6.947  20.421  0.00  0.00    +0.000 N 
ATOM      4  H   UNL     1       3.288   6.942  20.270  0.00  0.00    +0.000 HD
ENDROOT
BRANCH   3   5
ATOM      5  C   UNL     1       1.634   8.201  20.282  0.00  0.00    +0.000 A 
ATOM      6  C   UNL     1       1.007   8.838  21.359  0.00  0.00    +0.000 A 
ATOM      7  C   UNL     1       0.309  10.046  21.195  0.00  0.00    +0.000 A 
ATOM      8  C   UNL     1       0.275  10.644  19.929  0.00  0.00    +0.000 A 
ATOM      9  C   UNL     1       0.932  10.047  18.853  0.00  0.00    +0.000 A 
ATOM     10  C   UNL     1       1.610   8.837  19.027  0.00  0.00    +0.000 A 
ATOM     11 CL   UNL     1       2.370   8.129  17.645  0.00  0.00    +0.000 Cl
BRANCH   7  12
ATOM     12  C   UNL     1      -0.415  10.675  22.362  0.00  0.00    +0.000 C 
ATOM     13  F   UNL     1      -1.770  10.689  22.231  0.00  0.00    +0.000 F 
ATOM     14  F   UNL     1      -0.163  10.034  23.537  0.00  0.00    +0.000 F 
ATOM     15  F   UNL     1      -0.046  11.971  22.558  0.00  0.00    +0.000 F 
ENDBRANCH   7  12
ENDBRANCH   3   5
BRANCH   2  16
ATOM     16  C   UNL     1       2.606   4.540  20.753  0.00  0.00    +0.000 C 
BRANCH  16  17
ATOM     17  N   UNL     1       3.463   4.336  19.593  0.00  0.00    +0.000 N 
ATOM     18  N   UNL     1       4.427   5.294  19.353  0.00  0.00    +0.000 NA
ATOM     19  C   UNL     1       5.169   5.165  18.292  0.00  0.00    +0.000 A 
ATOM     20  C   UNL     1       4.970   4.092  17.289  0.00  0.00    +0.000 A 
ATOM     21  C   UNL     1       4.088   3.136  17.577  0.00  0.00    +0.000 A 
ATOM     22  C   UNL     1       3.310   3.193  18.828  0.00  0.00    +0.000 A 
ATOM     23  O   UNL     1       2.578   2.257  19.138  0.00  0.00    +0.000 OA
BRANCH  19  24
ATOM     24  C   UNL     1       6.250   6.104  18.077  0.00  0.00    +0.000 A 
ATOM     25  C   UNL     1       6.412   7.120  17.152  0.00  0.00    +0.000 A 
ATOM     26  C   UNL     1       7.629   7.773  17.465  0.00  0.00    +0.000 A 
ATOM     27  C   UNL     1       8.151   7.107  18.548  0.00  0.00    +0.000 A 
ATOM     28  O   UNL     1       7.330   6.093  18.923  0.00  0.00    +0.000 OA
ENDBRANCH  19  24
ENDBRANCH  16  17
ENDBRANCH   2  16
TORSDOF 5
ENDMDL
MODEL 9
REMARK VINA RESULT:      -8.0      4.820      8.301
REMARK  Name = 
REMARK  5 active torsions:
REMARK  status: ('A' for Active; 'I' for Inactive)
REMARK    1  A    between atoms: C_2  and  C_3
REMARK    2  A    between atoms: C_3  and  N_4
REMARK    3  A    between atoms: C_6  and  C_7
REMARK    4  A    between atoms: N_16  and  C_17
REMARK    5  A    between atoms: C_19  and  C_20
REMARK                            x       y       z     vdW  Elec       q    Type
REMARK                         _______ _______ _______ _____ _____    ______ ____
ROOT
ATOM      1  O   UNL     1       1.834   4.395  18.805  0.00  0.00    +0.000 OA
ATOM      2  C   UNL     1       3.016   4.734  18.870  0.00  0.00    +0.000 C 
ATOM      3  N   UNL     1       3.473   6.035  19.020  0.00  0.00    +0.000 N 
ATOM      4  H   UNL     1       4.481   6.189  18.936  0.00  0.00    +0.000 HD
ENDROOT
BRANCH   3   5
ATOM      5  C   UNL     1       2.674   7.200  19.113  0.00  0.00    +0.000 A 
ATOM      6  C   UNL     1       1.919   7.494  20.255  0.00  0.00    +0.000 A 
ATOM      7  C   UNL     1       1.072   8.612  20.310  0.00  0.00    +0.000 A 
ATOM      8  C   UNL     1       1.012   9.474  19.207  0.00  0.00    +0.000 A 
ATOM      9  C   UNL     1       1.791   9.222  18.077  0.00  0.00    +0.000 A 
ATOM     10  C   UNL     1       2.619   8.096  18.031  0.00  0.00    +0.000 A 
ATOM     11 CL   UNL     1       3.528   7.820  16.586  0.00  0.00    +0.000 Cl
BRANCH   7  12
ATOM     12  C   UNL     1       0.218   8.866  21.530  0.00  0.00    +0.000 C 
ATOM     13  F   UNL     1      -0.437  10.059  21.509  0.00  0.00    +0.000 F 
ATOM     14  F   UNL     1      -0.744   7.918  21.698  0.00  0.00    +0.000 F 
ATOM     15  F   UNL     1       0.950   8.862  22.679  0.00  0.00    +0.000 F 
ENDBRANCH   7  12
ENDBRANCH   3   5
BRANCH   2  16
ATOM     16  C   UNL     1       4.112   3.674  18.848  0.00  0.00    +0.000 C 
BRANCH  16  17
ATOM     17  N   UNL     1       5.273   4.085  18.072  0.00  0.00    +0.000 N 
ATOM     18  N   UNL     1       5.214   3.891  16.707  0.00  0.00    +0.000 NA
ATOM     19  C   UNL     1       6.261   4.198  15.998  0.00  0.00    +0.000 A 
ATOM     20  C   UNL     1       7.536   4.663  16.594  0.00  0.00    +0.000 A 
ATOM     21  C   UNL     1       7.548   4.917  17.902  0.00  0.00    +0.000 A 
ATOM     22  C   UNL     1       6.342   4.685  18.717  0.00  0.00    +0.000 A 
ATOM     23  O   UNL     1       6.325   5.021  19.898  0.00  0.00    +0.000 OA
BRANCH  19  24
ATOM     24  C   UNL     1       6.182   4.095  14.556  0.00  0.00    +0.000 A 
ATOM     25  C   UNL     1       7.141   4.255  13.572  0.00  0.00    +0.000 A 
ATOM     26  C   UNL     1       6.519   3.948  12.336  0.00  0.00    +0.000 A 
ATOM     27  C   UNL     1       5.214   3.639  12.634  0.00  0.00    +0.000 A 
ATOM     28  O   UNL     1       4.997   3.730  13.971  0.00  0.00    +0.000 OA
ENDBRANCH  19  24
ENDBRANCH  16  17
ENDBRANCH   2  16
TORSDOF 5
ENDMDL
