MODEL 1
REMARK VINA RESULT:      -9.3      0.000      0.000
REMARK  Name = 
REMARK  7 active torsions:
REMARK  status: ('A' for Active; 'I' for Inactive)
REMARK    1  A    between atoms: C_2  and  C_25
REMARK    2  A    between atoms: N_3  and  C_4
REMARK    3  A    between atoms: C_4  and  C_5
REMARK    4  A    between atoms: C_8  and  S_9
REMARK    5  A    between atoms: S_9  and  C_12
REMARK    6  A    between atoms: C_16  and  O_17
REMARK    7  A    between atoms: O_17  and  C_18
REMARK                            x       y       z     vdW  Elec       q    Type
REMARK                         _______ _______ _______ _____ _____    ______ ____
ROOT
ATOM      1  C   UNL     1       1.691   7.677  20.244  0.00  0.00    +0.000 A 
ATOM      2  C   UNL     1       2.164   7.766  18.937  0.00  0.00    +0.000 A 
ATOM      3  C   UNL     1       2.520   6.596  18.268  0.00  0.00    +0.000 A 
ATOM      4  C   UNL     1       2.382   5.377  18.929  0.00  0.00    +0.000 A 
ATOM      5  C   UNL     1       1.914   5.368  20.232  0.00  0.00    +0.000 A 
ATOM      6  N   UNL     1       1.550   6.491  20.894  0.00  0.00    +0.000 NA
ENDROOT
BRANCH   4   7
ATOM      7  S   UNL     1       2.847   3.865  18.159  0.00  0.00    +0.000 S 
ATOM      8  O   UNL     1       3.026   2.884  19.217  0.00  0.00    +0.000 OA
ATOM      9  O   UNL     1       1.901   3.611  17.087  0.00  0.00    +0.000 OA
BRANCH   7  10
ATOM     10  C   UNL     1       4.433   4.137  17.408  0.00  0.00    +0.000 A 
ATOM     11  C   UNL     1       4.533   4.228  16.017  0.00  0.00    +0.000 A 
ATOM     12  C   UNL     1       5.784   4.428  15.439  0.00  0.00    +0.000 A 
ATOM     13  C   UNL     1       6.914   4.559  16.252  0.00  0.00    +0.000 A 
ATOM     14  C   UNL     1       6.807   4.485  17.644  0.00  0.00    +0.000 A 
ATOM     15  C   UNL     1       5.571   4.221  18.221  0.00  0.00    +0.000 A 
BRANCH  14  16
ATOM     16  O   UNL     1       7.986   4.624  18.317  0.00  0.00    +0.000 OA
BRANCH  16  17
ATOM     17  C   UNL     1       8.086   5.593  19.355  0.00  0.00    +0.000 C 
ATOM     18  F   UNL     1       8.970   5.280  20.326  0.00  0.00    +0.000 F 
ATOM     19  F   UNL     1       8.433   6.783  18.819  0.00  0.00    +0.000 F 
ATOM     20  F   UNL     1       6.872   5.726  19.933  0.00  0.00    +0.000 F 
ENDBRANCH  16  17
ENDBRANCH  14  16
ENDBRANCH   7  10
ENDBRANCH   4   7
BRANCH   1  21
ATOM     21  C   UNL     1       1.222   8.913  20.967  0.00  0.00    +0.000 C 
BRANCH  21  24
ATOM     22  O   UNL     1       1.065  11.626  20.289  0.00  0.00    +0.000 OA
ATOM     23  C   UNL     1       0.156  10.881  19.936  0.00  0.00    +0.000 C 
ATOM     24  N   UNL     1       0.139   9.542  20.251  0.00  0.00    +0.000 N 
ATOM     25  H   UNL     1      -0.574   8.962  19.827  0.00  0.00    +0.000 HD
BRANCH  23  26
ATOM     26  C   UNL     1      -1.026  11.341  19.250  0.00  0.00    +0.000 A 
ATOM     27  C   UNL     1      -2.126  12.004  19.754  0.00  0.00    +0.000 A 
ATOM     28  C   UNL     1      -3.153  11.836  18.795  0.00  0.00    +0.000 A 
ATOM     29  C   UNL     1      -4.539  12.016  18.777  0.00  0.00    +0.000 A 
ATOM     30  C   UNL     1      -5.180  11.679  17.593  0.00  0.00    +0.000 A 
ATOM     31  N   UNL     1      -4.557  11.272  16.459  0.00  0.00    +0.000 NA
ATOM     32  C   UNL     1      -3.209  11.103  16.473  0.00  0.00    +0.000 A 
ATOM     33  C   UNL     1      -2.533  11.327  17.661  0.00  0.00    +0.000 A 
ATOM     34  O   UNL     1      -1.229  11.029  17.930  0.00  0.00    +0.000 OA
ENDBRANCH  23  26
ENDBRANCH  21  24
ENDBRANCH   1  21
TORSDOF 7
ENDMDL
MODEL 2
REMARK VINA RESULT:      -9.1      0.957      1.204
REMARK  Name = 
REMARK  7 active torsions:
REMARK  status: ('A' for Active; 'I' for Inactive)
REMARK    1  A    between atoms: C_2  and  C_25
REMARK    2  A    between atoms: N_3  and  C_4
REMARK    3  A    between atoms: C_4  and  C_5
REMARK    4  A    between atoms: C_8  and  S_9
REMARK    5  A    between atoms: S_9  and  C_12
REMARK    6  A    between atoms: C_16  and  O_17
REMARK    7  A    between atoms: O_17  and  C_18
REMARK                            x       y       z     vdW  Elec       q    Type
REMARK                         _______ _______ _______ _____ _____    ______ ____
ROOT
ATOM      1  C   UNL     1       1.724   7.636  20.278  0.00  0.00    +0.000 A 
ATOM      2  C   UNL     1       2.207   7.740  18.976  0.00  0.00    +0.000 A 
ATOM      3  C   UNL     1       2.595   6.580  18.306  0.00  0.00    +0.000 A 
ATOM      4  C   UNL     1       2.479   5.357  18.963  0.00  0.00    +0.000 A 
ATOM      5  C   UNL     1       1.998   5.333  20.261  0.00  0.00    +0.000 A 
ATOM      6  N   UNL     1       1.603   6.445  20.923  0.00  0.00    +0.000 NA
ENDROOT
BRANCH   4   7
ATOM      7  S   UNL     1       2.983   3.858  18.193  0.00  0.00    +0.000 S 
ATOM      8  O   UNL     1       3.230   2.895  19.253  0.00  0.00    +0.000 OA
ATOM      9  O   UNL     1       2.021   3.556  17.148  0.00  0.00    +0.000 OA
BRANCH   7  10
ATOM     10  C   UNL     1       4.537   4.187  17.397  0.00  0.00    +0.000 A 
ATOM     11  C   UNL     1       4.779   3.682  16.117  0.00  0.00    +0.000 A 
ATOM     12  C   UNL     1       6.006   3.935  15.509  0.00  0.00    +0.000 A 
ATOM     13  C   UNL     1       6.965   4.707  16.171  0.00  0.00    +0.000 A 
ATOM     14  C   UNL     1       6.712   5.226  17.445  0.00  0.00    +0.000 A 
ATOM     15  C   UNL     1       5.516   4.921  18.081  0.00  0.00    +0.000 A 
BRANCH  14  16
ATOM     16  O   UNL     1       7.734   5.956  17.979  0.00  0.00    +0.000 OA
BRANCH  16  17
ATOM     17  C   UNL     1       7.741   7.370  17.809  0.00  0.00    +0.000 C 
ATOM     18  F   UNL     1       6.517   7.940  17.835  0.00  0.00    +0.000 F 
ATOM     19  F   UNL     1       8.500   7.929  18.777  0.00  0.00    +0.000 F 
ATOM     20  F   UNL     1       8.301   7.654  16.613  0.00  0.00    +0.000 F 
ENDBRANCH  16  17
ENDBRANCH  14  16
ENDBRANCH   7  10
ENDBRANCH   4   7
BRANCH   1  21
ATOM     21  C   UNL     1       1.220   8.859  21.000  0.00  0.00    +0.000 C 
BRANCH  21  24
ATOM     22  O   UNL     1       1.275  11.415  19.854  0.00  0.00    +0.000 OA
ATOM     23  C   UNL     1       0.266  10.731  19.712  0.00  0.00    +0.000 C 
ATOM     24  N   UNL     1       0.143   9.478  20.266  0.00  0.00    +0.000 N 
ATOM     25  H   UNL     1      -0.661   8.920  20.009  0.00  0.00    +0.000 HD
BRANCH  23  26
ATOM     26  C   UNL     1      -0.924  11.200  19.046  0.00  0.00    +0.000 A 
ATOM     27  C   UNL     1      -2.023  11.848  19.573  0.00  0.00    +0.000 A 
ATOM     28  C   UNL     1      -3.056  11.697  18.619  0.00  0.00    +0.000 A 
ATOM     29  C   UNL     1      -4.443  11.871  18.616  0.00  0.00    +0.000 A 
ATOM     30  C   UNL     1      -5.093  11.556  17.431  0.00  0.00    +0.000 A 
ATOM     31  N   UNL     1      -4.478  11.175  16.284  0.00  0.00    +0.000 NA
ATOM     32  C   UNL     1      -3.129  11.011  16.283  0.00  0.00    +0.000 A 
ATOM     33  C   UNL     1      -2.444  11.213  17.469  0.00  0.00    +0.000 A 
ATOM     34  O   UNL     1      -1.137  10.915  17.722  0.00  0.00    +0.000 OA
ENDBRANCH  23  26
ENDBRANCH  21  24
ENDBRANCH   1  21
TORSDOF 7
ENDMDL
MODEL 3
REMARK VINA RESULT:      -9.0      1.105      1.498
REMARK  Name = 
REMARK  7 active torsions:
REMARK  status: ('A' for Active; 'I' for Inactive)
REMARK    1  A    between atoms: C_2  and  C_25
REMARK    2  A    between atoms: N_3  and  C_4
REMARK    3  A    between atoms: C_4  and  C_5
REMARK    4  A    between atoms: C_8  and  S_9
REMARK    5  A    between atoms: S_9  and  C_12
REMARK    6  A    between atoms: C_16  and  O_17
REMARK    7  A    between atoms: O_17  and  C_18
REMARK                            x       y       z     vdW  Elec       q    Type
REMARK                         _______ _______ _______ _____ _____    ______ ____
ROOT
ATOM      1  C   UNL     1       1.781   7.175  20.102  0.00  0.00    +0.000 A 
ATOM      2  C   UNL     1       1.690   5.965  20.786  0.00  0.00    +0.000 A 
ATOM      3  C   UNL     1       2.147   4.804  20.164  0.00  0.00    +0.000 A 
ATOM      4  C   UNL     1       2.685   4.897  18.882  0.00  0.00    +0.000 A 
ATOM      5  C   UNL     1       2.734   6.134  18.262  0.00  0.00    +0.000 A 
ATOM      6  N   UNL     1       2.309   7.274  18.853  0.00  0.00    +0.000 NA
ENDROOT
BRANCH   4   7
ATOM      7  S   UNL     1       3.246   3.468  18.023  0.00  0.00    +0.000 S 
ATOM      8  O   UNL     1       3.625   2.488  19.027  0.00  0.00    +0.000 OA
ATOM      9  O   UNL     1       2.244   3.135  17.026  0.00  0.00    +0.000 OA
BRANCH   7  10
ATOM     10  C   UNL     1       4.720   3.938  17.151  0.00  0.00    +0.000 A 
ATOM     11  C   UNL     1       4.868   3.591  15.805  0.00  0.00    +0.000 A 
ATOM     12  C   UNL     1       6.033   3.953  15.136  0.00  0.00    +0.000 A 
ATOM     13  C   UNL     1       7.025   4.677  15.806  0.00  0.00    +0.000 A 
ATOM     14  C   UNL     1       6.865   5.039  17.147  0.00  0.00    +0.000 A 
ATOM     15  C   UNL     1       5.733   4.623  17.835  0.00  0.00    +0.000 A 
BRANCH  14  16
ATOM     16  O   UNL     1       7.908   5.739  17.680  0.00  0.00    +0.000 OA
BRANCH  16  17
ATOM     17  C   UNL     1       7.793   7.150  17.835  0.00  0.00    +0.000 C 
ATOM     18  F   UNL     1       8.216   7.863  16.769  0.00  0.00    +0.000 F 
ATOM     19  F   UNL     1       6.504   7.464  18.084  0.00  0.00    +0.000 F 
ATOM     20  F   UNL     1       8.535   7.525  18.899  0.00  0.00    +0.000 F 
ENDBRANCH  16  17
ENDBRANCH  14  16
ENDBRANCH   7  10
ENDBRANCH   4   7
BRANCH   1  21
ATOM     21  C   UNL     1       1.372   8.459  20.776  0.00  0.00    +0.000 C 
BRANCH  21  24
ATOM     22  O   UNL     1       0.046  10.816  21.509  0.00  0.00    +0.000 OA
ATOM     23  C   UNL     1      -0.157  10.353  20.390  0.00  0.00    +0.000 C 
ATOM     24  N   UNL     1       0.429   9.186  19.960  0.00  0.00    +0.000 N 
ATOM     25  H   UNL     1       0.317   8.927  18.988  0.00  0.00    +0.000 HD
BRANCH  23  26
ATOM     26  C   UNL     1      -1.098  10.920  19.456  0.00  0.00    +0.000 A 
ATOM     27  C   UNL     1      -2.204  11.710  19.700  0.00  0.00    +0.000 A 
ATOM     28  C   UNL     1      -3.002  11.629  18.534  0.00  0.00    +0.000 A 
ATOM     29  C   UNL     1      -4.321  11.955  18.205  0.00  0.00    +0.000 A 
ATOM     30  C   UNL     1      -4.714  11.660  16.906  0.00  0.00    +0.000 A 
ATOM     31  N   UNL     1      -3.901  11.160  15.942  0.00  0.00    +0.000 NA
ATOM     32  C   UNL     1      -2.617  10.848  16.259  0.00  0.00    +0.000 A 
ATOM     33  C   UNL     1      -2.204  11.028  17.568  0.00  0.00    +0.000 A 
ATOM     34  O   UNL     1      -1.034  10.599  18.124  0.00  0.00    +0.000 OA
ENDBRANCH  23  26
ENDBRANCH  21  24
ENDBRANCH   1  21
TORSDOF 7
ENDMDL
MODEL 4
REMARK VINA RESULT:      -9.0      1.969      2.487
REMARK  Name = 
REMARK  7 active torsions:
REMARK  status: ('A' for Active; 'I' for Inactive)
REMARK    1  A    between atoms: C_2  and  C_25
REMARK    2  A    between atoms: N_3  and  C_4
REMARK    3  A    between atoms: C_4  and  C_5
REMARK    4  A    between atoms: C_8  and  S_9
REMARK    5  A    between atoms: S_9  and  C_12
REMARK    6  A    between atoms: C_16  and  O_17
REMARK    7  A    between atoms: O_17  and  C_18
REMARK                            x       y       z     vdW  Elec       q    Type
REMARK                         _______ _______ _______ _____ _____    ______ ____
ROOT
ATOM      1  C   UNL     1       1.536   7.726  20.536  0.00  0.00    +0.000 A 
ATOM      2  C   UNL     1       2.145   7.922  19.299  0.00  0.00    +0.000 A 
ATOM      3  C   UNL     1       2.703   6.826  18.641  0.00  0.00    +0.000 A 
ATOM      4  C   UNL     1       2.624   5.571  19.243  0.00  0.00    +0.000 A 
ATOM      5  C   UNL     1       2.010   5.456  20.478  0.00  0.00    +0.000 A 
ATOM      6  N   UNL     1       1.451   6.504  21.127  0.00  0.00    +0.000 NA
ENDROOT
BRANCH   4   7
ATOM      7  S   UNL     1       3.338   4.152  18.488  0.00  0.00    +0.000 S 
ATOM      8  O   UNL     1       3.298   3.080  19.469  0.00  0.00    +0.000 OA
ATOM      9  O   UNL     1       2.700   3.976  17.195  0.00  0.00    +0.000 OA
BRANCH   7  10
ATOM     10  C   UNL     1       5.045   4.536  18.183  0.00  0.00    +0.000 A 
ATOM     11  C   UNL     1       5.854   4.972  19.236  0.00  0.00    +0.000 A 
ATOM     12  C   UNL     1       7.187   5.282  18.982  0.00  0.00    +0.000 A 
ATOM     13  C   UNL     1       7.705   5.131  17.692  0.00  0.00    +0.000 A 
ATOM     14  C   UNL     1       6.896   4.677  16.645  0.00  0.00    +0.000 A 
ATOM     15  C   UNL     1       5.550   4.429  16.881  0.00  0.00    +0.000 A 
BRANCH  14  16
ATOM     16  O   UNL     1       7.525   4.579  15.438  0.00  0.00    +0.000 OA
BRANCH  16  17
ATOM     17  C   UNL     1       6.752   4.642  14.243  0.00  0.00    +0.000 C 
ATOM     18  F   UNL     1       7.456   4.983  13.143  0.00  0.00    +0.000 F 
ATOM     19  F   UNL     1       6.167   3.444  14.030  0.00  0.00    +0.000 F 
ATOM     20  F   UNL     1       5.780   5.565  14.411  0.00  0.00    +0.000 F 
ENDBRANCH  16  17
ENDBRANCH  14  16
ENDBRANCH   7  10
ENDBRANCH   4   7
BRANCH   1  21
ATOM     21  C   UNL     1       0.853   8.872  21.236  0.00  0.00    +0.000 C 
BRANCH  21  24
ATOM     22  O   UNL     1       0.067  11.558  21.356  0.00  0.00    +0.000 OA
ATOM     23  C   UNL     1      -0.404  10.850  20.471  0.00  0.00    +0.000 C 
ATOM     24  N   UNL     1      -0.095   9.514  20.358  0.00  0.00    +0.000 N 
ATOM     25  H   UNL     1      -0.420   9.018  19.537  0.00  0.00    +0.000 HD
BRANCH  23  26
ATOM     26  C   UNL     1      -1.396  11.308  19.531  0.00  0.00    +0.000 A 
ATOM     27  C   UNL     1      -2.566  12.002  19.764  0.00  0.00    +0.000 A 
ATOM     28  C   UNL     1      -3.361  11.823  18.607  0.00  0.00    +0.000 A 
ATOM     29  C   UNL     1      -4.705  12.023  18.281  0.00  0.00    +0.000 A 
ATOM     30  C   UNL     1      -5.078  11.662  16.993  0.00  0.00    +0.000 A 
ATOM     31  N   UNL     1      -4.231  11.212  16.035  0.00  0.00    +0.000 NA
ATOM     32  C   UNL     1      -2.922  11.022  16.349  0.00  0.00    +0.000 A 
ATOM     33  C   UNL     1      -2.519  11.271  17.650  0.00  0.00    +0.000 A 
ATOM     34  O   UNL     1      -1.312  10.960  18.207  0.00  0.00    +0.000 OA
ENDBRANCH  23  26
ENDBRANCH  21  24
ENDBRANCH   1  21
TORSDOF 7
ENDMDL
MODEL 5
REMARK VINA RESULT:      -8.9      2.657      3.198
REMARK  Name = 
REMARK  7 active torsions:
REMARK  status: ('A' for Active; 'I' for Inactive)
REMARK    1  A    between atoms: C_2  and  C_25
REMARK    2  A    between atoms: N_3  and  C_4
REMARK    3  A    between atoms: C_4  and  C_5
REMARK    4  A    between atoms: C_8  and  S_9
REMARK    5  A    between atoms: S_9  and  C_12
REMARK    6  A    between atoms: C_16  and  O_17
REMARK    7  A    between atoms: O_17  and  C_18
REMARK                            x       y       z     vdW  Elec       q    Type
REMARK                         _______ _______ _______ _____ _____    ______ ____
ROOT
ATOM      1  C   UNL     1       1.959   7.216  20.130  0.00  0.00    +0.000 A 
ATOM      2  C   UNL     1       1.825   6.016  20.824  0.00  0.00    +0.000 A 
ATOM      3  C   UNL     1       2.366   4.855  20.273  0.00  0.00    +0.000 A 
ATOM      4  C   UNL     1       3.028   4.938  19.050  0.00  0.00    +0.000 A 
ATOM      5  C   UNL     1       3.113   6.165  18.414  0.00  0.00    +0.000 A 
ATOM      6  N   UNL     1       2.607   7.306  18.938  0.00  0.00    +0.000 NA
ENDROOT
BRANCH   4   7
ATOM      7  S   UNL     1       3.701   3.508  18.279  0.00  0.00    +0.000 S 
ATOM      8  O   UNL     1       4.256   2.675  19.334  0.00  0.00    +0.000 OA
ATOM      9  O   UNL     1       2.688   2.972  17.388  0.00  0.00    +0.000 OA
BRANCH   7  10
ATOM     10  C   UNL     1       5.053   4.058  17.267  0.00  0.00    +0.000 A 
ATOM     11  C   UNL     1       6.303   4.290  17.847  0.00  0.00    +0.000 A 
ATOM     12  C   UNL     1       7.351   4.733  17.046  0.00  0.00    +0.000 A 
ATOM     13  C   UNL     1       7.150   4.917  15.674  0.00  0.00    +0.000 A 
ATOM     14  C   UNL     1       5.902   4.667  15.094  0.00  0.00    +0.000 A 
ATOM     15  C   UNL     1       4.838   4.287  15.901  0.00  0.00    +0.000 A 
BRANCH  14  16
ATOM     16  O   UNL     1       5.842   4.891  13.749  0.00  0.00    +0.000 OA
BRANCH  16  17
ATOM     17  C   UNL     1       6.123   3.821  12.852  0.00  0.00    +0.000 C 
ATOM     18  F   UNL     1       7.168   4.048  12.026  0.00  0.00    +0.000 F 
ATOM     19  F   UNL     1       6.367   2.699  13.563  0.00  0.00    +0.000 F 
ATOM     20  F   UNL     1       5.032   3.609  12.084  0.00  0.00    +0.000 F 
ENDBRANCH  16  17
ENDBRANCH  14  16
ENDBRANCH   7  10
ENDBRANCH   4   7
BRANCH   1  21
ATOM     21  C   UNL     1       1.458   8.502  20.734  0.00  0.00    +0.000 C 
BRANCH  21  24
ATOM     22  O   UNL     1      -0.474  10.400  21.451  0.00  0.00    +0.000 OA
ATOM     23  C   UNL     1      -0.343  10.118  20.264  0.00  0.00    +0.000 C 
ATOM     24  N   UNL     1       0.560   9.176  19.827  0.00  0.00    +0.000 N 
ATOM     25  H   UNL     1       0.704   9.081  18.830  0.00  0.00    +0.000 HD
BRANCH  23  26
ATOM     26  C   UNL     1      -1.180  10.660  19.222  0.00  0.00    +0.000 A 
ATOM     27  C   UNL     1      -2.203  11.581  19.314  0.00  0.00    +0.000 A 
ATOM     28  C   UNL     1      -2.959  11.441  18.125  0.00  0.00    +0.000 A 
ATOM     29  C   UNL     1      -4.221  11.857  17.692  0.00  0.00    +0.000 A 
ATOM     30  C   UNL     1      -4.592  11.448  16.418  0.00  0.00    +0.000 A 
ATOM     31  N   UNL     1      -3.800  10.754  15.563  0.00  0.00    +0.000 NA
ATOM     32  C   UNL     1      -2.570  10.354  15.980  0.00  0.00    +0.000 A 
ATOM     33  C   UNL     1      -2.192  10.649  17.279  0.00  0.00    +0.000 A 
ATOM     34  O   UNL     1      -1.098  10.174  17.942  0.00  0.00    +0.000 OA
ENDBRANCH  23  26
ENDBRANCH  21  24
ENDBRANCH   1  21
TORSDOF 7
ENDMDL
MODEL 6
REMARK VINA RESULT:      -8.9      2.273      2.908
REMARK  Name = 
REMARK  7 active torsions:
REMARK  status: ('A' for Active; 'I' for Inactive)
REMARK    1  A    between atoms: C_2  and  C_25
REMARK    2  A    between atoms: N_3  and  C_4
REMARK    3  A    between atoms: C_4  and  C_5
REMARK    4  A    between atoms: C_8  and  S_9
REMARK    5  A    between atoms: S_9  and  C_12
REMARK    6  A    between atoms: C_16  and  O_17
REMARK    7  A    between atoms: O_17  and  C_18
REMARK                            x       y       z     vdW  Elec       q    Type
REMARK                         _______ _______ _______ _____ _____    ______ ____
ROOT
ATOM      1  C   UNL     1       1.608   8.630  19.884  0.00  0.00    +0.000 A 
ATOM      2  C   UNL     1       2.061   8.376  18.592  0.00  0.00    +0.000 A 
ATOM      3  C   UNL     1       2.449   7.079  18.257  0.00  0.00    +0.000 A 
ATOM      4  C   UNL     1       2.361   6.081  19.226  0.00  0.00    +0.000 A 
ATOM      5  C   UNL     1       1.909   6.412  20.492  0.00  0.00    +0.000 A 
ATOM      6  N   UNL     1       1.516   7.661  20.834  0.00  0.00    +0.000 NA
ENDROOT
BRANCH   4   7
ATOM      7  S   UNL     1       2.868   4.432  18.885  0.00  0.00    +0.000 S 
ATOM      8  O   UNL     1       2.942   3.735  20.158  0.00  0.00    +0.000 OA
ATOM      9  O   UNL     1       2.013   3.922  17.827  0.00  0.00    +0.000 OA
BRANCH   7  10
ATOM     10  C   UNL     1       4.516   4.525  18.230  0.00  0.00    +0.000 A 
ATOM     11  C   UNL     1       5.534   5.098  18.997  0.00  0.00    +0.000 A 
ATOM     12  C   UNL     1       6.819   5.177  18.468  0.00  0.00    +0.000 A 
ATOM     13  C   UNL     1       7.080   4.664  17.194  0.00  0.00    +0.000 A 
ATOM     14  C   UNL     1       6.063   4.075  16.436  0.00  0.00    +0.000 A 
ATOM     15  C   UNL     1       4.767   4.053  16.935  0.00  0.00    +0.000 A 
BRANCH  14  16
ATOM     16  O   UNL     1       6.453   3.620  15.210  0.00  0.00    +0.000 OA
BRANCH  16  17
ATOM     17  C   UNL     1       6.192   4.414  14.057  0.00  0.00    +0.000 C 
ATOM     18  F   UNL     1       5.621   3.741  13.035  0.00  0.00    +0.000 F 
ATOM     19  F   UNL     1       5.390   5.444  14.401  0.00  0.00    +0.000 F 
ATOM     20  F   UNL     1       7.364   4.918  13.612  0.00  0.00    +0.000 F 
ENDBRANCH  16  17
ENDBRANCH  14  16
ENDBRANCH   7  10
ENDBRANCH   4   7
BRANCH   1  21
ATOM     21  C   UNL     1       1.106  10.001  20.256  0.00  0.00    +0.000 C 
BRANCH  21  24
ATOM     22  O   UNL     1      -0.016  12.397  19.333  0.00  0.00    +0.000 OA
ATOM     23  C   UNL     1      -0.719  11.391  19.354  0.00  0.00    +0.000 C 
ATOM     24  N   UNL     1      -0.258  10.181  19.819  0.00  0.00    +0.000 N 
ATOM     25  H   UNL     1      -0.846   9.367  19.694  0.00  0.00    +0.000 HD
BRANCH  23  26
ATOM     26  C   UNL     1      -2.115  11.391  18.995  0.00  0.00    +0.000 A 
ATOM     27  C   UNL     1      -2.725  10.907  17.854  0.00  0.00    +0.000 A 
ATOM     28  C   UNL     1      -3.996  11.527  17.802  0.00  0.00    +0.000 A 
ATOM     29  C   UNL     1      -4.987  11.687  16.830  0.00  0.00    +0.000 A 
ATOM     30  C   UNL     1      -6.099  12.426  17.211  0.00  0.00    +0.000 A 
ATOM     31  N   UNL     1      -6.313  12.924  18.454  0.00  0.00    +0.000 NA
ATOM     32  C   UNL     1      -5.354  12.764  19.403  0.00  0.00    +0.000 A 
ATOM     33  C   UNL     1      -4.180  12.122  19.044  0.00  0.00    +0.000 A 
ATOM     34  O   UNL     1      -3.035  12.035  19.782  0.00  0.00    +0.000 OA
ENDBRANCH  23  26
ENDBRANCH  21  24
ENDBRANCH   1  21
TORSDOF 7
ENDMDL
MODEL 7
REMARK VINA RESULT:      -8.8      2.475      3.184
REMARK  Name = 
REMARK  7 active torsions:
REMARK  status: ('A' for Active; 'I' for Inactive)
REMARK    1  A    between atoms: C_2  and  C_25
REMARK    2  A    between atoms: N_3  and  C_4
REMARK    3  A    between atoms: C_4  and  C_5
REMARK    4  A    between atoms: C_8  and  S_9
REMARK    5  A    between atoms: S_9  and  C_12
REMARK    6  A    between atoms: C_16  and  O_17
REMARK    7  A    between atoms: O_17  and  C_18
REMARK                            x       y       z     vdW  Elec       q    Type
REMARK                         _______ _______ _______ _____ _____    ______ ____
ROOT
ATOM      1  C   UNL     1       1.483   9.985  18.725  0.00  0.00    +0.000 A 
ATOM      2  C   UNL     1       1.328   9.286  19.919  0.00  0.00    +0.000 A 
ATOM      3  C   UNL     1       1.723   7.949  19.974  0.00  0.00    +0.000 A 
ATOM      4  C   UNL     1       2.266   7.363  18.832  0.00  0.00    +0.000 A 
ATOM      5  C   UNL     1       2.382   8.120  17.679  0.00  0.00    +0.000 A 
ATOM      6  N   UNL     1       2.017   9.421  17.608  0.00  0.00    +0.000 NA
ENDROOT
BRANCH   4   7
ATOM      7  S   UNL     1       2.751   5.673  18.819  0.00  0.00    +0.000 S 
ATOM      8  O   UNL     1       2.696   5.201  20.193  0.00  0.00    +0.000 OA
ATOM      9  O   UNL     1       1.976   5.003  17.790  0.00  0.00    +0.000 OA
BRANCH   7  10
ATOM     10  C   UNL     1       4.451   5.630  18.308  0.00  0.00    +0.000 A 
ATOM     11  C   UNL     1       5.459   5.504  19.267  0.00  0.00    +0.000 A 
ATOM     12  C   UNL     1       6.789   5.484  18.855  0.00  0.00    +0.000 A 
ATOM     13  C   UNL     1       7.098   5.566  17.494  0.00  0.00    +0.000 A 
ATOM     14  C   UNL     1       6.085   5.673  16.535  0.00  0.00    +0.000 A 
ATOM     15  C   UNL     1       4.762   5.758  16.947  0.00  0.00    +0.000 A 
BRANCH  14  16
ATOM     16  O   UNL     1       6.524   5.749  15.245  0.00  0.00    +0.000 OA
BRANCH  16  17
ATOM     17  C   UNL     1       6.357   4.626  14.386  0.00  0.00    +0.000 C 
ATOM     18  F   UNL     1       5.101   4.469  13.915  0.00  0.00    +0.000 F 
ATOM     19  F   UNL     1       7.202   4.739  13.339  0.00  0.00    +0.000 F 
ATOM     20  F   UNL     1       6.679   3.509  15.074  0.00  0.00    +0.000 F 
ENDBRANCH  16  17
ENDBRANCH  14  16
ENDBRANCH   7  10
ENDBRANCH   4   7
BRANCH   1  21
ATOM     21  C   UNL     1       1.143  11.451  18.654  0.00  0.00    +0.000 C 
BRANCH  21  24
ATOM     22  O   UNL     1      -0.454  12.549  20.677  0.00  0.00    +0.000 OA
ATOM     23  C   UNL     1      -0.990  12.214  19.625  0.00  0.00    +0.000 C 
ATOM     24  N   UNL     1      -0.286  11.640  18.591  0.00  0.00    +0.000 N 
ATOM     25  H   UNL     1      -0.763  11.502  17.710  0.00  0.00    +0.000 HD
BRANCH  23  26
ATOM     26  C   UNL     1      -2.412  12.290  19.399  0.00  0.00    +0.000 A 
ATOM     27  C   UNL     1      -3.405  12.767  20.231  0.00  0.00    +0.000 A 
ATOM     28  C   UNL     1      -4.617  12.229  19.737  0.00  0.00    +0.000 A 
ATOM     29  C   UNL     1      -5.920  12.096  20.224  0.00  0.00    +0.000 A 
ATOM     30  C   UNL     1      -6.817  11.444  19.389  0.00  0.00    +0.000 A 
ATOM     31  N   UNL     1      -6.538  11.009  18.136  0.00  0.00    +0.000 NA
ATOM     32  C   UNL     1      -5.274  11.143  17.658  0.00  0.00    +0.000 A 
ATOM     33  C   UNL     1      -4.315  11.695  18.490  0.00  0.00    +0.000 A 
ATOM     34  O   UNL     1      -2.968  11.736  18.274  0.00  0.00    +0.000 OA
ENDBRANCH  23  26
ENDBRANCH  21  24
ENDBRANCH   1  21
TORSDOF 7
ENDMDL
MODEL 8
REMARK VINA RESULT:      -8.8      2.695      3.471
REMARK  Name = 
REMARK  7 active torsions:
REMARK  status: ('A' for Active; 'I' for Inactive)
REMARK    1  A    between atoms: C_2  and  C_25
REMARK    2  A    between atoms: N_3  and  C_4
REMARK    3  A    between atoms: C_4  and  C_5
REMARK    4  A    between atoms: C_8  and  S_9
REMARK    5  A    between atoms: S_9  and  C_12
REMARK    6  A    between atoms: C_16  and  O_17
REMARK    7  A    between atoms: O_17  and  C_18
REMARK                            x       y       z     vdW  Elec       q    Type
REMARK                         _______ _______ _______ _____ _____    ______ ____
ROOT
ATOM      1  C   UNL     1       1.396   9.511  18.785  0.00  0.00    +0.000 A 
ATOM      2  C   UNL     1       1.350   8.787  19.974  0.00  0.00    +0.000 A 
ATOM      3  C   UNL     1       1.918   7.514  20.009  0.00  0.00    +0.000 A 
ATOM      4  C   UNL     1       2.518   7.015  18.855  0.00  0.00    +0.000 A 
ATOM      5  C   UNL     1       2.517   7.790  17.708  0.00  0.00    +0.000 A 
ATOM      6  N   UNL     1       1.984   9.033  17.656  0.00  0.00    +0.000 NA
ENDROOT
BRANCH   4   7
ATOM      7  S   UNL     1       3.221   5.403  18.817  0.00  0.00    +0.000 S 
ATOM      8  O   UNL     1       3.462   5.009  20.195  0.00  0.00    +0.000 OA
ATOM      9  O   UNL     1       2.383   4.579  17.964  0.00  0.00    +0.000 OA
BRANCH   7  10
ATOM     10  C   UNL     1       4.800   5.549  18.019  0.00  0.00    +0.000 A 
ATOM     11  C   UNL     1       5.951   5.733  18.790  0.00  0.00    +0.000 A 
ATOM     12  C   UNL     1       7.182   5.859  18.152  0.00  0.00    +0.000 A 
ATOM     13  C   UNL     1       7.256   5.777  16.759  0.00  0.00    +0.000 A 
ATOM     14  C   UNL     1       6.104   5.576  15.991  0.00  0.00    +0.000 A 
ATOM     15  C   UNL     1       4.867   5.514  16.619  0.00  0.00    +0.000 A 
BRANCH  14  16
ATOM     16  O   UNL     1       6.317   5.520  14.644  0.00  0.00    +0.000 OA
BRANCH  16  17
ATOM     17  C   UNL     1       6.171   4.276  13.967  0.00  0.00    +0.000 C 
ATOM     18  F   UNL     1       6.987   4.123  12.902  0.00  0.00    +0.000 F 
ATOM     19  F   UNL     1       6.400   3.269  14.837  0.00  0.00    +0.000 F 
ATOM     20  F   UNL     1       4.898   4.176  13.527  0.00  0.00    +0.000 F 
ENDBRANCH  16  17
ENDBRANCH  14  16
ENDBRANCH   7  10
ENDBRANCH   4   7
BRANCH   1  21
ATOM     21  C   UNL     1       0.865  10.921  18.735  0.00  0.00    +0.000 C 
BRANCH  21  24
ATOM     22  O   UNL     1      -0.792  13.151  18.379  0.00  0.00    +0.000 OA
ATOM     23  C   UNL     1      -1.314  12.067  18.621  0.00  0.00    +0.000 C 
ATOM     24  N   UNL     1      -0.574  10.927  18.839  0.00  0.00    +0.000 N 
ATOM     25  H   UNL     1      -1.067  10.046  18.910  0.00  0.00    +0.000 HD
BRANCH  23  26
ATOM     26  C   UNL     1      -2.734  11.892  18.803  0.00  0.00    +0.000 A 
ATOM     27  C   UNL     1      -3.632  11.180  18.034  0.00  0.00    +0.000 A 
ATOM     28  C   UNL     1      -4.913  11.674  18.377  0.00  0.00    +0.000 A 
ATOM     29  C   UNL     1      -6.194  11.590  17.825  0.00  0.00    +0.000 A 
ATOM     30  C   UNL     1      -7.191  12.287  18.494  0.00  0.00    +0.000 A 
ATOM     31  N   UNL     1      -7.022  12.962  19.658  0.00  0.00    +0.000 NA
ATOM     32  C   UNL     1      -5.778  13.039  20.200  0.00  0.00    +0.000 A 
ATOM     33  C   UNL     1      -4.729  12.447  19.517  0.00  0.00    +0.000 A 
ATOM     34  O   UNL     1      -3.398  12.577  19.788  0.00  0.00    +0.000 OA
ENDBRANCH  23  26
ENDBRANCH  21  24
ENDBRANCH   1  21
TORSDOF 7
ENDMDL
MODEL 9
REMARK VINA RESULT:      -8.8      3.130      4.001
REMARK  Name = 
REMARK  7 active torsions:
REMARK  status: ('A' for Active; 'I' for Inactive)
REMARK    1  A    between atoms: C_2  and  C_25
REMARK    2  A    between atoms: N_3  and  C_4
REMARK    3  A    between atoms: C_4  and  C_5
REMARK    4  A    between atoms: C_8  and  S_9
REMARK    5  A    between atoms: S_9  and  C_12
REMARK    6  A    between atoms: C_16  and  O_17
REMARK    7  A    between atoms: O_17  and  C_18
REMARK                            x       y       z     vdW  Elec       q    Type
REMARK                         _______ _______ _______ _____ _____    ______ ____
ROOT
ATOM      1  C   UNL     1       1.491   9.971  18.671  0.00  0.00    +0.000 A 
ATOM      2  C   UNL     1       1.295   9.279  19.863  0.00  0.00    +0.000 A 
ATOM      3  C   UNL     1       1.707   7.949  19.946  0.00  0.00    +0.000 A 
ATOM      4  C   UNL     1       2.307   7.363  18.834  0.00  0.00    +0.000 A 
ATOM      5  C   UNL     1       2.461   8.112  17.680  0.00  0.00    +0.000 A 
ATOM      6  N   UNL     1       2.080   9.407  17.583  0.00  0.00    +0.000 NA
ENDROOT
BRANCH   4   7
ATOM      7  S   UNL     1       2.817   5.680  18.855  0.00  0.00    +0.000 S 
ATOM      8  O   UNL     1       2.898   5.275  20.249  0.00  0.00    +0.000 OA
ATOM      9  O   UNL     1       1.961   4.951  17.937  0.00  0.00    +0.000 OA
BRANCH   7  10
ATOM     10  C   UNL     1       4.463   5.633  18.189  0.00  0.00    +0.000 A 
ATOM     11  C   UNL     1       5.560   5.613  19.055  0.00  0.00    +0.000 A 
ATOM     12  C   UNL     1       6.845   5.590  18.521  0.00  0.00    +0.000 A 
ATOM     13  C   UNL     1       7.023   5.561  17.135  0.00  0.00    +0.000 A 
ATOM     14  C   UNL     1       5.923   5.562  16.271  0.00  0.00    +0.000 A 
ATOM     15  C   UNL     1       4.641   5.651  16.799  0.00  0.00    +0.000 A 
BRANCH  14  16
ATOM     16  O   UNL     1       6.237   5.537  14.943  0.00  0.00    +0.000 OA
BRANCH  16  17
ATOM     17  C   UNL     1       6.130   4.312  14.226  0.00  0.00    +0.000 C 
ATOM     18  F   UNL     1       7.029   4.171  13.228  0.00  0.00    +0.000 F 
ATOM     19  F   UNL     1       6.271   3.281  15.086  0.00  0.00    +0.000 F 
ATOM     20  F   UNL     1       4.897   4.243  13.679  0.00  0.00    +0.000 F 
ENDBRANCH  16  17
ENDBRANCH  14  16
ENDBRANCH   7  10
ENDBRANCH   4   7
BRANCH   1  21
ATOM     21  C   UNL     1       1.132  11.432  18.573  0.00  0.00    +0.000 C 
BRANCH  21  24
ATOM     22  O   UNL     1      -1.538  12.165  18.148  0.00  0.00    +0.000 OA
ATOM     23  C   UNL     1      -1.121  12.115  19.301  0.00  0.00    +0.000 C 
ATOM     24  N   UNL     1       0.183  11.793  19.598  0.00  0.00    +0.000 N 
ATOM     25  H   UNL     1       0.429  11.650  20.569  0.00  0.00    +0.000 HD
BRANCH  23  26
ATOM     26  C   UNL     1      -1.913  12.483  20.448  0.00  0.00    +0.000 A 
ATOM     27  C   UNL     1      -1.547  12.555  21.777  0.00  0.00    +0.000 A 
ATOM     28  C   UNL     1      -2.755  12.533  22.514  0.00  0.00    +0.000 A 
ATOM     29  C   UNL     1      -3.103  12.325  23.851  0.00  0.00    +0.000 A 
ATOM     30  C   UNL     1      -4.461  12.353  24.138  0.00  0.00    +0.000 A 
ATOM     31  N   UNL     1      -5.439  12.637  23.242  0.00  0.00    +0.000 NA
ATOM     32  C   UNL     1      -5.103  12.846  21.943  0.00  0.00    +0.000 A 
ATOM     33  C   UNL     1      -3.770  12.728  21.585  0.00  0.00    +0.000 A 
ATOM     34  O   UNL     1      -3.261  12.706  20.319  0.00  0.00    +0.000 OA
ENDBRANCH  23  26
ENDBRANCH  21  24
ENDBRANCH   1  21
TORSDOF 7
ENDMDL
