MODEL 1
REMARK VINA RESULT:      -8.1      0.000      0.000
REMARK  Name = 
REMARK  8 active torsions:
REMARK  status: ('A' for Active; 'I' for Inactive)
REMARK    1  A    between atoms: C_1  and  C_2
REMARK    2  A    between atoms: C_2  and  C_3
REMARK    3  A    between atoms: C_2  and  N_9
REMARK    4  A    between atoms: C_3  and  N_4
REMARK    5  A    between atoms: C_10  and  C_12
REMARK    6  A    between atoms: N_14  and  C_15
REMARK    7  A    between atoms: C_20  and  S_21
REMARK    8  A    between atoms: S_21  and  C_22
REMARK                            x       y       z     vdW  Elec       q    Type
REMARK                         _______ _______ _______ _____ _____    ______ ____
ROOT
ATOM      1  C   UNL     1       2.361   6.945  18.813  0.00  0.00    +0.000 C 
ATOM      2  O   UNL     1       2.445   6.758  20.022  0.00  0.00    +0.000 OA
ATOM      3  N   UNL     1       2.473   5.995  17.808  0.00  0.00    +0.000 N 
ATOM      4  H   UNL     1       2.623   6.327  16.862  0.00  0.00    +0.000 HD
ENDROOT
BRANCH   3   5
ATOM      5  C   UNL     1       2.554   4.607  18.069  0.00  0.00    +0.000 A 
ATOM      6  C   UNL     1       1.436   3.972  18.646  0.00  0.00    +0.000 A 
ATOM      7  C   UNL     1       1.414   2.599  18.888  0.00  0.00    +0.000 A 
ATOM      8  C   UNL     1       2.530   1.836  18.586  0.00  0.00    +0.000 A 
ATOM      9  C   UNL     1       3.642   2.446  18.002  0.00  0.00    +0.000 A 
ATOM     10  C   UNL     1       3.668   3.829  17.709  0.00  0.00    +0.000 A 
BRANCH  10  11
ATOM     11  S   UNL     1       5.133   4.352  16.817  0.00  0.00    +0.000 S 
BRANCH  11  12
ATOM     12  C   UNL     1       6.008   5.558  17.872  0.00  0.00    +0.000 C 
ATOM     13  C   UNL     1       7.405   5.184  18.347  0.00  0.00    +0.000 C 
ATOM     14  C   UNL     1       8.031   6.534  18.684  0.00  0.00    +0.000 C 
ATOM     15  C   UNL     1       7.476   7.508  17.653  0.00  0.00    +0.000 C 
ATOM     16  C   UNL     1       6.234   6.846  17.062  0.00  0.00    +0.000 C 
ENDBRANCH  11  12
ENDBRANCH  10  11
ENDBRANCH   3   5
BRANCH   1  18
ATOM     17  N   UNL     1       1.302   9.093  19.187  0.00  0.00    +0.000 N 
ATOM     18  C   UNL     1       2.142   8.400  18.338  0.00  0.00    +0.000 C 
ATOM     19  O   UNL     1       2.658   8.808  17.311  0.00  0.00    +0.000 OA
ATOM     20  H   UNL     1       0.952   8.538  19.967  0.00  0.00    +0.000 HD
BRANCH  17  22
ATOM     21  C   UNL     1      -0.712  10.398  18.647  0.00  0.00    +0.000 C 
ATOM     22  C   UNL     1       0.782  10.454  18.976  0.00  0.00    +0.000 C 
BRANCH  22  23
ATOM     23  C   UNL     1       1.056  11.307  20.232  0.00  0.00    +0.000 C 
BRANCH  23  24
ATOM     24  N   UNL     1       0.529  10.797  21.481  0.00  0.00    +0.000 N 
ATOM     25  C   UNL     1      -0.632  11.188  22.093  0.00  0.00    +0.000 A 
ATOM     26  C   UNL     1      -0.841  10.303  23.124  0.00  0.00    +0.000 A 
ATOM     27  C   UNL     1       0.257   9.424  23.061  0.00  0.00    +0.000 A 
ATOM     28  N   UNL     1       1.097   9.726  22.068  0.00  0.00    +0.000 NA
ENDBRANCH  23  24
ENDBRANCH  22  23
ENDBRANCH  17  22
ENDBRANCH   1  18
TORSDOF 7
ENDMDL
MODEL 2
REMARK VINA RESULT:      -7.8      1.274      1.500
REMARK  Name = 
REMARK  8 active torsions:
REMARK  status: ('A' for Active; 'I' for Inactive)
REMARK    1  A    between atoms: C_1  and  C_2
REMARK    2  A    between atoms: C_2  and  C_3
REMARK    3  A    between atoms: C_2  and  N_9
REMARK    4  A    between atoms: C_3  and  N_4
REMARK    5  A    between atoms: C_10  and  C_12
REMARK    6  A    between atoms: N_14  and  C_15
REMARK    7  A    between atoms: C_20  and  S_21
REMARK    8  A    between atoms: S_21  and  C_22
REMARK                            x       y       z     vdW  Elec       q    Type
REMARK                         _______ _______ _______ _____ _____    ______ ____
ROOT
ATOM      1  C   UNL     1       2.127   7.512  18.882  0.00  0.00    +0.000 C 
ATOM      2  O   UNL     1       2.068   7.318  20.092  0.00  0.00    +0.000 OA
ATOM      3  N   UNL     1       2.505   6.603  17.905  0.00  0.00    +0.000 N 
ATOM      4  H   UNL     1       2.737   6.968  16.988  0.00  0.00    +0.000 HD
ENDROOT
BRANCH   3   5
ATOM      5  C   UNL     1       2.738   5.235  18.178  0.00  0.00    +0.000 A 
ATOM      6  C   UNL     1       1.680   4.325  17.975  0.00  0.00    +0.000 A 
ATOM      7  C   UNL     1       1.841   2.955  18.170  0.00  0.00    +0.000 A 
ATOM      8  C   UNL     1       3.062   2.467  18.607  0.00  0.00    +0.000 A 
ATOM      9  C   UNL     1       4.125   3.352  18.803  0.00  0.00    +0.000 A 
ATOM     10  C   UNL     1       3.995   4.740  18.568  0.00  0.00    +0.000 A 
BRANCH  10  11
ATOM     11  S   UNL     1       5.532   5.647  18.729  0.00  0.00    +0.000 S 
BRANCH  11  12
ATOM     12  C   UNL     1       6.310   5.695  17.078  0.00  0.00    +0.000 C 
ATOM     13  C   UNL     1       7.067   4.453  16.628  0.00  0.00    +0.000 C 
ATOM     14  C   UNL     1       7.088   4.589  15.109  0.00  0.00    +0.000 C 
ATOM     15  C   UNL     1       5.753   5.221  14.739  0.00  0.00    +0.000 C 
ATOM     16  C   UNL     1       5.206   5.848  16.019  0.00  0.00    +0.000 C 
ENDBRANCH  11  12
ENDBRANCH  10  11
ENDBRANCH   3   5
BRANCH   1  18
ATOM     17  N   UNL     1       0.891   9.569  19.222  0.00  0.00    +0.000 N 
ATOM     18  C   UNL     1       1.779   8.931  18.378  0.00  0.00    +0.000 C 
ATOM     19  O   UNL     1       2.248   9.359  17.337  0.00  0.00    +0.000 OA
ATOM     20  H   UNL     1       0.598   9.004  20.018  0.00  0.00    +0.000 HD
BRANCH  17  22
ATOM     21  C   UNL     1      -1.232  10.684  18.670  0.00  0.00    +0.000 C 
ATOM     22  C   UNL     1       0.254  10.875  18.987  0.00  0.00    +0.000 C 
BRANCH  22  23
ATOM     23  C   UNL     1       0.460  11.774  20.224  0.00  0.00    +0.000 C 
BRANCH  23  24
ATOM     24  N   UNL     1       0.047  11.220  21.496  0.00  0.00    +0.000 N 
ATOM     25  C   UNL     1      -1.113  11.500  22.168  0.00  0.00    +0.000 A 
ATOM     26  C   UNL     1      -1.185  10.601  23.205  0.00  0.00    +0.000 A 
ATOM     27  C   UNL     1      -0.012   9.831  23.085  0.00  0.00    +0.000 A 
ATOM     28  N   UNL     1       0.743  10.208  22.050  0.00  0.00    +0.000 NA
ENDBRANCH  23  24
ENDBRANCH  22  23
ENDBRANCH  17  22
ENDBRANCH   1  18
TORSDOF 7
ENDMDL
MODEL 3
REMARK VINA RESULT:      -7.6      1.412      1.889
REMARK  Name = 
REMARK  8 active torsions:
REMARK  status: ('A' for Active; 'I' for Inactive)
REMARK    1  A    between atoms: C_1  and  C_2
REMARK    2  A    between atoms: C_2  and  C_3
REMARK    3  A    between atoms: C_2  and  N_9
REMARK    4  A    between atoms: C_3  and  N_4
REMARK    5  A    between atoms: C_10  and  C_12
REMARK    6  A    between atoms: N_14  and  C_15
REMARK    7  A    between atoms: C_20  and  S_21
REMARK    8  A    between atoms: S_21  and  C_22
REMARK                            x       y       z     vdW  Elec       q    Type
REMARK                         _______ _______ _______ _____ _____    ______ ____
ROOT
ATOM      1  C   UNL     1       2.390   6.983  18.842  0.00  0.00    +0.000 C 
ATOM      2  O   UNL     1       2.628   6.860  20.039  0.00  0.00    +0.000 OA
ATOM      3  N   UNL     1       2.383   5.982  17.881  0.00  0.00    +0.000 N 
ATOM      4  H   UNL     1       2.409   6.265  16.909  0.00  0.00    +0.000 HD
ENDROOT
BRANCH   3   5
ATOM      5  C   UNL     1       2.512   4.610  18.201  0.00  0.00    +0.000 A 
ATOM      6  C   UNL     1       1.339   3.832  18.281  0.00  0.00    +0.000 A 
ATOM      7  C   UNL     1       1.382   2.463  18.539  0.00  0.00    +0.000 A 
ATOM      8  C   UNL     1       2.603   1.848  18.757  0.00  0.00    +0.000 A 
ATOM      9  C   UNL     1       3.777   2.600  18.670  0.00  0.00    +0.000 A 
ATOM     10  C   UNL     1       3.759   3.981  18.366  0.00  0.00    +0.000 A 
BRANCH  10  11
ATOM     11  S   UNL     1       5.388   4.695  18.150  0.00  0.00    +0.000 S 
BRANCH  11  12
ATOM     12  C   UNL     1       6.019   4.126  16.534  0.00  0.00    +0.000 C 
ATOM     13  C   UNL     1       5.035   4.099  15.372  0.00  0.00    +0.000 C 
ATOM     14  C   UNL     1       5.943   4.137  14.146  0.00  0.00    +0.000 C 
ATOM     15  C   UNL     1       7.116   5.027  14.535  0.00  0.00    +0.000 C 
ATOM     16  C   UNL     1       7.111   5.100  16.061  0.00  0.00    +0.000 C 
ENDBRANCH  11  12
ENDBRANCH  10  11
ENDBRANCH   3   5
BRANCH   1  18
ATOM     17  N   UNL     1       1.289   9.113  19.198  0.00  0.00    +0.000 N 
ATOM     18  C   UNL     1       2.096   8.409  18.325  0.00  0.00    +0.000 C 
ATOM     19  O   UNL     1       2.534   8.790  17.252  0.00  0.00    +0.000 OA
ATOM     20  H   UNL     1       1.007   8.581  20.021  0.00  0.00    +0.000 HD
BRANCH  17  22
ATOM     21  C   UNL     1      -0.767  10.326  18.604  0.00  0.00    +0.000 C 
ATOM     22  C   UNL     1       0.716  10.449  18.968  0.00  0.00    +0.000 C 
BRANCH  22  23
ATOM     23  C   UNL     1       0.923  11.319  20.224  0.00  0.00    +0.000 C 
BRANCH  23  24
ATOM     24  N   UNL     1       0.031  11.064  21.335  0.00  0.00    +0.000 N 
ATOM     25  C   UNL     1       0.065   9.983  22.175  0.00  0.00    +0.000 A 
ATOM     26  C   UNL     1      -0.813  10.259  23.195  0.00  0.00    +0.000 A 
ATOM     27  C   UNL     1      -1.341  11.524  22.873  0.00  0.00    +0.000 A 
ATOM     28  N   UNL     1      -0.835  12.014  21.739  0.00  0.00    +0.000 NA
ENDBRANCH  23  24
ENDBRANCH  22  23
ENDBRANCH  17  22
ENDBRANCH   1  18
TORSDOF 7
ENDMDL
MODEL 4
REMARK VINA RESULT:      -7.3      1.900      2.820
REMARK  Name = 
REMARK  8 active torsions:
REMARK  status: ('A' for Active; 'I' for Inactive)
REMARK    1  A    between atoms: C_1  and  C_2
REMARK    2  A    between atoms: C_2  and  C_3
REMARK    3  A    between atoms: C_2  and  N_9
REMARK    4  A    between atoms: C_3  and  N_4
REMARK    5  A    between atoms: C_10  and  C_12
REMARK    6  A    between atoms: N_14  and  C_15
REMARK    7  A    between atoms: C_20  and  S_21
REMARK    8  A    between atoms: S_21  and  C_22
REMARK                            x       y       z     vdW  Elec       q    Type
REMARK                         _______ _______ _______ _____ _____    ______ ____
ROOT
ATOM      1  C   UNL     1       2.246   7.030  18.914  0.00  0.00    +0.000 C 
ATOM      2  O   UNL     1       2.225   6.949  20.138  0.00  0.00    +0.000 OA
ATOM      3  N   UNL     1       2.456   6.000  18.009  0.00  0.00    +0.000 N 
ATOM      4  H   UNL     1       2.685   6.252  17.055  0.00  0.00    +0.000 HD
ENDROOT
BRANCH   3   5
ATOM      5  C   UNL     1       2.530   4.641  18.396  0.00  0.00    +0.000 A 
ATOM      6  C   UNL     1       1.374   3.847  18.262  0.00  0.00    +0.000 A 
ATOM      7  C   UNL     1       1.376   2.488  18.571  0.00  0.00    +0.000 A 
ATOM      8  C   UNL     1       2.533   1.900  19.056  0.00  0.00    +0.000 A 
ATOM      9  C   UNL     1       3.691   2.669  19.185  0.00  0.00    +0.000 A 
ATOM     10  C   UNL     1       3.723   4.039  18.836  0.00  0.00    +0.000 A 
BRANCH  10  11
ATOM     11  S   UNL     1       5.355   4.773  18.932  0.00  0.00    +0.000 S 
BRANCH  11  12
ATOM     12  C   UNL     1       5.985   4.921  17.225  0.00  0.00    +0.000 C 
ATOM     13  C   UNL     1       5.486   3.905  16.208  0.00  0.00    +0.000 C 
ATOM     14  C   UNL     1       5.721   4.604  14.872  0.00  0.00    +0.000 C 
ATOM     15  C   UNL     1       5.450   6.080  15.133  0.00  0.00    +0.000 C 
ATOM     16  C   UNL     1       5.523   6.269  16.646  0.00  0.00    +0.000 C 
ENDBRANCH  11  12
ENDBRANCH  10  11
ENDBRANCH   3   5
BRANCH   1  18
ATOM     17  N   UNL     1       1.260   9.238  19.094  0.00  0.00    +0.000 N 
ATOM     18  C   UNL     1       2.052   8.434  18.297  0.00  0.00    +0.000 C 
ATOM     19  O   UNL     1       2.546   8.718  17.219  0.00  0.00    +0.000 OA
ATOM     20  H   UNL     1       0.921   8.777  19.938  0.00  0.00    +0.000 HD
BRANCH  17  22
ATOM     21  C   UNL     1      -0.738  10.549  18.513  0.00  0.00    +0.000 C 
ATOM     22  C   UNL     1       0.773  10.585  18.759  0.00  0.00    +0.000 C 
BRANCH  22  23
ATOM     23  C   UNL     1       1.141  11.561  19.895  0.00  0.00    +0.000 C 
BRANCH  23  24
ATOM     24  N   UNL     1       1.919  12.722  19.518  0.00  0.00    +0.000 N 
ATOM     25  C   UNL     1       2.303  13.746  20.341  0.00  0.00    +0.000 A 
ATOM     26  C   UNL     1       3.192  14.508  19.621  0.00  0.00    +0.000 A 
ATOM     27  C   UNL     1       3.266  13.870  18.368  0.00  0.00    +0.000 A 
ATOM     28  N   UNL     1       2.488  12.787  18.299  0.00  0.00    +0.000 NA
ENDBRANCH  23  24
ENDBRANCH  22  23
ENDBRANCH  17  22
ENDBRANCH   1  18
TORSDOF 7
ENDMDL
MODEL 5
REMARK VINA RESULT:      -7.3      1.184      1.618
REMARK  Name = 
REMARK  8 active torsions:
REMARK  status: ('A' for Active; 'I' for Inactive)
REMARK    1  A    between atoms: C_1  and  C_2
REMARK    2  A    between atoms: C_2  and  C_3
REMARK    3  A    between atoms: C_2  and  N_9
REMARK    4  A    between atoms: C_3  and  N_4
REMARK    5  A    between atoms: C_10  and  C_12
REMARK    6  A    between atoms: N_14  and  C_15
REMARK    7  A    between atoms: C_20  and  S_21
REMARK    8  A    between atoms: S_21  and  C_22
REMARK                            x       y       z     vdW  Elec       q    Type
REMARK                         _______ _______ _______ _____ _____    ______ ____
ROOT
ATOM      1  C   UNL     1       2.490   6.873  18.747  0.00  0.00    +0.000 C 
ATOM      2  O   UNL     1       2.982   6.669  19.852  0.00  0.00    +0.000 OA
ATOM      3  N   UNL     1       2.260   5.941  17.746  0.00  0.00    +0.000 N 
ATOM      4  H   UNL     1       2.076   6.289  16.812  0.00  0.00    +0.000 HD
ENDROOT
BRANCH   3   5
ATOM      5  C   UNL     1       2.436   4.550  17.936  0.00  0.00    +0.000 A 
ATOM      6  C   UNL     1       1.377   3.817  18.510  0.00  0.00    +0.000 A 
ATOM      7  C   UNL     1       1.450   2.436  18.684  0.00  0.00    +0.000 A 
ATOM      8  C   UNL     1       2.602   1.762  18.318  0.00  0.00    +0.000 A 
ATOM      9  C   UNL     1       3.657   2.470  17.737  0.00  0.00    +0.000 A 
ATOM     10  C   UNL     1       3.587   3.864  17.511  0.00  0.00    +0.000 A 
BRANCH  10  11
ATOM     11  S   UNL     1       4.990   4.521  16.609  0.00  0.00    +0.000 S 
BRANCH  11  12
ATOM     12  C   UNL     1       5.909   5.607  17.754  0.00  0.00    +0.000 C 
ATOM     13  C   UNL     1       7.263   5.115  18.245  0.00  0.00    +0.000 C 
ATOM     14  C   UNL     1       7.966   6.399  18.674  0.00  0.00    +0.000 C 
ATOM     15  C   UNL     1       7.508   7.464  17.686  0.00  0.00    +0.000 C 
ATOM     16  C   UNL     1       6.244   6.919  17.025  0.00  0.00    +0.000 C 
ENDBRANCH  11  12
ENDBRANCH  10  11
ENDBRANCH   3   5
BRANCH   1  18
ATOM     17  N   UNL     1       1.460   8.951  19.453  0.00  0.00    +0.000 N 
ATOM     18  C   UNL     1       2.110   8.332  18.403  0.00  0.00    +0.000 C 
ATOM     19  O   UNL     1       2.361   8.803  17.307  0.00  0.00    +0.000 OA
ATOM     20  H   UNL     1       1.321   8.350  20.265  0.00  0.00    +0.000 HD
BRANCH  17  22
ATOM     21  C   UNL     1      -0.520  10.232  18.755  0.00  0.00    +0.000 C 
ATOM     22  C   UNL     1       0.853  10.291  19.431  0.00  0.00    +0.000 C 
BRANCH  22  23
ATOM     23  C   UNL     1       0.754  10.833  20.872  0.00  0.00    +0.000 C 
BRANCH  23  24
ATOM     24  N   UNL     1       0.776  12.273  21.019  0.00  0.00    +0.000 N 
ATOM     25  C   UNL     1      -0.291  13.077  21.317  0.00  0.00    +0.000 A 
ATOM     26  C   UNL     1       0.224  14.327  21.566  0.00  0.00    +0.000 A 
ATOM     27  C   UNL     1       1.612  14.179  21.376  0.00  0.00    +0.000 A 
ATOM     28  N   UNL     1       1.951  12.933  21.036  0.00  0.00    +0.000 NA
ENDBRANCH  23  24
ENDBRANCH  22  23
ENDBRANCH  17  22
ENDBRANCH   1  18
TORSDOF 7
ENDMDL
MODEL 6
REMARK VINA RESULT:      -7.3      1.274      1.568
REMARK  Name = 
REMARK  8 active torsions:
REMARK  status: ('A' for Active; 'I' for Inactive)
REMARK    1  A    between atoms: C_1  and  C_2
REMARK    2  A    between atoms: C_2  and  C_3
REMARK    3  A    between atoms: C_2  and  N_9
REMARK    4  A    between atoms: C_3  and  N_4
REMARK    5  A    between atoms: C_10  and  C_12
REMARK    6  A    between atoms: N_14  and  C_15
REMARK    7  A    between atoms: C_20  and  S_21
REMARK    8  A    between atoms: S_21  and  C_22
REMARK                            x       y       z     vdW  Elec       q    Type
REMARK                         _______ _______ _______ _____ _____    ______ ____
ROOT
ATOM      1  C   UNL     1       2.600   6.990  18.909  0.00  0.00    +0.000 C 
ATOM      2  O   UNL     1       3.740   6.905  19.356  0.00  0.00    +0.000 OA
ATOM      3  N   UNL     1       1.656   5.978  18.823  0.00  0.00    +0.000 N 
ATOM      4  H   UNL     1       0.857   6.131  18.219  0.00  0.00    +0.000 HD
ENDROOT
BRANCH   3   5
ATOM      5  C   UNL     1       1.845   4.700  19.400  0.00  0.00    +0.000 A 
ATOM      6  C   UNL     1       1.282   4.452  20.668  0.00  0.00    +0.000 A 
ATOM      7  C   UNL     1       1.378   3.205  21.283  0.00  0.00    +0.000 A 
ATOM      8  C   UNL     1       2.072   2.185  20.653  0.00  0.00    +0.000 A 
ATOM      9  C   UNL     1       2.626   2.409  19.391  0.00  0.00    +0.000 A 
ATOM     10  C   UNL     1       2.503   3.653  18.730  0.00  0.00    +0.000 A 
BRANCH  10  11
ATOM     11  S   UNL     1       3.152   3.652  17.059  0.00  0.00    +0.000 S 
BRANCH  11  12
ATOM     12  C   UNL     1       4.714   4.597  17.084  0.00  0.00    +0.000 C 
ATOM     13  C   UNL     1       5.690   4.301  18.215  0.00  0.00    +0.000 C 
ATOM     14  C   UNL     1       7.025   4.788  17.660  0.00  0.00    +0.000 C 
ATOM     15  C   UNL     1       6.985   4.473  16.171  0.00  0.00    +0.000 C 
ATOM     16  C   UNL     1       5.516   4.256  15.817  0.00  0.00    +0.000 C 
ENDBRANCH  11  12
ENDBRANCH  10  11
ENDBRANCH   3   5
BRANCH   1  18
ATOM     17  N   UNL     1       1.408   9.072  19.256  0.00  0.00    +0.000 N 
ATOM     18  C   UNL     1       2.165   8.362  18.345  0.00  0.00    +0.000 C 
ATOM     19  O   UNL     1       2.467   8.698  17.212  0.00  0.00    +0.000 OA
ATOM     20  H   UNL     1       1.244   8.578  20.132  0.00  0.00    +0.000 HD
BRANCH  17  22
ATOM     21  C   UNL     1      -0.760  10.117  18.744  0.00  0.00    +0.000 C 
ATOM     22  C   UNL     1       0.729  10.355  19.010  0.00  0.00    +0.000 C 
BRANCH  22  23
ATOM     23  C   UNL     1       0.948  11.289  20.218  0.00  0.00    +0.000 C 
BRANCH  23  24
ATOM     24  N   UNL     1       0.417  10.834  21.486  0.00  0.00    +0.000 N 
ATOM     25  C   UNL     1      -0.740  11.257  22.082  0.00  0.00    +0.000 A 
ATOM     26  C   UNL     1      -0.957  10.415  23.147  0.00  0.00    +0.000 A 
ATOM     27  C   UNL     1       0.135   9.527  23.120  0.00  0.00    +0.000 A 
ATOM     28  N   UNL     1       0.977   9.782  22.115  0.00  0.00    +0.000 NA
ENDBRANCH  23  24
ENDBRANCH  22  23
ENDBRANCH  17  22
ENDBRANCH   1  18
TORSDOF 7
ENDMDL
MODEL 7
REMARK VINA RESULT:      -7.3      1.531      2.377
REMARK  Name = 
REMARK  8 active torsions:
REMARK  status: ('A' for Active; 'I' for Inactive)
REMARK    1  A    between atoms: C_1  and  C_2
REMARK    2  A    between atoms: C_2  and  C_3
REMARK    3  A    between atoms: C_2  and  N_9
REMARK    4  A    between atoms: C_3  and  N_4
REMARK    5  A    between atoms: C_10  and  C_12
REMARK    6  A    between atoms: N_14  and  C_15
REMARK    7  A    between atoms: C_20  and  S_21
REMARK    8  A    between atoms: S_21  and  C_22
REMARK                            x       y       z     vdW  Elec       q    Type
REMARK                         _______ _______ _______ _____ _____    ______ ____
ROOT
ATOM      1  C   UNL     1       2.337   6.948  18.748  0.00  0.00    +0.000 C 
ATOM      2  O   UNL     1       2.533   6.807  19.951  0.00  0.00    +0.000 OA
ATOM      3  N   UNL     1       2.369   5.963  17.772  0.00  0.00    +0.000 N 
ATOM      4  H   UNL     1       2.428   6.261  16.805  0.00  0.00    +0.000 HD
ENDROOT
BRANCH   3   5
ATOM      5  C   UNL     1       2.490   4.586  18.074  0.00  0.00    +0.000 A 
ATOM      6  C   UNL     1       1.395   3.939  18.681  0.00  0.00    +0.000 A 
ATOM      7  C   UNL     1       1.414   2.574  18.964  0.00  0.00    +0.000 A 
ATOM      8  C   UNL     1       2.547   1.832  18.675  0.00  0.00    +0.000 A 
ATOM      9  C   UNL     1       3.638   2.455  18.063  0.00  0.00    +0.000 A 
ATOM     10  C   UNL     1       3.623   3.829  17.728  0.00  0.00    +0.000 A 
BRANCH  10  11
ATOM     11  S   UNL     1       5.065   4.363  16.807  0.00  0.00    +0.000 S 
BRANCH  11  12
ATOM     12  C   UNL     1       5.955   5.571  17.848  0.00  0.00    +0.000 C 
ATOM     13  C   UNL     1       7.346   5.182  18.331  0.00  0.00    +0.000 C 
ATOM     14  C   UNL     1       7.991   6.527  18.652  0.00  0.00    +0.000 C 
ATOM     15  C   UNL     1       7.452   7.496  17.608  0.00  0.00    +0.000 C 
ATOM     16  C   UNL     1       6.202   6.844  17.023  0.00  0.00    +0.000 C 
ENDBRANCH  11  12
ENDBRANCH  10  11
ENDBRANCH   3   5
BRANCH   1  18
ATOM     17  N   UNL     1       1.181   9.054  19.073  0.00  0.00    +0.000 N 
ATOM     18  C   UNL     1       2.057   8.382  18.243  0.00  0.00    +0.000 C 
ATOM     19  O   UNL     1       2.563   8.793  17.213  0.00  0.00    +0.000 OA
ATOM     20  H   UNL     1       0.850   8.499  19.861  0.00  0.00    +0.000 HD
BRANCH  17  22
ATOM     21  C   UNL     1      -0.924  10.317  18.914  0.00  0.00    +0.000 C 
ATOM     22  C   UNL     1       0.604  10.386  18.832  0.00  0.00    +0.000 C 
BRANCH  22  23
ATOM     23  C   UNL     1       1.183  11.387  19.852  0.00  0.00    +0.000 C 
BRANCH  23  24
ATOM     24  N   UNL     1       1.638  12.655  19.320  0.00  0.00    +0.000 N 
ATOM     25  C   UNL     1       1.354  13.897  19.821  0.00  0.00    +0.000 A 
ATOM     26  C   UNL     1       2.157  14.781  19.140  0.00  0.00    +0.000 A 
ATOM     27  C   UNL     1       2.879  13.977  18.238  0.00  0.00    +0.000 A 
ATOM     28  N   UNL     1       2.562  12.683  18.339  0.00  0.00    +0.000 NA
ENDBRANCH  23  24
ENDBRANCH  22  23
ENDBRANCH  17  22
ENDBRANCH   1  18
TORSDOF 7
ENDMDL
MODEL 8
REMARK VINA RESULT:      -7.2      1.685      2.016
REMARK  Name = 
REMARK  8 active torsions:
REMARK  status: ('A' for Active; 'I' for Inactive)
REMARK    1  A    between atoms: C_1  and  C_2
REMARK    2  A    between atoms: C_2  and  C_3
REMARK    3  A    between atoms: C_2  and  N_9
REMARK    4  A    between atoms: C_3  and  N_4
REMARK    5  A    between atoms: C_10  and  C_12
REMARK    6  A    between atoms: N_14  and  C_15
REMARK    7  A    between atoms: C_20  and  S_21
REMARK    8  A    between atoms: S_21  and  C_22
REMARK                            x       y       z     vdW  Elec       q    Type
REMARK                         _______ _______ _______ _____ _____    ______ ____
ROOT
ATOM      1  C   UNL     1       2.172   7.080  18.479  0.00  0.00    +0.000 C 
ATOM      2  O   UNL     1       1.873   6.367  17.526  0.00  0.00    +0.000 OA
ATOM      3  N   UNL     1       2.537   6.669  19.752  0.00  0.00    +0.000 N 
ATOM      4  H   UNL     1       2.519   7.361  20.493  0.00  0.00    +0.000 HD
ENDROOT
BRANCH   3   5
ATOM      5  C   UNL     1       2.764   5.313  20.086  0.00  0.00    +0.000 A 
ATOM      6  C   UNL     1       1.690   4.569  20.615  0.00  0.00    +0.000 A 
ATOM      7  C   UNL     1       1.815   3.215  20.921  0.00  0.00    +0.000 A 
ATOM      8  C   UNL     1       3.033   2.583  20.734  0.00  0.00    +0.000 A 
ATOM      9  C   UNL     1       4.105   3.301  20.199  0.00  0.00    +0.000 A 
ATOM     10  C   UNL     1       3.987   4.664  19.841  0.00  0.00    +0.000 A 
BRANCH  10  11
ATOM     11  S   UNL     1       5.441   5.326  19.028  0.00  0.00    +0.000 S 
BRANCH  11  12
ATOM     12  C   UNL     1       5.668   4.389  17.477  0.00  0.00    +0.000 C 
ATOM     13  C   UNL     1       4.752   4.738  16.312  0.00  0.00    +0.000 C 
ATOM     14  C   UNL     1       5.526   4.232  15.098  0.00  0.00    +0.000 C 
ATOM     15  C   UNL     1       6.994   4.481  15.418  0.00  0.00    +0.000 C 
ATOM     16  C   UNL     1       7.075   4.678  16.930  0.00  0.00    +0.000 C 
ENDBRANCH  11  12
ENDBRANCH  10  11
ENDBRANCH   3   5
BRANCH   1  18
ATOM     17  N   UNL     1       1.138   9.196  19.055  0.00  0.00    +0.000 N 
ATOM     18  C   UNL     1       2.105   8.610  18.263  0.00  0.00    +0.000 C 
ATOM     19  O   UNL     1       2.832   9.160  17.453  0.00  0.00    +0.000 OA
ATOM     20  H   UNL     1       0.618   8.534  19.631  0.00  0.00    +0.000 HD
BRANCH  17  22
ATOM     21  C   UNL     1      -0.784  10.702  18.756  0.00  0.00    +0.000 C 
ATOM     22  C   UNL     1       0.722  10.607  19.019  0.00  0.00    +0.000 C 
BRANCH  22  23
ATOM     23  C   UNL     1       1.111  11.290  20.346  0.00  0.00    +0.000 C 
BRANCH  23  24
ATOM     24  N   UNL     1       0.431  10.818  21.534  0.00  0.00    +0.000 N 
ATOM     25  C   UNL     1      -0.551  11.476  22.224  0.00  0.00    +0.000 A 
ATOM     26  C   UNL     1      -1.048  10.578  23.139  0.00  0.00    +0.000 A 
ATOM     27  C   UNL     1      -0.288   9.411  22.933  0.00  0.00    +0.000 A 
ATOM     28  N   UNL     1       0.617   9.555  21.962  0.00  0.00    +0.000 NA
ENDBRANCH  23  24
ENDBRANCH  22  23
ENDBRANCH  17  22
ENDBRANCH   1  18
TORSDOF 7
ENDMDL
MODEL 9
REMARK VINA RESULT:      -7.2      2.049      4.606
REMARK  Name = 
REMARK  8 active torsions:
REMARK  status: ('A' for Active; 'I' for Inactive)
REMARK    1  A    between atoms: C_1  and  C_2
REMARK    2  A    between atoms: C_2  and  C_3
REMARK    3  A    between atoms: C_2  and  N_9
REMARK    4  A    between atoms: C_3  and  N_4
REMARK    5  A    between atoms: C_10  and  C_12
REMARK    6  A    between atoms: N_14  and  C_15
REMARK    7  A    between atoms: C_20  and  S_21
REMARK    8  A    between atoms: S_21  and  C_22
REMARK                            x       y       z     vdW  Elec       q    Type
REMARK                         _______ _______ _______ _____ _____    ______ ____
ROOT
ATOM      1  C   UNL     1       2.675   7.848  18.047  0.00  0.00    +0.000 C 
ATOM      2  O   UNL     1       2.704   8.355  16.931  0.00  0.00    +0.000 OA
ATOM      3  N   UNL     1       3.300   6.678  18.453  0.00  0.00    +0.000 N 
ATOM      4  H   UNL     1       2.994   6.259  19.323  0.00  0.00    +0.000 HD
ENDROOT
BRANCH   3   5
ATOM      5  C   UNL     1       4.210   5.969  17.633  0.00  0.00    +0.000 A 
ATOM      6  C   UNL     1       5.453   6.568  17.346  0.00  0.00    +0.000 A 
ATOM      7  C   UNL     1       6.426   5.916  16.590  0.00  0.00    +0.000 A 
ATOM      8  C   UNL     1       6.159   4.658  16.074  0.00  0.00    +0.000 A 
ATOM      9  C   UNL     1       4.937   4.045  16.357  0.00  0.00    +0.000 A 
ATOM     10  C   UNL     1       3.954   4.670  17.159  0.00  0.00    +0.000 A 
BRANCH  10  11
ATOM     11  S   UNL     1       2.541   3.627  17.516  0.00  0.00    +0.000 S 
BRANCH  11  12
ATOM     12  C   UNL     1       2.213   3.755  19.308  0.00  0.00    +0.000 C 
ATOM     13  C   UNL     1       0.961   3.069  19.838  0.00  0.00    +0.000 C 
ATOM     14  C   UNL     1       1.267   2.882  21.320  0.00  0.00    +0.000 C 
ATOM     15  C   UNL     1       2.760   2.590  21.394  0.00  0.00    +0.000 C 
ATOM     16  C   UNL     1       3.355   3.060  20.068  0.00  0.00    +0.000 C 
ENDBRANCH  11  12
ENDBRANCH  10  11
ENDBRANCH   3   5
BRANCH   1  18
ATOM     17  N   UNL     1       1.281   9.738  18.649  0.00  0.00    +0.000 N 
ATOM     18  C   UNL     1       1.825   8.560  19.124  0.00  0.00    +0.000 C 
ATOM     19  O   UNL     1       1.714   8.093  20.245  0.00  0.00    +0.000 OA
ATOM     20  H   UNL     1       1.540   9.954  17.687  0.00  0.00    +0.000 HD
BRANCH  17  22
ATOM     21  C   UNL     1       0.685  12.118  18.820  0.00  0.00    +0.000 C 
ATOM     22  C   UNL     1       0.524  10.725  19.435  0.00  0.00    +0.000 C 
BRANCH  22  23
ATOM     23  C   UNL     1      -0.958  10.300  19.498  0.00  0.00    +0.000 C 
BRANCH  23  24
ATOM     24  N   UNL     1      -1.761  10.596  18.331  0.00  0.00    +0.000 N 
ATOM     25  C   UNL     1      -1.770   9.900  17.151  0.00  0.00    +0.000 A 
ATOM     26  C   UNL     1      -2.820  10.396  16.417  0.00  0.00    +0.000 A 
ATOM     27  C   UNL     1      -3.375  11.401  17.233  0.00  0.00    +0.000 A 
ATOM     28  N   UNL     1      -2.730  11.530  18.395  0.00  0.00    +0.000 NA
ENDBRANCH  23  24
ENDBRANCH  22  23
ENDBRANCH  17  22
ENDBRANCH   1  18
TORSDOF 7
ENDMDL
