MODEL 1
REMARK VINA RESULT:      -7.1      0.000      0.000
REMARK  Name = 
REMARK  5 active torsions:
REMARK  status: ('A' for Active; 'I' for Inactive)
REMARK    1  A    between atoms: C_1  and  C_2
REMARK    2  A    between atoms: C_2  and  N_3
REMARK    3  A    between atoms: C_5  and  C_6
REMARK    4  A    between atoms: C_6  and  O_8
REMARK    5  A    between atoms: C_15  and  N_16
REMARK                            x       y       z     vdW  Elec       q    Type
REMARK                         _______ _______ _______ _____ _____    ______ ____
ROOT
ATOM      1  N   UNL     1       5.474   4.880  16.222  0.00  0.00    +0.000 N 
ATOM      2  C   UNL     1       6.399   5.866  16.545  0.00  0.00    +0.000 A 
ATOM      3  C   UNL     1       6.856   6.165  17.771  0.00  0.00    +0.000 A 
ATOM      4  C   UNL     1       6.328   5.361  18.887  0.00  0.00    +0.000 A 
ATOM      5  O   UNL     1       6.765   5.528  20.024  0.00  0.00    +0.000 OA
ATOM      6  C   UNL     1       5.259   4.378  18.601  0.00  0.00    +0.000 A 
ATOM      7  C   UNL     1       4.684   3.692  19.673  0.00  0.00    +0.000 A 
ATOM      8  C   UNL     1       3.656   2.799  19.427  0.00  0.00    +0.000 A 
ATOM      9  F   UNL     1       3.100   2.145  20.459  0.00  0.00    +0.000 F 
ATOM     10  C   UNL     1       3.167   2.591  18.135  0.00  0.00    +0.000 A 
ATOM     11  C   UNL     1       3.806   3.233  17.064  0.00  0.00    +0.000 A 
ATOM     12  C   UNL     1       4.845   4.163  17.266  0.00  0.00    +0.000 A 
ENDROOT
BRANCH  10  13
ATOM     13  N   UNL     1       2.202   1.599  17.885  0.00  0.00    +0.000 N 
ATOM     14  H   UNL     1       2.610   0.752  17.491  0.00  0.00    +0.000 HD
ATOM     15  H   UNL     1       1.581   1.406  18.663  0.00  0.00    +0.000 HD
ENDBRANCH  10  13
BRANCH   1  17
ATOM     16  C   UNL     1       6.316   4.126  14.021  0.00  0.00    +0.000 C 
ATOM     17  C   UNL     1       5.116   4.621  14.816  0.00  0.00    +0.000 C 
ENDBRANCH   1  17
BRANCH   3  18
ATOM     18  C   UNL     1       7.837   7.257  17.940  0.00  0.00    +0.000 C 
ATOM     19  O   UNL     1       7.939   8.195  17.164  0.00  0.00    +0.000 OA
BRANCH  18  20
ATOM     20  O   UNL     1       8.616   7.143  19.038  0.00  0.00    +0.000 OA
ATOM     21  H   UNL     1       8.617   7.945  19.615  0.00  0.00    +0.000 HD
ENDBRANCH  18  20
ENDBRANCH   3  18
TORSDOF 4
ENDMDL
MODEL 2
REMARK VINA RESULT:      -7.0      3.503      4.490
REMARK  Name = 
REMARK  5 active torsions:
REMARK  status: ('A' for Active; 'I' for Inactive)
REMARK    1  A    between atoms: C_1  and  C_2
REMARK    2  A    between atoms: C_2  and  N_3
REMARK    3  A    between atoms: C_5  and  C_6
REMARK    4  A    between atoms: C_6  and  O_8
REMARK    5  A    between atoms: C_15  and  N_16
REMARK                            x       y       z     vdW  Elec       q    Type
REMARK                         _______ _______ _______ _____ _____    ______ ____
ROOT
ATOM      1  N   UNL     1       4.671   4.104  18.145  0.00  0.00    +0.000 N 
ATOM      2  C   UNL     1       5.384   3.934  16.963  0.00  0.00    +0.000 A 
ATOM      3  C   UNL     1       5.571   4.851  16.001  0.00  0.00    +0.000 A 
ATOM      4  C   UNL     1       4.967   6.176  16.225  0.00  0.00    +0.000 A 
ATOM      5  O   UNL     1       5.168   7.086  15.423  0.00  0.00    +0.000 OA
ATOM      6  C   UNL     1       4.107   6.364  17.415  0.00  0.00    +0.000 A 
ATOM      7  C   UNL     1       3.449   7.587  17.572  0.00  0.00    +0.000 A 
ATOM      8  C   UNL     1       2.611   7.765  18.658  0.00  0.00    +0.000 A 
ATOM      9  F   UNL     1       1.974   8.937  18.804  0.00  0.00    +0.000 F 
ATOM     10  C   UNL     1       2.391   6.741  19.583  0.00  0.00    +0.000 A 
ATOM     11  C   UNL     1       3.118   5.548  19.449  0.00  0.00    +0.000 A 
ATOM     12  C   UNL     1       3.970   5.315  18.352  0.00  0.00    +0.000 A 
ENDROOT
BRANCH  10  13
ATOM     13  N   UNL     1       1.628   6.973  20.742  0.00  0.00    +0.000 N 
ATOM     14  H   UNL     1       1.841   6.309  21.485  0.00  0.00    +0.000 HD
ATOM     15  H   UNL     1       1.631   7.934  21.065  0.00  0.00    +0.000 HD
ENDBRANCH  10  13
BRANCH   1  17
ATOM     16  C   UNL     1       3.641   1.928  18.711  0.00  0.00    +0.000 C 
ATOM     17  C   UNL     1       4.607   3.022  19.143  0.00  0.00    +0.000 C 
ENDBRANCH   1  17
BRANCH   3  18
ATOM     18  C   UNL     1       6.351   4.500  14.797  0.00  0.00    +0.000 C 
ATOM     19  O   UNL     1       6.027   3.610  14.023  0.00  0.00    +0.000 OA
BRANCH  18  20
ATOM     20  O   UNL     1       7.456   5.252  14.606  0.00  0.00    +0.000 OA
ATOM     21  H   UNL     1       7.363   6.188  14.908  0.00  0.00    +0.000 HD
ENDBRANCH  18  20
ENDBRANCH   3  18
TORSDOF 4
ENDMDL
MODEL 3
REMARK VINA RESULT:      -6.9      2.764      3.455
REMARK  Name = 
REMARK  5 active torsions:
REMARK  status: ('A' for Active; 'I' for Inactive)
REMARK    1  A    between atoms: C_1  and  C_2
REMARK    2  A    between atoms: C_2  and  N_3
REMARK    3  A    between atoms: C_5  and  C_6
REMARK    4  A    between atoms: C_6  and  O_8
REMARK    5  A    between atoms: C_15  and  N_16
REMARK                            x       y       z     vdW  Elec       q    Type
REMARK                         _______ _______ _______ _____ _____    ______ ____
ROOT
ATOM      1  N   UNL     1       3.283   6.485  18.188  0.00  0.00    +0.000 N 
ATOM      2  C   UNL     1       4.431   6.717  17.440  0.00  0.00    +0.000 A 
ATOM      3  C   UNL     1       5.181   5.795  16.817  0.00  0.00    +0.000 A 
ATOM      4  C   UNL     1       4.736   4.395  16.931  0.00  0.00    +0.000 A 
ATOM      5  O   UNL     1       5.331   3.510  16.318  0.00  0.00    +0.000 OA
ATOM      6  C   UNL     1       3.584   4.093  17.810  0.00  0.00    +0.000 A 
ATOM      7  C   UNL     1       3.229   2.755  18.002  0.00  0.00    +0.000 A 
ATOM      8  C   UNL     1       2.179   2.454  18.852  0.00  0.00    +0.000 A 
ATOM      9  F   UNL     1       1.843   1.168  19.041  0.00  0.00    +0.000 F 
ATOM     10  C   UNL     1       1.489   3.456  19.539  0.00  0.00    +0.000 A 
ATOM     11  C   UNL     1       1.812   4.796  19.276  0.00  0.00    +0.000 A 
ATOM     12  C   UNL     1       2.883   5.151  18.431  0.00  0.00    +0.000 A 
ENDROOT
BRANCH  10  13
ATOM     13  N   UNL     1       0.353   3.145  20.309  0.00  0.00    +0.000 N 
ATOM     14  H   UNL     1       0.071   3.917  20.912  0.00  0.00    +0.000 HD
ATOM     15  H   UNL     1      -0.423   2.758  19.783  0.00  0.00    +0.000 HD
ENDBRANCH  10  13
BRANCH   1  17
ATOM     16  C   UNL     1       2.186   8.649  17.701  0.00  0.00    +0.000 C 
ATOM     17  C   UNL     1       2.523   7.611  18.762  0.00  0.00    +0.000 C 
ENDBRANCH   1  17
BRANCH   3  18
ATOM     18  C   UNL     1       6.384   6.213  16.068  0.00  0.00    +0.000 C 
ATOM     19  O   UNL     1       7.259   6.922  16.545  0.00  0.00    +0.000 OA
BRANCH  18  20
ATOM     20  O   UNL     1       6.450   5.740  14.805  0.00  0.00    +0.000 OA
ATOM     21  H   UNL     1       6.404   6.440  14.110  0.00  0.00    +0.000 HD
ENDBRANCH  18  20
ENDBRANCH   3  18
TORSDOF 4
ENDMDL
MODEL 4
REMARK VINA RESULT:      -6.9      3.666      5.824
REMARK  Name = 
REMARK  5 active torsions:
REMARK  status: ('A' for Active; 'I' for Inactive)
REMARK    1  A    between atoms: C_1  and  C_2
REMARK    2  A    between atoms: C_2  and  N_3
REMARK    3  A    between atoms: C_5  and  C_6
REMARK    4  A    between atoms: C_6  and  O_8
REMARK    5  A    between atoms: C_15  and  N_16
REMARK                            x       y       z     vdW  Elec       q    Type
REMARK                         _______ _______ _______ _____ _____    ______ ____
ROOT
ATOM      1  N   UNL     1       2.728   6.080  19.361  0.00  0.00    +0.000 N 
ATOM      2  C   UNL     1       2.229   5.153  20.269  0.00  0.00    +0.000 A 
ATOM      3  C   UNL     1       2.555   3.854  20.349  0.00  0.00    +0.000 A 
ATOM      4  C   UNL     1       3.552   3.362  19.382  0.00  0.00    +0.000 A 
ATOM      5  O   UNL     1       3.956   2.203  19.452  0.00  0.00    +0.000 OA
ATOM      6  C   UNL     1       4.024   4.288  18.328  0.00  0.00    +0.000 A 
ATOM      7  C   UNL     1       4.887   3.793  17.347  0.00  0.00    +0.000 A 
ATOM      8  C   UNL     1       5.307   4.635  16.333  0.00  0.00    +0.000 A 
ATOM      9  F   UNL     1       6.131   4.156  15.387  0.00  0.00    +0.000 F 
ATOM     10  C   UNL     1       4.865   5.959  16.257  0.00  0.00    +0.000 A 
ATOM     11  C   UNL     1       4.059   6.458  17.291  0.00  0.00    +0.000 A 
ATOM     12  C   UNL     1       3.593   5.634  18.335  0.00  0.00    +0.000 A 
ENDROOT
BRANCH  10  13
ATOM     13  N   UNL     1       5.388   6.834  15.288  0.00  0.00    +0.000 N 
ATOM     14  H   UNL     1       4.723   7.561  15.024  0.00  0.00    +0.000 HD
ATOM     15  H   UNL     1       6.306   7.206  15.505  0.00  0.00    +0.000 HD
ENDBRANCH  10  13
BRANCH   1  17
ATOM     16  C   UNL     1       1.583   7.791  20.733  0.00  0.00    +0.000 C 
ATOM     17  C   UNL     1       2.324   7.495  19.437  0.00  0.00    +0.000 C 
ENDBRANCH   1  17
BRANCH   3  18
ATOM     18  C   UNL     1       1.918   3.001  21.373  0.00  0.00    +0.000 C 
ATOM     19  O   UNL     1       2.518   2.545  22.335  0.00  0.00    +0.000 OA
BRANCH  18  20
ATOM     20  O   UNL     1       0.604   2.767  21.169  0.00  0.00    +0.000 OA
ATOM     21  H   UNL     1       0.419   2.048  20.516  0.00  0.00    +0.000 HD
ENDBRANCH  18  20
ENDBRANCH   3  18
TORSDOF 4
ENDMDL
MODEL 5
REMARK VINA RESULT:      -6.8      3.709      5.665
REMARK  Name = 
REMARK  5 active torsions:
REMARK  status: ('A' for Active; 'I' for Inactive)
REMARK    1  A    between atoms: C_1  and  C_2
REMARK    2  A    between atoms: C_2  and  N_3
REMARK    3  A    between atoms: C_5  and  C_6
REMARK    4  A    between atoms: C_6  and  O_8
REMARK    5  A    between atoms: C_15  and  N_16
REMARK                            x       y       z     vdW  Elec       q    Type
REMARK                         _______ _______ _______ _____ _____    ______ ____
ROOT
ATOM      1  N   UNL     1       2.980   6.300  18.065  0.00  0.00    +0.000 N 
ATOM      2  C   UNL     1       2.007   5.386  18.454  0.00  0.00    +0.000 A 
ATOM      3  C   UNL     1       2.201   4.097  18.772  0.00  0.00    +0.000 A 
ATOM      4  C   UNL     1       3.588   3.603  18.711  0.00  0.00    +0.000 A 
ATOM      5  O   UNL     1       3.847   2.454  19.067  0.00  0.00    +0.000 OA
ATOM      6  C   UNL     1       4.636   4.511  18.193  0.00  0.00    +0.000 A 
ATOM      7  C   UNL     1       5.930   4.010  18.035  0.00  0.00    +0.000 A 
ATOM      8  C   UNL     1       6.912   4.835  17.515  0.00  0.00    +0.000 A 
ATOM      9  F   UNL     1       8.154   4.350  17.357  0.00  0.00    +0.000 F 
ATOM     10  C   UNL     1       6.628   6.146  17.124  0.00  0.00    +0.000 A 
ATOM     11  C   UNL     1       5.342   6.654  17.360  0.00  0.00    +0.000 A 
ATOM     12  C   UNL     1       4.306   5.847  17.871  0.00  0.00    +0.000 A 
ENDROOT
BRANCH  10  13
ATOM     13  N   UNL     1       7.658   7.008  16.705  0.00  0.00    +0.000 N 
ATOM     14  H   UNL     1       8.294   7.249  17.464  0.00  0.00    +0.000 HD
ATOM     15  H   UNL     1       8.147   6.708  15.868  0.00  0.00    +0.000 HD
ENDBRANCH  10  13
BRANCH   1  17
ATOM     16  C   UNL     1       1.963   8.341  19.024  0.00  0.00    +0.000 C 
ATOM     17  C   UNL     1       2.625   7.708  17.809  0.00  0.00    +0.000 C 
ENDBRANCH   1  17
BRANCH   3  18
ATOM     18  C   UNL     1       1.049   3.256  19.156  0.00  0.00    +0.000 C 
ATOM     19  O   UNL     1       0.569   2.400  18.427  0.00  0.00    +0.000 OA
BRANCH  18  20
ATOM     20  O   UNL     1       0.566   3.501  20.393  0.00  0.00    +0.000 OA
ATOM     21  H   UNL     1       0.723   4.422  20.712  0.00  0.00    +0.000 HD
ENDBRANCH  18  20
ENDBRANCH   3  18
TORSDOF 4
ENDMDL
MODEL 6
REMARK VINA RESULT:      -6.8      3.714      5.889
REMARK  Name = 
REMARK  5 active torsions:
REMARK  status: ('A' for Active; 'I' for Inactive)
REMARK    1  A    between atoms: C_1  and  C_2
REMARK    2  A    between atoms: C_2  and  N_3
REMARK    3  A    between atoms: C_5  and  C_6
REMARK    4  A    between atoms: C_6  and  O_8
REMARK    5  A    between atoms: C_15  and  N_16
REMARK                            x       y       z     vdW  Elec       q    Type
REMARK                         _______ _______ _______ _____ _____    ______ ____
ROOT
ATOM      1  N   UNL     1       2.799   6.201  19.375  0.00  0.00    +0.000 N 
ATOM      2  C   UNL     1       2.044   5.264  20.072  0.00  0.00    +0.000 A 
ATOM      3  C   UNL     1       2.378   3.988  20.317  0.00  0.00    +0.000 A 
ATOM      4  C   UNL     1       3.682   3.536  19.800  0.00  0.00    +0.000 A 
ATOM      5  O   UNL     1       4.085   2.403  20.059  0.00  0.00    +0.000 OA
ATOM      6  C   UNL     1       4.465   4.467  18.957  0.00  0.00    +0.000 A 
ATOM      7  C   UNL     1       5.650   4.002  18.380  0.00  0.00    +0.000 A 
ATOM      8  C   UNL     1       6.373   4.848  17.557  0.00  0.00    +0.000 A 
ATOM      9  F   UNL     1       7.508   4.398  16.998  0.00  0.00    +0.000 F 
ATOM     10  C   UNL     1       5.930   6.142  17.274  0.00  0.00    +0.000 A 
ATOM     11  C   UNL     1       4.778   6.614  17.921  0.00  0.00    +0.000 A 
ATOM     12  C   UNL     1       4.000   5.786  18.754  0.00  0.00    +0.000 A 
ENDROOT
BRANCH  10  13
ATOM     13  N   UNL     1       6.731   7.027  16.530  0.00  0.00    +0.000 N 
ATOM     14  H   UNL     1       7.263   7.661  17.125  0.00  0.00    +0.000 HD
ATOM     15  H   UNL     1       7.305   6.584  15.821  0.00  0.00    +0.000 HD
ENDBRANCH  10  13
BRANCH   1  17
ATOM     16  C   UNL     1       1.558   8.036  20.476  0.00  0.00    +0.000 C 
ATOM     17  C   UNL     1       2.330   7.592  19.242  0.00  0.00    +0.000 C 
ENDBRANCH   1  17
BRANCH   3  18
ATOM     18  C   UNL     1       1.450   3.120  21.069  0.00  0.00    +0.000 C 
ATOM     19  O   UNL     1       1.677   2.714  22.200  0.00  0.00    +0.000 OA
BRANCH  18  20
ATOM     20  O   UNL     1       0.312   2.811  20.409  0.00  0.00    +0.000 OA
ATOM     21  H   UNL     1      -0.470   2.678  20.997  0.00  0.00    +0.000 HD
ENDBRANCH  18  20
ENDBRANCH   3  18
TORSDOF 4
ENDMDL
MODEL 7
REMARK VINA RESULT:      -6.7      2.452      2.937
REMARK  Name = 
REMARK  5 active torsions:
REMARK  status: ('A' for Active; 'I' for Inactive)
REMARK    1  A    between atoms: C_1  and  C_2
REMARK    2  A    between atoms: C_2  and  N_3
REMARK    3  A    between atoms: C_5  and  C_6
REMARK    4  A    between atoms: C_6  and  O_8
REMARK    5  A    between atoms: C_15  and  N_16
REMARK                            x       y       z     vdW  Elec       q    Type
REMARK                         _______ _______ _______ _____ _____    ______ ____
ROOT
ATOM      1  N   UNL     1       3.308   6.600  17.938  0.00  0.00    +0.000 N 
ATOM      2  C   UNL     1       4.546   6.996  17.444  0.00  0.00    +0.000 A 
ATOM      3  C   UNL     1       5.704   6.328  17.554  0.00  0.00    +0.000 A 
ATOM      4  C   UNL     1       5.657   5.038  18.265  0.00  0.00    +0.000 A 
ATOM      5  O   UNL     1       6.665   4.337  18.331  0.00  0.00    +0.000 OA
ATOM      6  C   UNL     1       4.385   4.633  18.903  0.00  0.00    +0.000 A 
ATOM      7  C   UNL     1       4.368   3.463  19.665  0.00  0.00    +0.000 A 
ATOM      8  C   UNL     1       3.196   3.091  20.301  0.00  0.00    +0.000 A 
ATOM      9  F   UNL     1       3.183   1.970  21.039  0.00  0.00    +0.000 F 
ATOM     10  C   UNL     1       2.042   3.874  20.216  0.00  0.00    +0.000 A 
ATOM     11  C   UNL     1       2.058   5.005  19.386  0.00  0.00    +0.000 A 
ATOM     12  C   UNL     1       3.231   5.432  18.732  0.00  0.00    +0.000 A 
ENDROOT
BRANCH  10  13
ATOM     13  N   UNL     1       0.829   3.427  20.771  0.00  0.00    +0.000 N 
ATOM     14  H   UNL     1       0.934   3.130  21.741  0.00  0.00    +0.000 HD
ATOM     15  H   UNL     1       0.046   4.057  20.639  0.00  0.00    +0.000 HD
ENDBRANCH  10  13
BRANCH   1  17
ATOM     16  C   UNL     1       2.380   8.893  17.886  0.00  0.00    +0.000 C 
ATOM     17  C   UNL     1       2.104   7.410  17.680  0.00  0.00    +0.000 C 
ENDBRANCH   1  17
BRANCH   3  18
ATOM     18  C   UNL     1       6.938   6.900  16.977  0.00  0.00    +0.000 C 
ATOM     19  O   UNL     1       7.360   8.011  17.262  0.00  0.00    +0.000 OA
BRANCH  18  20
ATOM     20  O   UNL     1       7.577   6.089  16.107  0.00  0.00    +0.000 OA
ATOM     21  H   UNL     1       7.071   5.911  15.277  0.00  0.00    +0.000 HD
ENDBRANCH  18  20
ENDBRANCH   3  18
TORSDOF 4
ENDMDL
MODEL 8
REMARK VINA RESULT:      -6.6      3.546      3.975
REMARK  Name = 
REMARK  5 active torsions:
REMARK  status: ('A' for Active; 'I' for Inactive)
REMARK    1  A    between atoms: C_1  and  C_2
REMARK    2  A    between atoms: C_2  and  N_3
REMARK    3  A    between atoms: C_5  and  C_6
REMARK    4  A    between atoms: C_6  and  O_8
REMARK    5  A    between atoms: C_15  and  N_16
REMARK                            x       y       z     vdW  Elec       q    Type
REMARK                         _______ _______ _______ _____ _____    ______ ____
ROOT
ATOM      1  N   UNL     1       4.307   6.111  17.765  0.00  0.00    +0.000 N 
ATOM      2  C   UNL     1       3.557   7.281  17.727  0.00  0.00    +0.000 A 
ATOM      3  C   UNL     1       2.594   7.643  18.587  0.00  0.00    +0.000 A 
ATOM      4  C   UNL     1       2.308   6.710  19.691  0.00  0.00    +0.000 A 
ATOM      5  O   UNL     1       1.494   7.017  20.560  0.00  0.00    +0.000 OA
ATOM      6  C   UNL     1       3.004   5.404  19.704  0.00  0.00    +0.000 A 
ATOM      7  C   UNL     1       2.656   4.476  20.689  0.00  0.00    +0.000 A 
ATOM      8  C   UNL     1       3.269   3.235  20.692  0.00  0.00    +0.000 A 
ATOM      9  F   UNL     1       2.929   2.343  21.635  0.00  0.00    +0.000 F 
ATOM     10  C   UNL     1       4.207   2.886  19.717  0.00  0.00    +0.000 A 
ATOM     11  C   UNL     1       4.598   3.856  18.782  0.00  0.00    +0.000 A 
ATOM     12  C   UNL     1       3.990   5.126  18.730  0.00  0.00    +0.000 A 
ENDROOT
BRANCH  10  13
ATOM     13  N   UNL     1       4.905   1.667  19.798  0.00  0.00    +0.000 N 
ATOM     14  H   UNL     1       5.774   1.753  20.324  0.00  0.00    +0.000 HD
ATOM     15  H   UNL     1       4.344   0.877  20.099  0.00  0.00    +0.000 HD
ENDBRANCH  10  13
BRANCH   1  17
ATOM     16  C   UNL     1       6.663   6.597  17.187  0.00  0.00    +0.000 C 
ATOM     17  C   UNL     1       5.384   5.878  16.785  0.00  0.00    +0.000 C 
ENDBRANCH   1  17
BRANCH   3  18
ATOM     18  C   UNL     1       1.883   8.924  18.394  0.00  0.00    +0.000 C 
ATOM     19  O   UNL     1       1.948   9.579  17.364  0.00  0.00    +0.000 OA
BRANCH  18  20
ATOM     20  O   UNL     1       1.139   9.316  19.450  0.00  0.00    +0.000 OA
ATOM     21  H   UNL     1       0.633  10.151  19.298  0.00  0.00    +0.000 HD
ENDBRANCH  18  20
ENDBRANCH   3  18
TORSDOF 4
ENDMDL
MODEL 9
REMARK VINA RESULT:      -6.5      3.999      5.456
REMARK  Name = 
REMARK  5 active torsions:
REMARK  status: ('A' for Active; 'I' for Inactive)
REMARK    1  A    between atoms: C_1  and  C_2
REMARK    2  A    between atoms: C_2  and  N_3
REMARK    3  A    between atoms: C_5  and  C_6
REMARK    4  A    between atoms: C_6  and  O_8
REMARK    5  A    between atoms: C_15  and  N_16
REMARK                            x       y       z     vdW  Elec       q    Type
REMARK                         _______ _______ _______ _____ _____    ______ ____
ROOT
ATOM      1  N   UNL     1       2.745   4.873  19.553  0.00  0.00    +0.000 N 
ATOM      2  C   UNL     1       2.128   5.970  20.145  0.00  0.00    +0.000 A 
ATOM      3  C   UNL     1       2.140   7.234  19.696  0.00  0.00    +0.000 A 
ATOM      4  C   UNL     1       2.874   7.483  18.443  0.00  0.00    +0.000 A 
ATOM      5  O   UNL     1       2.856   8.602  17.933  0.00  0.00    +0.000 OA
ATOM      6  C   UNL     1       3.638   6.367  17.842  0.00  0.00    +0.000 A 
ATOM      7  C   UNL     1       4.419   6.629  16.714  0.00  0.00    +0.000 A 
ATOM      8  C   UNL     1       5.170   5.605  16.163  0.00  0.00    +0.000 A 
ATOM      9  F   UNL     1       5.926   5.860  15.084  0.00  0.00    +0.000 F 
ATOM     10  C   UNL     1       5.182   4.327  16.727  0.00  0.00    +0.000 A 
ATOM     11  C   UNL     1       4.334   4.065  17.814  0.00  0.00    +0.000 A 
ATOM     12  C   UNL     1       3.564   5.079  18.418  0.00  0.00    +0.000 A 
ENDROOT
BRANCH  10  13
ATOM     13  N   UNL     1       5.858   3.269  16.093  0.00  0.00    +0.000 N 
ATOM     14  H   UNL     1       6.035   3.459  15.107  0.00  0.00    +0.000 HD
ATOM     15  H   UNL     1       6.685   2.942  16.581  0.00  0.00    +0.000 HD
ENDBRANCH  10  13
BRANCH   1  17
ATOM     16  C   UNL     1       1.178   3.306  20.653  0.00  0.00    +0.000 C 
ATOM     17  C   UNL     1       2.590   3.525  20.129  0.00  0.00    +0.000 C 
ENDBRANCH   1  17
BRANCH   3  18
ATOM     18  C   UNL     1       1.437   8.287  20.456  0.00  0.00    +0.000 C 
ATOM     19  O   UNL     1       1.327   8.277  21.674  0.00  0.00    +0.000 OA
BRANCH  18  20
ATOM     20  O   UNL     1       0.928   9.281  19.697  0.00  0.00    +0.000 OA
ATOM     21  H   UNL     1       0.871  10.152  20.159  0.00  0.00    +0.000 HD
ENDBRANCH  18  20
ENDBRANCH   3  18
TORSDOF 4
ENDMDL
