MODEL 1
REMARK VINA RESULT:      -6.5      0.000      0.000
REMARK  Name = 
REMARK  21 active torsions:
REMARK  status: ('A' for Active; 'I' for Inactive)
REMARK    1  A    between atoms: C_1  and  C_2
REMARK    2  A    between atoms: C_2  and  C_3
REMARK    3  A    between atoms: C_2  and  C_4
REMARK    4  A    between atoms: C_4  and  C_5
REMARK    5  A    between atoms: C_5  and  N_6
REMARK    6  A    between atoms: C_7  and  C_9
REMARK    7  A    between atoms: C_9  and  C_10
REMARK    8  A    between atoms: C_9  and  N_11
REMARK    9  A    between atoms: C_12  and  C_14
REMARK   10  A    between atoms: C_14  and  C_15
REMARK   11  A    between atoms: C_15  and  O_16
REMARK   12  A    between atoms: C_15  and  C_17
REMARK   13  A    between atoms: C_17  and  C_18
REMARK   14  A    between atoms: C_17  and  N_22
REMARK   15  A    between atoms: C_18  and  C_19
REMARK   16  A    between atoms: C_19  and  C_20
REMARK   17  A    between atoms: C_19  and  C_21
REMARK   18  A    between atoms: C_23  and  C_25
REMARK   19  A    between atoms: C_25  and  C_26
REMARK   20  A    between atoms: C_26  and  C_27
REMARK   21  A    between atoms: C_26  and  C_28
REMARK                            x       y       z     vdW  Elec       q    Type
REMARK                         _______ _______ _______ _____ _____    ______ ____
ROOT
ATOM      1  C   UNL     1       3.154   6.263  17.983  0.00  0.00    +0.000 C 
ENDROOT
BRANCH   1   3
ATOM      2  N   UNL     1       5.478   6.654  17.363  0.00  0.00    +0.000 N 
ATOM      3  C   UNL     1       4.625   6.094  18.280  0.00  0.00    +0.000 C 
ATOM      4  O   UNL     1       5.005   5.432  19.247  0.00  0.00    +0.000 OA
ATOM      5  H   UNL     1       5.118   6.990  16.472  0.00  0.00    +0.000 HD
BRANCH   2   6
ATOM      6  C   UNL     1       6.922   6.418  17.407  0.00  0.00    +0.000 C 
ATOM      7  C   UNL     1       7.677   7.728  17.235  0.00  0.00    +0.000 C 
BRANCH   6   9
ATOM      8  N   UNL     1       6.815   5.697  15.043  0.00  0.00    +0.000 N 
ATOM      9  C   UNL     1       7.302   5.405  16.301  0.00  0.00    +0.000 C 
ATOM     10  O   UNL     1       8.012   4.427  16.538  0.00  0.00    +0.000 OA
ATOM     11  H   UNL     1       6.224   6.508  14.911  0.00  0.00    +0.000 HD
BRANCH   8  12
ATOM     12  C   UNL     1       7.006   4.813  13.910  0.00  0.00    +0.000 C 
BRANCH  12  13
ATOM     13  C   UNL     1       5.886   3.775  13.775  0.00  0.00    +0.000 C 
BRANCH  13  15
ATOM     14  C   UNL     1       4.500   3.604  11.633  0.00  0.00    +0.000 C 
ATOM     15  C   UNL     1       5.753   3.137  12.377  0.00  0.00    +0.000 C 
ATOM     16  C   UNL     1       6.993   3.457  11.536  0.00  0.00    +0.000 C 
ENDBRANCH  13  15
ENDBRANCH  12  13
ENDBRANCH   8  12
ENDBRANCH   6   9
ENDBRANCH   2   6
ENDBRANCH   1   3
BRANCH   1  17
ATOM     17  C   UNL     1       2.280   5.170  18.622  0.00  0.00    +0.000 C 
BRANCH  17  18
ATOM     18  O   UNL     1       1.282   4.687  17.710  0.00  0.00    +0.000 OA
ATOM     19  H   UNL     1       0.474   4.472  18.219  0.00  0.00    +0.000 HD
ENDBRANCH  17  18
BRANCH  17  20
ATOM     20  C   UNL     1       1.636   5.523  20.001  0.00  0.00    +0.000 C 
BRANCH  20  21
ATOM     21  N   UNL     1       1.947   6.916  20.339  0.00  0.00    +0.000 N 
ATOM     22  C   UNL     1       1.012   7.775  20.863  0.00  0.00    +0.000 C 
ATOM     23  O   UNL     1      -0.118   7.425  21.190  0.00  0.00    +0.000 OA
ATOM     24  H   UNL     1       2.729   7.322  19.841  0.00  0.00    +0.000 HD
BRANCH  22  25
ATOM     25  C   UNL     1       1.513   9.197  21.047  0.00  0.00    +0.000 C 
BRANCH  25  26
ATOM     26  C   UNL     1       0.690  10.252  20.293  0.00  0.00    +0.000 C 
ATOM     27  C   UNL     1       0.750  11.612  20.987  0.00  0.00    +0.000 C 
ATOM     28  C   UNL     1       1.190  10.377  18.852  0.00  0.00    +0.000 C 
ENDBRANCH  25  26
ENDBRANCH  22  25
ENDBRANCH  20  21
BRANCH  20  29
ATOM     29  C   UNL     1       2.128   4.648  21.166  0.00  0.00    +0.000 C 
BRANCH  29  30
ATOM     30  C   UNL     1       2.139   3.124  20.924  0.00  0.00    +0.000 C 
ATOM     31  C   UNL     1       3.543   2.517  20.956  0.00  0.00    +0.000 C 
ATOM     32  C   UNL     1       1.265   2.459  21.995  0.00  0.00    +0.000 C 
ENDBRANCH  29  30
ENDBRANCH  20  29
ENDBRANCH  17  20
ENDBRANCH   1  17
TORSDOF 14
ENDMDL
MODEL 2
REMARK VINA RESULT:      -6.5      3.832      8.710
REMARK  Name = 
REMARK  21 active torsions:
REMARK  status: ('A' for Active; 'I' for Inactive)
REMARK    1  A    between atoms: C_1  and  C_2
REMARK    2  A    between atoms: C_2  and  C_3
REMARK    3  A    between atoms: C_2  and  C_4
REMARK    4  A    between atoms: C_4  and  C_5
REMARK    5  A    between atoms: C_5  and  N_6
REMARK    6  A    between atoms: C_7  and  C_9
REMARK    7  A    between atoms: C_9  and  C_10
REMARK    8  A    between atoms: C_9  and  N_11
REMARK    9  A    between atoms: C_12  and  C_14
REMARK   10  A    between atoms: C_14  and  C_15
REMARK   11  A    between atoms: C_15  and  O_16
REMARK   12  A    between atoms: C_15  and  C_17
REMARK   13  A    between atoms: C_17  and  C_18
REMARK   14  A    between atoms: C_17  and  N_22
REMARK   15  A    between atoms: C_18  and  C_19
REMARK   16  A    between atoms: C_19  and  C_20
REMARK   17  A    between atoms: C_19  and  C_21
REMARK   18  A    between atoms: C_23  and  C_25
REMARK   19  A    between atoms: C_25  and  C_26
REMARK   20  A    between atoms: C_26  and  C_27
REMARK   21  A    between atoms: C_26  and  C_28
REMARK                            x       y       z     vdW  Elec       q    Type
REMARK                         _______ _______ _______ _____ _____    ______ ____
ROOT
ATOM      1  C   UNL     1       2.245   7.657  18.120  0.00  0.00    +0.000 C 
ENDROOT
BRANCH   1   3
ATOM      2  N   UNL     1       0.596   9.343  18.734  0.00  0.00    +0.000 N 
ATOM      3  C   UNL     1       1.798   9.099  18.118  0.00  0.00    +0.000 C 
ATOM      4  O   UNL     1       2.451   9.965  17.533  0.00  0.00    +0.000 OA
ATOM      5  H   UNL     1      -0.006   8.567  19.000  0.00  0.00    +0.000 HD
BRANCH   2   6
ATOM      6  C   UNL     1      -0.061  10.649  18.654  0.00  0.00    +0.000 C 
ATOM      7  C   UNL     1      -0.311  11.200  20.051  0.00  0.00    +0.000 C 
BRANCH   6   9
ATOM      8  N   UNL     1      -2.275  11.545  18.008  0.00  0.00    +0.000 N 
ATOM      9  C   UNL     1      -1.385  10.499  17.867  0.00  0.00    +0.000 C 
ATOM     10  O   UNL     1      -1.601   9.522  17.149  0.00  0.00    +0.000 OA
ATOM     11  H   UNL     1      -2.048  12.315  18.624  0.00  0.00    +0.000 HD
BRANCH   8  12
ATOM     12  C   UNL     1      -3.594  11.529  17.407  0.00  0.00    +0.000 C 
BRANCH  12  13
ATOM     13  C   UNL     1      -4.710  11.319  18.436  0.00  0.00    +0.000 C 
BRANCH  13  15
ATOM     14  C   UNL     1      -7.182  11.623  19.017  0.00  0.00    +0.000 C 
ATOM     15  C   UNL     1      -6.141  11.526  17.900  0.00  0.00    +0.000 C 
ATOM     16  C   UNL     1      -6.198  12.793  17.041  0.00  0.00    +0.000 C 
ENDBRANCH  13  15
ENDBRANCH  12  13
ENDBRANCH   8  12
ENDBRANCH   6   9
ENDBRANCH   2   6
ENDBRANCH   1   3
BRANCH   1  17
ATOM     17  C   UNL     1       1.850   6.905  19.402  0.00  0.00    +0.000 C 
BRANCH  17  18
ATOM     18  O   UNL     1       2.340   7.567  20.579  0.00  0.00    +0.000 OA
ATOM     19  H   UNL     1       3.313   7.469  20.607  0.00  0.00    +0.000 HD
ENDBRANCH  17  18
BRANCH  17  20
ATOM     20  C   UNL     1       2.203   5.383  19.443  0.00  0.00    +0.000 C 
BRANCH  20  21
ATOM     21  N   UNL     1       2.790   4.987  18.159  0.00  0.00    +0.000 N 
ATOM     22  C   UNL     1       4.002   4.345  18.068  0.00  0.00    +0.000 C 
ATOM     23  O   UNL     1       4.635   3.959  19.046  0.00  0.00    +0.000 OA
ATOM     24  H   UNL     1       2.479   5.516  17.355  0.00  0.00    +0.000 HD
BRANCH  22  25
ATOM     25  C   UNL     1       4.474   4.115  16.644  0.00  0.00    +0.000 C 
BRANCH  25  26
ATOM     26  C   UNL     1       5.641   5.018  16.219  0.00  0.00    +0.000 C 
ATOM     27  C   UNL     1       6.357   4.466  14.986  0.00  0.00    +0.000 C 
ATOM     28  C   UNL     1       5.135   6.435  15.938  0.00  0.00    +0.000 C 
ENDBRANCH  25  26
ENDBRANCH  22  25
ENDBRANCH  20  21
BRANCH  20  29
ATOM     29  C   UNL     1       0.995   4.466  19.697  0.00  0.00    +0.000 C 
BRANCH  29  30
ATOM     30  C   UNL     1       1.252   3.211  20.557  0.00  0.00    +0.000 C 
ATOM     31  C   UNL     1       1.777   2.022  19.750  0.00  0.00    +0.000 C 
ATOM     32  C   UNL     1       2.259   3.576  21.655  0.00  0.00    +0.000 C 
ENDBRANCH  29  30
ENDBRANCH  20  29
ENDBRANCH  17  20
ENDBRANCH   1  17
TORSDOF 14
ENDMDL
MODEL 3
REMARK VINA RESULT:      -6.4      1.897      8.200
REMARK  Name = 
REMARK  21 active torsions:
REMARK  status: ('A' for Active; 'I' for Inactive)
REMARK    1  A    between atoms: C_1  and  C_2
REMARK    2  A    between atoms: C_2  and  C_3
REMARK    3  A    between atoms: C_2  and  C_4
REMARK    4  A    between atoms: C_4  and  C_5
REMARK    5  A    between atoms: C_5  and  N_6
REMARK    6  A    between atoms: C_7  and  C_9
REMARK    7  A    between atoms: C_9  and  C_10
REMARK    8  A    between atoms: C_9  and  N_11
REMARK    9  A    between atoms: C_12  and  C_14
REMARK   10  A    between atoms: C_14  and  C_15
REMARK   11  A    between atoms: C_15  and  O_16
REMARK   12  A    between atoms: C_15  and  C_17
REMARK   13  A    between atoms: C_17  and  C_18
REMARK   14  A    between atoms: C_17  and  N_22
REMARK   15  A    between atoms: C_18  and  C_19
REMARK   16  A    between atoms: C_19  and  C_20
REMARK   17  A    between atoms: C_19  and  C_21
REMARK   18  A    between atoms: C_23  and  C_25
REMARK   19  A    between atoms: C_25  and  C_26
REMARK   20  A    between atoms: C_26  and  C_27
REMARK   21  A    between atoms: C_26  and  C_28
REMARK                            x       y       z     vdW  Elec       q    Type
REMARK                         _______ _______ _______ _____ _____    ______ ____
ROOT
ATOM      1  C   UNL     1       5.146   3.221  17.686  0.00  0.00    +0.000 C 
ENDROOT
BRANCH   1   3
ATOM      2  N   UNL     1       3.060   3.673  18.862  0.00  0.00    +0.000 N 
ATOM      3  C   UNL     1       4.344   3.203  18.966  0.00  0.00    +0.000 C 
ATOM      4  O   UNL     1       4.856   2.851  20.030  0.00  0.00    +0.000 OA
ATOM      5  H   UNL     1       2.761   4.158  18.018  0.00  0.00    +0.000 HD
BRANCH   2   6
ATOM      6  C   UNL     1       2.220   3.894  20.042  0.00  0.00    +0.000 C 
ATOM      7  C   UNL     1       0.911   3.129  19.908  0.00  0.00    +0.000 C 
BRANCH   6   9
ATOM      8  N   UNL     1       2.526   6.209  19.226  0.00  0.00    +0.000 N 
ATOM      9  C   UNL     1       1.968   5.411  20.204  0.00  0.00    +0.000 C 
ATOM     10  O   UNL     1       1.291   5.857  21.131  0.00  0.00    +0.000 OA
ATOM     11  H   UNL     1       3.085   5.787  18.495  0.00  0.00    +0.000 HD
BRANCH   8  12
ATOM     12  C   UNL     1       2.457   7.657  19.268  0.00  0.00    +0.000 C 
BRANCH  12  13
ATOM     13  C   UNL     1       1.952   8.263  17.954  0.00  0.00    +0.000 C 
BRANCH  13  15
ATOM     14  C   UNL     1       0.459   9.704  19.449  0.00  0.00    +0.000 C 
ATOM     15  C   UNL     1       1.175   9.587  18.102  0.00  0.00    +0.000 C 
ATOM     16  C   UNL     1       2.129  10.773  17.929  0.00  0.00    +0.000 C 
ENDBRANCH  13  15
ENDBRANCH  12  13
ENDBRANCH   8  12
ENDBRANCH   6   9
ENDBRANCH   2   6
ENDBRANCH   1   3
BRANCH   1  17
ATOM     17  C   UNL     1       4.677   4.302  16.697  0.00  0.00    +0.000 C 
BRANCH  17  18
ATOM     18  O   UNL     1       3.605   3.832  15.865  0.00  0.00    +0.000 OA
ATOM     19  H   UNL     1       3.946   3.720  14.954  0.00  0.00    +0.000 HD
ENDBRANCH  17  18
BRANCH  17  20
ATOM     20  C   UNL     1       5.792   4.970  15.829  0.00  0.00    +0.000 C 
BRANCH  20  21
ATOM     21  N   UNL     1       6.083   4.116  14.674  0.00  0.00    +0.000 N 
ATOM     22  C   UNL     1       6.814   4.555  13.596  0.00  0.00    +0.000 C 
ATOM     23  O   UNL     1       7.370   5.649  13.559  0.00  0.00    +0.000 OA
ATOM     24  H   UNL     1       5.436   3.353  14.520  0.00  0.00    +0.000 HD
BRANCH  22  25
ATOM     25  C   UNL     1       6.914   3.548  12.465  0.00  0.00    +0.000 C 
BRANCH  25  26
ATOM     26  C   UNL     1       5.642   2.712  12.258  0.00  0.00    +0.000 C 
ATOM     27  C   UNL     1       4.513   3.550  11.656  0.00  0.00    +0.000 C 
ATOM     28  C   UNL     1       5.941   1.512  11.356  0.00  0.00    +0.000 C 
ENDBRANCH  25  26
ENDBRANCH  22  25
ENDBRANCH  20  21
BRANCH  20  29
ATOM     29  C   UNL     1       7.116   5.197  16.577  0.00  0.00    +0.000 C 
BRANCH  29  30
ATOM     30  C   UNL     1       7.071   6.159  17.782  0.00  0.00    +0.000 C 
ATOM     31  C   UNL     1       7.895   5.672  18.976  0.00  0.00    +0.000 C 
ATOM     32  C   UNL     1       7.582   7.530  17.326  0.00  0.00    +0.000 C 
ENDBRANCH  29  30
ENDBRANCH  20  29
ENDBRANCH  17  20
ENDBRANCH   1  17
TORSDOF 14
ENDMDL
MODEL 4
REMARK VINA RESULT:      -6.4      1.680      2.216
REMARK  Name = 
REMARK  21 active torsions:
REMARK  status: ('A' for Active; 'I' for Inactive)
REMARK    1  A    between atoms: C_1  and  C_2
REMARK    2  A    between atoms: C_2  and  C_3
REMARK    3  A    between atoms: C_2  and  C_4
REMARK    4  A    between atoms: C_4  and  C_5
REMARK    5  A    between atoms: C_5  and  N_6
REMARK    6  A    between atoms: C_7  and  C_9
REMARK    7  A    between atoms: C_9  and  C_10
REMARK    8  A    between atoms: C_9  and  N_11
REMARK    9  A    between atoms: C_12  and  C_14
REMARK   10  A    between atoms: C_14  and  C_15
REMARK   11  A    between atoms: C_15  and  O_16
REMARK   12  A    between atoms: C_15  and  C_17
REMARK   13  A    between atoms: C_17  and  C_18
REMARK   14  A    between atoms: C_17  and  N_22
REMARK   15  A    between atoms: C_18  and  C_19
REMARK   16  A    between atoms: C_19  and  C_20
REMARK   17  A    between atoms: C_19  and  C_21
REMARK   18  A    between atoms: C_23  and  C_25
REMARK   19  A    between atoms: C_25  and  C_26
REMARK   20  A    between atoms: C_26  and  C_27
REMARK   21  A    between atoms: C_26  and  C_28
REMARK                            x       y       z     vdW  Elec       q    Type
REMARK                         _______ _______ _______ _____ _____    ______ ____
ROOT
ATOM      1  C   UNL     1       4.379   3.804  19.932  0.00  0.00    +0.000 C 
ENDROOT
BRANCH   1   3
ATOM      2  N   UNL     1       4.635   5.510  18.210  0.00  0.00    +0.000 N 
ATOM      3  C   UNL     1       5.204   4.900  19.299  0.00  0.00    +0.000 C 
ATOM      4  O   UNL     1       6.337   5.158  19.710  0.00  0.00    +0.000 OA
ATOM      5  H   UNL     1       3.805   5.110  17.779  0.00  0.00    +0.000 HD
BRANCH   2   6
ATOM      6  C   UNL     1       5.381   6.456  17.378  0.00  0.00    +0.000 C 
ATOM      7  C   UNL     1       4.423   7.392  16.655  0.00  0.00    +0.000 C 
BRANCH   6   9
ATOM      8  N   UNL     1       5.621   4.611  15.746  0.00  0.00    +0.000 N 
ATOM      9  C   UNL     1       6.254   5.665  16.375  0.00  0.00    +0.000 C 
ATOM     10  O   UNL     1       7.421   5.983  16.145  0.00  0.00    +0.000 OA
ATOM     11  H   UNL     1       4.663   4.388  15.987  0.00  0.00    +0.000 HD
BRANCH   8  12
ATOM     12  C   UNL     1       6.313   3.716  14.840  0.00  0.00    +0.000 C 
BRANCH  12  13
ATOM     13  C   UNL     1       6.180   4.142  13.373  0.00  0.00    +0.000 C 
BRANCH  13  15
ATOM     14  C   UNL     1       4.530   3.335  11.595  0.00  0.00    +0.000 C 
ATOM     15  C   UNL     1       5.791   3.012  12.398  0.00  0.00    +0.000 C 
ATOM     16  C   UNL     1       6.949   2.731  11.436  0.00  0.00    +0.000 C 
ENDBRANCH  13  15
ENDBRANCH  12  13
ENDBRANCH   8  12
ENDBRANCH   6   9
ENDBRANCH   2   6
ENDBRANCH   1   3
BRANCH   1  17
ATOM     17  C   UNL     1       3.253   4.340  20.830  0.00  0.00    +0.000 C 
BRANCH  17  18
ATOM     18  O   UNL     1       2.838   3.366  21.801  0.00  0.00    +0.000 OA
ATOM     19  H   UNL     1       2.843   3.787  22.685  0.00  0.00    +0.000 HD
ENDBRANCH  17  18
BRANCH  17  20
ATOM     20  C   UNL     1       2.013   4.941  20.094  0.00  0.00    +0.000 C 
BRANCH  20  21
ATOM     21  N   UNL     1       1.523   6.105  20.839  0.00  0.00    +0.000 N 
ATOM     22  C   UNL     1       1.772   7.395  20.439  0.00  0.00    +0.000 C 
ATOM     23  O   UNL     1       2.324   7.679  19.381  0.00  0.00    +0.000 OA
ATOM     24  H   UNL     1       1.334   5.946  21.821  0.00  0.00    +0.000 HD
BRANCH  22  25
ATOM     25  C   UNL     1       1.262   8.451  21.405  0.00  0.00    +0.000 C 
BRANCH  25  26
ATOM     26  C   UNL     1       0.838   9.763  20.728  0.00  0.00    +0.000 C 
ATOM     27  C   UNL     1      -0.411   9.572  19.867  0.00  0.00    +0.000 C 
ATOM     28  C   UNL     1       0.585  10.842  21.785  0.00  0.00    +0.000 C 
ENDBRANCH  25  26
ENDBRANCH  22  25
ENDBRANCH  20  21
BRANCH  20  29
ATOM     29  C   UNL     1       0.835   3.962  19.947  0.00  0.00    +0.000 C 
BRANCH  29  30
ATOM     30  C   UNL     1       0.797   3.119  18.655  0.00  0.00    +0.000 C 
ATOM     31  C   UNL     1       1.525   3.778  17.482  0.00  0.00    +0.000 C 
ATOM     32  C   UNL     1       1.426   1.753  18.952  0.00  0.00    +0.000 C 
ENDBRANCH  29  30
ENDBRANCH  20  29
ENDBRANCH  17  20
ENDBRANCH   1  17
TORSDOF 14
ENDMDL
MODEL 5
REMARK VINA RESULT:      -6.3      2.949      8.231
REMARK  Name = 
REMARK  21 active torsions:
REMARK  status: ('A' for Active; 'I' for Inactive)
REMARK    1  A    between atoms: C_1  and  C_2
REMARK    2  A    between atoms: C_2  and  C_3
REMARK    3  A    between atoms: C_2  and  C_4
REMARK    4  A    between atoms: C_4  and  C_5
REMARK    5  A    between atoms: C_5  and  N_6
REMARK    6  A    between atoms: C_7  and  C_9
REMARK    7  A    between atoms: C_9  and  C_10
REMARK    8  A    between atoms: C_9  and  N_11
REMARK    9  A    between atoms: C_12  and  C_14
REMARK   10  A    between atoms: C_14  and  C_15
REMARK   11  A    between atoms: C_15  and  O_16
REMARK   12  A    between atoms: C_15  and  C_17
REMARK   13  A    between atoms: C_17  and  C_18
REMARK   14  A    between atoms: C_17  and  N_22
REMARK   15  A    between atoms: C_18  and  C_19
REMARK   16  A    between atoms: C_19  and  C_20
REMARK   17  A    between atoms: C_19  and  C_21
REMARK   18  A    between atoms: C_23  and  C_25
REMARK   19  A    between atoms: C_25  and  C_26
REMARK   20  A    between atoms: C_26  and  C_27
REMARK   21  A    between atoms: C_26  and  C_28
REMARK                            x       y       z     vdW  Elec       q    Type
REMARK                         _______ _______ _______ _____ _____    ______ ____
ROOT
ATOM      1  C   UNL     1       2.427   7.295  19.537  0.00  0.00    +0.000 C 
ENDROOT
BRANCH   1   3
ATOM      2  N   UNL     1       0.940   9.225  19.498  0.00  0.00    +0.000 N 
ATOM      3  C   UNL     1       1.482   8.223  20.262  0.00  0.00    +0.000 C 
ATOM      4  O   UNL     1       1.286   8.109  21.473  0.00  0.00    +0.000 OA
ATOM      5  H   UNL     1       1.306   9.410  18.566  0.00  0.00    +0.000 HD
BRANCH   2   6
ATOM      6  C   UNL     1       0.157  10.311  20.091  0.00  0.00    +0.000 C 
ATOM      7  C   UNL     1      -1.083  10.587  19.253  0.00  0.00    +0.000 C 
BRANCH   6   9
ATOM      8  N   UNL     1       1.581  12.023  19.013  0.00  0.00    +0.000 N 
ATOM      9  C   UNL     1       1.048  11.571  20.203  0.00  0.00    +0.000 C 
ATOM     10  O   UNL     1       1.235  12.135  21.282  0.00  0.00    +0.000 OA
ATOM     11  H   UNL     1       1.405  11.509  18.159  0.00  0.00    +0.000 HD
BRANCH   8  12
ATOM     12  C   UNL     1       2.503  13.140  18.948  0.00  0.00    +0.000 C 
BRANCH  12  13
ATOM     13  C   UNL     1       1.805  14.463  18.611  0.00  0.00    +0.000 C 
BRANCH  13  15
ATOM     14  C   UNL     1       3.291  16.182  17.440  0.00  0.00    +0.000 C 
ATOM     15  C   UNL     1       2.682  15.722  18.765  0.00  0.00    +0.000 C 
ATOM     16  C   UNL     1       1.856  16.862  19.369  0.00  0.00    +0.000 C 
ENDBRANCH  13  15
ENDBRANCH  12  13
ENDBRANCH   8  12
ENDBRANCH   6   9
ENDBRANCH   2   6
ENDBRANCH   1   3
BRANCH   1  17
ATOM     17  C   UNL     1       2.208   5.814  19.890  0.00  0.00    +0.000 C 
BRANCH  17  18
ATOM     18  O   UNL     1       2.425   5.564  21.288  0.00  0.00    +0.000 OA
ATOM     19  H   UNL     1       3.141   6.153  21.601  0.00  0.00    +0.000 HD
ENDBRANCH  17  18
BRANCH  17  20
ATOM     20  C   UNL     1       2.987   4.777  19.021  0.00  0.00    +0.000 C 
BRANCH  20  21
ATOM     21  N   UNL     1       4.123   5.442  18.374  0.00  0.00    +0.000 N 
ATOM     22  C   UNL     1       5.426   5.073  18.609  0.00  0.00    +0.000 C 
ATOM     23  O   UNL     1       5.740   4.099  19.286  0.00  0.00    +0.000 OA
ATOM     24  H   UNL     1       3.954   6.389  18.061  0.00  0.00    +0.000 HD
BRANCH  22  25
ATOM     25  C   UNL     1       6.452   5.954  17.918  0.00  0.00    +0.000 C 
BRANCH  25  26
ATOM     26  C   UNL     1       6.523   5.754  16.397  0.00  0.00    +0.000 C 
ATOM     27  C   UNL     1       6.582   4.271  16.029  0.00  0.00    +0.000 C 
ATOM     28  C   UNL     1       5.317   6.412  15.723  0.00  0.00    +0.000 C 
ENDBRANCH  25  26
ENDBRANCH  22  25
ENDBRANCH  20  21
BRANCH  20  29
ATOM     29  C   UNL     1       2.143   4.129  17.910  0.00  0.00    +0.000 C 
BRANCH  29  30
ATOM     30  C   UNL     1       1.970   2.597  17.982  0.00  0.00    +0.000 C 
ATOM     31  C   UNL     1       3.298   1.841  18.048  0.00  0.00    +0.000 C 
ATOM     32  C   UNL     1       1.123   2.265  19.216  0.00  0.00    +0.000 C 
ENDBRANCH  29  30
ENDBRANCH  20  29
ENDBRANCH  17  20
ENDBRANCH   1  17
TORSDOF 14
ENDMDL
MODEL 6
REMARK VINA RESULT:      -6.3      3.785      8.833
REMARK  Name = 
REMARK  21 active torsions:
REMARK  status: ('A' for Active; 'I' for Inactive)
REMARK    1  A    between atoms: C_1  and  C_2
REMARK    2  A    between atoms: C_2  and  C_3
REMARK    3  A    between atoms: C_2  and  C_4
REMARK    4  A    between atoms: C_4  and  C_5
REMARK    5  A    between atoms: C_5  and  N_6
REMARK    6  A    between atoms: C_7  and  C_9
REMARK    7  A    between atoms: C_9  and  C_10
REMARK    8  A    between atoms: C_9  and  N_11
REMARK    9  A    between atoms: C_12  and  C_14
REMARK   10  A    between atoms: C_14  and  C_15
REMARK   11  A    between atoms: C_15  and  O_16
REMARK   12  A    between atoms: C_15  and  C_17
REMARK   13  A    between atoms: C_17  and  C_18
REMARK   14  A    between atoms: C_17  and  N_22
REMARK   15  A    between atoms: C_18  and  C_19
REMARK   16  A    between atoms: C_19  and  C_20
REMARK   17  A    between atoms: C_19  and  C_21
REMARK   18  A    between atoms: C_23  and  C_25
REMARK   19  A    between atoms: C_25  and  C_26
REMARK   20  A    between atoms: C_26  and  C_27
REMARK   21  A    between atoms: C_26  and  C_28
REMARK                            x       y       z     vdW  Elec       q    Type
REMARK                         _______ _______ _______ _____ _____    ______ ____
ROOT
ATOM      1  C   UNL     1       2.544   8.195  17.995  0.00  0.00    +0.000 C 
ENDROOT
BRANCH   1   3
ATOM      2  N   UNL     1       0.670   9.515  18.823  0.00  0.00    +0.000 N 
ATOM      3  C   UNL     1       1.863   9.535  18.147  0.00  0.00    +0.000 C 
ATOM      4  O   UNL     1       2.334  10.548  17.626  0.00  0.00    +0.000 OA
ATOM      5  H   UNL     1       0.219   8.626  19.033  0.00  0.00    +0.000 HD
BRANCH   2   6
ATOM      6  C   UNL     1      -0.199  10.691  18.891  0.00  0.00    +0.000 C 
ATOM      7  C   UNL     1      -0.687  10.905  20.317  0.00  0.00    +0.000 C 
BRANCH   6   9
ATOM      8  N   UNL     1      -2.399  11.428  18.033  0.00  0.00    +0.000 N 
ATOM      9  C   UNL     1      -1.385  10.499  17.917  0.00  0.00    +0.000 C 
ATOM     10  O   UNL     1      -1.395   9.592  17.083  0.00  0.00    +0.000 OA
ATOM     11  H   UNL     1      -2.343  12.143  18.747  0.00  0.00    +0.000 HD
BRANCH   8  12
ATOM     12  C   UNL     1      -3.620  11.348  17.255  0.00  0.00    +0.000 C 
BRANCH  12  13
ATOM     13  C   UNL     1      -4.823  10.892  18.089  0.00  0.00    +0.000 C 
BRANCH  13  15
ATOM     14  C   UNL     1      -6.890  12.316  17.604  0.00  0.00    +0.000 C 
ATOM     15  C   UNL     1      -5.746  12.026  18.578  0.00  0.00    +0.000 C 
ATOM     16  C   UNL     1      -6.325  11.672  19.951  0.00  0.00    +0.000 C 
ENDBRANCH  13  15
ENDBRANCH  12  13
ENDBRANCH   8  12
ENDBRANCH   6   9
ENDBRANCH   2   6
ENDBRANCH   1   3
BRANCH   1  17
ATOM     17  C   UNL     1       2.073   7.159  19.029  0.00  0.00    +0.000 C 
BRANCH  17  18
ATOM     18  O   UNL     1       2.233   7.638  20.373  0.00  0.00    +0.000 OA
ATOM     19  H   UNL     1       1.469   8.209  20.593  0.00  0.00    +0.000 HD
ENDBRANCH  17  18
BRANCH  17  20
ATOM     20  C   UNL     1       2.670   5.723  18.885  0.00  0.00    +0.000 C 
BRANCH  20  21
ATOM     21  N   UNL     1       3.858   5.775  18.026  0.00  0.00    +0.000 N 
ATOM     22  C   UNL     1       5.057   5.212  18.389  0.00  0.00    +0.000 C 
ATOM     23  O   UNL     1       5.205   4.532  19.400  0.00  0.00    +0.000 OA
ATOM     24  H   UNL     1       3.880   6.536  17.359  0.00  0.00    +0.000 HD
BRANCH  22  25
ATOM     25  C   UNL     1       6.183   5.466  17.403  0.00  0.00    +0.000 C 
BRANCH  25  26
ATOM     26  C   UNL     1       5.784   5.261  15.933  0.00  0.00    +0.000 C 
ATOM     27  C   UNL     1       5.292   6.562  15.300  0.00  0.00    +0.000 C 
ATOM     28  C   UNL     1       6.970   4.708  15.139  0.00  0.00    +0.000 C 
ENDBRANCH  25  26
ENDBRANCH  22  25
ENDBRANCH  20  21
BRANCH  20  29
ATOM     29  C   UNL     1       1.703   4.699  18.267  0.00  0.00    +0.000 C 
BRANCH  29  30
ATOM     30  C   UNL     1       1.919   3.223  18.659  0.00  0.00    +0.000 C 
ATOM     31  C   UNL     1       0.621   2.494  19.013  0.00  0.00    +0.000 C 
ATOM     32  C   UNL     1       2.610   2.510  17.490  0.00  0.00    +0.000 C 
ENDBRANCH  29  30
ENDBRANCH  20  29
ENDBRANCH  17  20
ENDBRANCH   1  17
TORSDOF 14
ENDMDL
MODEL 7
REMARK VINA RESULT:      -6.3      3.160      7.869
REMARK  Name = 
REMARK  21 active torsions:
REMARK  status: ('A' for Active; 'I' for Inactive)
REMARK    1  A    between atoms: C_1  and  C_2
REMARK    2  A    between atoms: C_2  and  C_3
REMARK    3  A    between atoms: C_2  and  C_4
REMARK    4  A    between atoms: C_4  and  C_5
REMARK    5  A    between atoms: C_5  and  N_6
REMARK    6  A    between atoms: C_7  and  C_9
REMARK    7  A    between atoms: C_9  and  C_10
REMARK    8  A    between atoms: C_9  and  N_11
REMARK    9  A    between atoms: C_12  and  C_14
REMARK   10  A    between atoms: C_14  and  C_15
REMARK   11  A    between atoms: C_15  and  O_16
REMARK   12  A    between atoms: C_15  and  C_17
REMARK   13  A    between atoms: C_17  and  C_18
REMARK   14  A    between atoms: C_17  and  N_22
REMARK   15  A    between atoms: C_18  and  C_19
REMARK   16  A    between atoms: C_19  and  C_20
REMARK   17  A    between atoms: C_19  and  C_21
REMARK   18  A    between atoms: C_23  and  C_25
REMARK   19  A    between atoms: C_25  and  C_26
REMARK   20  A    between atoms: C_26  and  C_27
REMARK   21  A    between atoms: C_26  and  C_28
REMARK                            x       y       z     vdW  Elec       q    Type
REMARK                         _______ _______ _______ _____ _____    ______ ____
ROOT
ATOM      1  C   UNL     1       2.520   7.708  18.268  0.00  0.00    +0.000 C 
ENDROOT
BRANCH   1   3
ATOM      2  N   UNL     1       0.768   9.096  19.240  0.00  0.00    +0.000 N 
ATOM      3  C   UNL     1       1.787   9.027  18.324  0.00  0.00    +0.000 C 
ATOM      4  O   UNL     1       2.059   9.938  17.539  0.00  0.00    +0.000 OA
ATOM      5  H   UNL     1       0.440   8.249  19.701  0.00  0.00    +0.000 HD
BRANCH   2   6
ATOM      6  C   UNL     1      -0.153  10.233  19.288  0.00  0.00    +0.000 C 
ATOM      7  C   UNL     1      -0.956  10.316  17.998  0.00  0.00    +0.000 C 
BRANCH   6   9
ATOM      8  N   UNL     1       0.738  12.381  18.443  0.00  0.00    +0.000 N 
ATOM      9  C   UNL     1       0.659  11.529  19.526  0.00  0.00    +0.000 C 
ATOM     10  O   UNL     1       1.167  11.780  20.619  0.00  0.00    +0.000 OA
ATOM     11  H   UNL     1       0.312  12.115  17.564  0.00  0.00    +0.000 HD
BRANCH   8  12
ATOM     12  C   UNL     1       1.526  13.598  18.466  0.00  0.00    +0.000 C 
BRANCH  12  13
ATOM     13  C   UNL     1       3.005  13.350  18.147  0.00  0.00    +0.000 C 
BRANCH  13  15
ATOM     14  C   UNL     1       3.386  15.759  17.380  0.00  0.00    +0.000 C 
ATOM     15  C   UNL     1       3.908  14.598  18.228  0.00  0.00    +0.000 C 
ATOM     16  C   UNL     1       4.042  15.052  19.684  0.00  0.00    +0.000 C 
ENDBRANCH  13  15
ENDBRANCH  12  13
ENDBRANCH   8  12
ENDBRANCH   6   9
ENDBRANCH   2   6
ENDBRANCH   1   3
BRANCH   1  17
ATOM     17  C   UNL     1       2.141   6.759  19.417  0.00  0.00    +0.000 C 
BRANCH  17  18
ATOM     18  O   UNL     1       2.365   7.362  20.700  0.00  0.00    +0.000 OA
ATOM     19  H   UNL     1       2.295   8.334  20.603  0.00  0.00    +0.000 HD
ENDBRANCH  17  18
BRANCH  17  20
ATOM     20  C   UNL     1       2.772   5.331  19.366  0.00  0.00    +0.000 C 
BRANCH  20  21
ATOM     21  N   UNL     1       4.031   5.383  18.615  0.00  0.00    +0.000 N 
ATOM     22  C   UNL     1       5.070   4.517  18.854  0.00  0.00    +0.000 C 
ATOM     23  O   UNL     1       4.993   3.569  19.630  0.00  0.00    +0.000 OA
ATOM     24  H   UNL     1       4.254   6.279  18.200  0.00  0.00    +0.000 HD
BRANCH  22  25
ATOM     25  C   UNL     1       6.317   4.807  18.038  0.00  0.00    +0.000 C 
BRANCH  25  26
ATOM     26  C   UNL     1       7.024   6.116  18.421  0.00  0.00    +0.000 C 
ATOM     27  C   UNL     1       8.217   5.860  19.342  0.00  0.00    +0.000 C 
ATOM     28  C   UNL     1       7.485   6.853  17.161  0.00  0.00    +0.000 C 
ENDBRANCH  25  26
ENDBRANCH  22  25
ENDBRANCH  20  21
BRANCH  20  29
ATOM     29  C   UNL     1       1.881   4.274  18.692  0.00  0.00    +0.000 C 
BRANCH  29  30
ATOM     30  C   UNL     1       1.646   2.968  19.479  0.00  0.00    +0.000 C 
ATOM     31  C   UNL     1       1.234   3.204  20.933  0.00  0.00    +0.000 C 
ATOM     32  C   UNL     1       0.560   2.160  18.759  0.00  0.00    +0.000 C 
ENDBRANCH  29  30
ENDBRANCH  20  29
ENDBRANCH  17  20
ENDBRANCH   1  17
TORSDOF 14
ENDMDL
MODEL 8
REMARK VINA RESULT:      -6.3      3.243      8.365
REMARK  Name = 
REMARK  21 active torsions:
REMARK  status: ('A' for Active; 'I' for Inactive)
REMARK    1  A    between atoms: C_1  and  C_2
REMARK    2  A    between atoms: C_2  and  C_3
REMARK    3  A    between atoms: C_2  and  C_4
REMARK    4  A    between atoms: C_4  and  C_5
REMARK    5  A    between atoms: C_5  and  N_6
REMARK    6  A    between atoms: C_7  and  C_9
REMARK    7  A    between atoms: C_9  and  C_10
REMARK    8  A    between atoms: C_9  and  N_11
REMARK    9  A    between atoms: C_12  and  C_14
REMARK   10  A    between atoms: C_14  and  C_15
REMARK   11  A    between atoms: C_15  and  O_16
REMARK   12  A    between atoms: C_15  and  C_17
REMARK   13  A    between atoms: C_17  and  C_18
REMARK   14  A    between atoms: C_17  and  N_22
REMARK   15  A    between atoms: C_18  and  C_19
REMARK   16  A    between atoms: C_19  and  C_20
REMARK   17  A    between atoms: C_19  and  C_21
REMARK   18  A    between atoms: C_23  and  C_25
REMARK   19  A    between atoms: C_25  and  C_26
REMARK   20  A    between atoms: C_26  and  C_27
REMARK   21  A    between atoms: C_26  and  C_28
REMARK                            x       y       z     vdW  Elec       q    Type
REMARK                         _______ _______ _______ _____ _____    ______ ____
ROOT
ATOM      1  C   UNL     1       2.253   8.373  18.274  0.00  0.00    +0.000 C 
ENDROOT
BRANCH   1   3
ATOM      2  N   UNL     1       0.329   9.860  18.110  0.00  0.00    +0.000 N 
ATOM      3  C   UNL     1       1.173   9.182  18.952  0.00  0.00    +0.000 C 
ATOM      4  O   UNL     1       1.121   9.268  20.180  0.00  0.00    +0.000 OA
ATOM      5  H   UNL     1       0.551   9.937  17.119  0.00  0.00    +0.000 HD
BRANCH   2   6
ATOM      6  C   UNL     1      -0.647  10.831  18.610  0.00  0.00    +0.000 C 
ATOM      7  C   UNL     1      -1.924  10.770  17.784  0.00  0.00    +0.000 C 
BRANCH   6   9
ATOM      8  N   UNL     1       1.216  12.359  19.172  0.00  0.00    +0.000 N 
ATOM      9  C   UNL     1      -0.019  12.244  18.566  0.00  0.00    +0.000 C 
ATOM     10  O   UNL     1      -0.582  13.183  18.003  0.00  0.00    +0.000 OA
ATOM     11  H   UNL     1       1.624  11.555  19.632  0.00  0.00    +0.000 HD
BRANCH   8  12
ATOM     12  C   UNL     1       1.908  13.627  19.294  0.00  0.00    +0.000 C 
BRANCH  12  13
ATOM     13  C   UNL     1       2.902  13.870  18.153  0.00  0.00    +0.000 C 
BRANCH  13  15
ATOM     14  C   UNL     1       5.236  14.883  17.898  0.00  0.00    +0.000 C 
ATOM     15  C   UNL     1       3.783  15.126  18.311  0.00  0.00    +0.000 C 
ATOM     16  C   UNL     1       3.204  16.277  17.481  0.00  0.00    +0.000 C 
ENDBRANCH  13  15
ENDBRANCH  12  13
ENDBRANCH   8  12
ENDBRANCH   6   9
ENDBRANCH   2   6
ENDBRANCH   1   3
BRANCH   1  17
ATOM     17  C   UNL     1       2.336   6.927  18.789  0.00  0.00    +0.000 C 
BRANCH  17  18
ATOM     18  O   UNL     1       2.567   6.881  20.206  0.00  0.00    +0.000 OA
ATOM     19  H   UNL     1       3.491   6.595  20.361  0.00  0.00    +0.000 HD
ENDBRANCH  17  18
BRANCH  17  20
ATOM     20  C   UNL     1       3.335   5.987  18.042  0.00  0.00    +0.000 C 
BRANCH  20  21
ATOM     21  N   UNL     1       3.116   4.603  18.475  0.00  0.00    +0.000 N 
ATOM     22  C   UNL     1       2.019   3.873  18.086  0.00  0.00    +0.000 C 
ATOM     23  O   UNL     1       1.198   4.273  17.267  0.00  0.00    +0.000 OA
ATOM     24  H   UNL     1       3.572   4.339  19.339  0.00  0.00    +0.000 HD
BRANCH  22  25
ATOM     25  C   UNL     1       1.932   2.499  18.726  0.00  0.00    +0.000 C 
BRANCH  25  26
ATOM     26  C   UNL     1       1.574   2.528  20.220  0.00  0.00    +0.000 C 
ATOM     27  C   UNL     1       2.823   2.451  21.097  0.00  0.00    +0.000 C 
ATOM     28  C   UNL     1       0.783   3.797  20.546  0.00  0.00    +0.000 C 
ENDBRANCH  25  26
ENDBRANCH  22  25
ENDBRANCH  20  21
BRANCH  20  29
ATOM     29  C   UNL     1       4.816   6.317  18.294  0.00  0.00    +0.000 C 
BRANCH  29  30
ATOM     30  C   UNL     1       5.768   6.178  17.088  0.00  0.00    +0.000 C 
ATOM     31  C   UNL     1       5.103   6.515  15.751  0.00  0.00    +0.000 C 
ATOM     32  C   UNL     1       6.971   7.100  17.314  0.00  0.00    +0.000 C 
ENDBRANCH  29  30
ENDBRANCH  20  29
ENDBRANCH  17  20
ENDBRANCH   1  17
TORSDOF 14
ENDMDL
MODEL 9
REMARK VINA RESULT:      -6.2      2.832      9.031
REMARK  Name = 
REMARK  21 active torsions:
REMARK  status: ('A' for Active; 'I' for Inactive)
REMARK    1  A    between atoms: C_1  and  C_2
REMARK    2  A    between atoms: C_2  and  C_3
REMARK    3  A    between atoms: C_2  and  C_4
REMARK    4  A    between atoms: C_4  and  C_5
REMARK    5  A    between atoms: C_5  and  N_6
REMARK    6  A    between atoms: C_7  and  C_9
REMARK    7  A    between atoms: C_9  and  C_10
REMARK    8  A    between atoms: C_9  and  N_11
REMARK    9  A    between atoms: C_12  and  C_14
REMARK   10  A    between atoms: C_14  and  C_15
REMARK   11  A    between atoms: C_15  and  O_16
REMARK   12  A    between atoms: C_15  and  C_17
REMARK   13  A    between atoms: C_17  and  C_18
REMARK   14  A    between atoms: C_17  and  N_22
REMARK   15  A    between atoms: C_18  and  C_19
REMARK   16  A    between atoms: C_19  and  C_20
REMARK   17  A    between atoms: C_19  and  C_21
REMARK   18  A    between atoms: C_23  and  C_25
REMARK   19  A    between atoms: C_25  and  C_26
REMARK   20  A    between atoms: C_26  and  C_27
REMARK   21  A    between atoms: C_26  and  C_28
REMARK                            x       y       z     vdW  Elec       q    Type
REMARK                         _______ _______ _______ _____ _____    ______ ____
ROOT
ATOM      1  C   UNL     1       2.435   8.655  17.738  0.00  0.00    +0.000 C 
ENDROOT
BRANCH   1   3
ATOM      2  N   UNL     1       2.045  11.006  18.251  0.00  0.00    +0.000 N 
ATOM      3  C   UNL     1       1.470   9.783  18.016  0.00  0.00    +0.000 C 
ATOM      4  O   UNL     1       0.257   9.576  18.091  0.00  0.00    +0.000 OA
ATOM      5  H   UNL     1       3.050  11.075  18.400  0.00  0.00    +0.000 HD
BRANCH   2   6
ATOM      6  C   UNL     1       1.262  12.151  18.717  0.00  0.00    +0.000 C 
ATOM      7  C   UNL     1       1.932  13.453  18.303  0.00  0.00    +0.000 C 
BRANCH   6   9
ATOM      8  N   UNL     1      -0.029  11.422  20.698  0.00  0.00    +0.000 N 
ATOM      9  C   UNL     1       1.109  12.066  20.254  0.00  0.00    +0.000 C 
ATOM     10  O   UNL     1       1.965  12.521  21.014  0.00  0.00    +0.000 OA
ATOM     11  H   UNL     1      -0.704  11.081  20.027  0.00  0.00    +0.000 HD
BRANCH   8  12
ATOM     12  C   UNL     1      -0.369  11.324  22.104  0.00  0.00    +0.000 C 
BRANCH  12  13
ATOM     13  C   UNL     1      -1.258  12.480  22.578  0.00  0.00    +0.000 C 
BRANCH  13  15
ATOM     14  C   UNL     1      -3.481  12.547  23.840  0.00  0.00    +0.000 C 
ATOM     15  C   UNL     1      -2.774  12.199  22.529  0.00  0.00    +0.000 C 
ATOM     16  C   UNL     1      -3.414  12.986  21.381  0.00  0.00    +0.000 C 
ENDBRANCH  13  15
ENDBRANCH  12  13
ENDBRANCH   8  12
ENDBRANCH   6   9
ENDBRANCH   2   6
ENDBRANCH   1   3
BRANCH   1  17
ATOM     17  C   UNL     1       2.256   7.460  18.689  0.00  0.00    +0.000 C 
BRANCH  17  18
ATOM     18  O   UNL     1       1.893   7.884  20.013  0.00  0.00    +0.000 OA
ATOM     19  H   UNL     1       2.709   8.120  20.498  0.00  0.00    +0.000 HD
ENDBRANCH  17  18
BRANCH  17  20
ATOM     20  C   UNL     1       3.441   6.443  18.747  0.00  0.00    +0.000 C 
BRANCH  20  21
ATOM     21  N   UNL     1       3.868   6.119  17.382  0.00  0.00    +0.000 N 
ATOM     22  C   UNL     1       5.166   6.271  16.959  0.00  0.00    +0.000 C 
ATOM     23  O   UNL     1       6.087   6.583  17.707  0.00  0.00    +0.000 OA
ATOM     24  H   UNL     1       3.140   6.145  16.679  0.00  0.00    +0.000 HD
BRANCH  22  25
ATOM     25  C   UNL     1       5.375   5.974  15.484  0.00  0.00    +0.000 C 
BRANCH  25  26
ATOM     26  C   UNL     1       5.259   4.485  15.125  0.00  0.00    +0.000 C 
ATOM     27  C   UNL     1       5.925   4.179  13.783  0.00  0.00    +0.000 C 
ATOM     28  C   UNL     1       5.886   3.628  16.227  0.00  0.00    +0.000 C 
ENDBRANCH  25  26
ENDBRANCH  22  25
ENDBRANCH  20  21
BRANCH  20  29
ATOM     29  C   UNL     1       3.096   5.118  19.447  0.00  0.00    +0.000 C 
BRANCH  29  30
ATOM     30  C   UNL     1       2.904   3.888  18.535  0.00  0.00    +0.000 C 
ATOM     31  C   UNL     1       3.594   2.629  19.065  0.00  0.00    +0.000 C 
ATOM     32  C   UNL     1       1.400   3.629  18.386  0.00  0.00    +0.000 C 
ENDBRANCH  29  30
ENDBRANCH  20  29
ENDBRANCH  17  20
ENDBRANCH   1  17
TORSDOF 14
ENDMDL
