MODEL 1
REMARK VINA RESULT:      -7.7      0.000      0.000
REMARK  Name = 
REMARK  6 active torsions:
REMARK  status: ('A' for Active; 'I' for Inactive)
REMARK    1  A    between atoms: C_2  and  C_3
REMARK    2  A    between atoms: C_3  and  C_4
REMARK    3  A    between atoms: N_9  and  N_10
REMARK    4  A    between atoms: N_10  and  C_11
REMARK    5  A    between atoms: C_11  and  N_13
REMARK    6  A    between atoms: C_14  and  C_16
REMARK                            x       y       z     vdW  Elec       q    Type
REMARK                         _______ _______ _______ _____ _____    ______ ____
ROOT
ATOM      1  C   UNL     1       5.533   5.147  17.771  0.00  0.00    +0.000 C 
ATOM      2  S   UNL     1       6.875   5.701  16.936  0.00  0.00    +0.000 S 
ENDROOT
BRANCH   1   3
ATOM      3  N   UNL     1       4.655   6.076  18.293  0.00  0.00    +0.000 N 
ATOM      4  C   UNL     1       3.281   6.109  18.112  0.00  0.00    +0.000 C 
ATOM      5  O   UNL     1       2.660   5.193  17.577  0.00  0.00    +0.000 OA
ATOM      6  H   UNL     1       5.112   6.819  18.800  0.00  0.00    +0.000 HD
BRANCH   4   7
ATOM      7  C   UNL     1       2.535   7.299  18.609  0.00  0.00    +0.000 A 
ATOM      8  C   UNL     1       2.144   8.370  17.792  0.00  0.00    +0.000 A 
ATOM      9  C   UNL     1       1.383   9.421  18.330  0.00  0.00    +0.000 A 
ATOM     10  C   UNL     1       1.018   9.395  19.674  0.00  0.00    +0.000 A 
ATOM     11  F   UNL     1       0.281  10.395  20.176  0.00  0.00    +0.000 F 
ATOM     12  C   UNL     1       1.400   8.335  20.482  0.00  0.00    +0.000 A 
ATOM     13  F   UNL     1       1.040   8.302  21.771  0.00  0.00    +0.000 F 
ATOM     14  C   UNL     1       2.153   7.289  19.959  0.00  0.00    +0.000 A 
ENDBRANCH   4   7
ENDBRANCH   1   3
BRANCH   1  15
ATOM     15  N   UNL     1       5.212   3.821  17.971  0.00  0.00    +0.000 N 
ATOM     16  H   UNL     1       5.068   3.244  17.137  0.00  0.00    +0.000 HD
BRANCH  15  19
ATOM     17  O   UNL     1       5.269   1.603  20.752  0.00  0.00    +0.000 OA
ATOM     18  C   UNL     1       4.848   2.102  19.704  0.00  0.00    +0.000 C 
ATOM     19  N   UNL     1       5.491   3.200  19.189  0.00  0.00    +0.000 N 
ATOM     20  H   UNL     1       6.291   3.547  19.714  0.00  0.00    +0.000 HD
BRANCH  18  21
ATOM     21  C   UNL     1       3.640   1.523  18.994  0.00  0.00    +0.000 C 
BRANCH  21  22
ATOM     22  C   UNL     1       2.404   2.289  19.358  0.00  0.00    +0.000 A 
ATOM     23  C   UNL     1       1.186   2.316  18.705  0.00  0.00    +0.000 A 
ATOM     24  C   UNL     1       0.257   3.204  19.322  0.00  0.00    +0.000 A 
ATOM     25  C   UNL     1       0.798   3.828  20.424  0.00  0.00    +0.000 A 
ATOM     26  S   UNL     1       2.407   3.331  20.718  0.00  0.00    +0.000 S 
ENDBRANCH  21  22
ENDBRANCH  18  21
ENDBRANCH  15  19
ENDBRANCH   1  15
TORSDOF 6
ENDMDL
MODEL 2
REMARK VINA RESULT:      -7.7      5.972      6.838
REMARK  Name = 
REMARK  6 active torsions:
REMARK  status: ('A' for Active; 'I' for Inactive)
REMARK    1  A    between atoms: C_2  and  C_3
REMARK    2  A    between atoms: C_3  and  C_4
REMARK    3  A    between atoms: N_9  and  N_10
REMARK    4  A    between atoms: N_10  and  C_11
REMARK    5  A    between atoms: C_11  and  N_13
REMARK    6  A    between atoms: C_14  and  C_16
REMARK                            x       y       z     vdW  Elec       q    Type
REMARK                         _______ _______ _______ _____ _____    ______ ____
ROOT
ATOM      1  C   UNL     1       7.993   6.994  18.236  0.00  0.00    +0.000 C 
ATOM      2  S   UNL     1       7.696   5.752  19.319  0.00  0.00    +0.000 S 
ENDROOT
BRANCH   1   3
ATOM      3  N   UNL     1       8.639   8.124  18.696  0.00  0.00    +0.000 N 
ATOM      4  C   UNL     1       8.446   9.425  18.256  0.00  0.00    +0.000 C 
ATOM      5  O   UNL     1       7.535   9.738  17.493  0.00  0.00    +0.000 OA
ATOM      6  H   UNL     1       9.358   7.927  19.377  0.00  0.00    +0.000 HD
BRANCH   4   7
ATOM      7  C   UNL     1       9.374  10.479  18.752  0.00  0.00    +0.000 A 
ATOM      8  C   UNL     1      10.223  11.224  17.920  0.00  0.00    +0.000 A 
ATOM      9  C   UNL     1      11.016  12.248  18.464  0.00  0.00    +0.000 A 
ATOM     10  C   UNL     1      10.956  12.523  19.827  0.00  0.00    +0.000 A 
ATOM     11  F   UNL     1      11.706  13.510  20.335  0.00  0.00    +0.000 F 
ATOM     12  C   UNL     1      10.112  11.790  20.651  0.00  0.00    +0.000 A 
ATOM     13  F   UNL     1      10.043  12.060  21.961  0.00  0.00    +0.000 F 
ATOM     14  C   UNL     1       9.323  10.775  20.123  0.00  0.00    +0.000 A 
ENDBRANCH   4   7
ENDBRANCH   1   3
BRANCH   1  15
ATOM     15  N   UNL     1       7.661   6.979  16.898  0.00  0.00    +0.000 N 
ATOM     16  H   UNL     1       7.758   7.858  16.383  0.00  0.00    +0.000 HD
BRANCH  15  19
ATOM     17  O   UNL     1       6.661   4.223  14.882  0.00  0.00    +0.000 OA
ATOM     18  C   UNL     1       6.524   5.253  15.550  0.00  0.00    +0.000 C 
ATOM     19  N   UNL     1       7.618   5.776  16.192  0.00  0.00    +0.000 N 
ATOM     20  H   UNL     1       8.496   5.273  16.080  0.00  0.00    +0.000 HD
BRANCH  18  21
ATOM     21  C   UNL     1       5.173   5.931  15.671  0.00  0.00    +0.000 C 
BRANCH  21  22
ATOM     22  C   UNL     1       4.476   5.490  16.922  0.00  0.00    +0.000 A 
ATOM     23  C   UNL     1       4.177   6.234  18.048  0.00  0.00    +0.000 A 
ATOM     24  C   UNL     1       3.549   5.456  19.064  0.00  0.00    +0.000 A 
ATOM     25  C   UNL     1       3.393   4.142  18.682  0.00  0.00    +0.000 A 
ATOM     26  S   UNL     1       3.984   3.858  17.103  0.00  0.00    +0.000 S 
ENDBRANCH  21  22
ENDBRANCH  18  21
ENDBRANCH  15  19
ENDBRANCH   1  15
TORSDOF 6
ENDMDL
MODEL 3
REMARK VINA RESULT:      -7.5      2.089      3.898
REMARK  Name = 
REMARK  6 active torsions:
REMARK  status: ('A' for Active; 'I' for Inactive)
REMARK    1  A    between atoms: C_2  and  C_3
REMARK    2  A    between atoms: C_3  and  C_4
REMARK    3  A    between atoms: N_9  and  N_10
REMARK    4  A    between atoms: N_10  and  C_11
REMARK    5  A    between atoms: C_11  and  N_13
REMARK    6  A    between atoms: C_14  and  C_16
REMARK                            x       y       z     vdW  Elec       q    Type
REMARK                         _______ _______ _______ _____ _____    ______ ____
ROOT
ATOM      1  C   UNL     1       3.811   3.545  18.265  0.00  0.00    +0.000 C 
ATOM      2  S   UNL     1       2.666   2.402  17.835  0.00  0.00    +0.000 S 
ENDROOT
BRANCH   1   3
ATOM      3  N   UNL     1       3.435   4.874  18.293  0.00  0.00    +0.000 N 
ATOM      4  C   UNL     1       2.982   5.583  19.394  0.00  0.00    +0.000 C 
ATOM      5  O   UNL     1       3.017   5.129  20.536  0.00  0.00    +0.000 OA
ATOM      6  H   UNL     1       3.451   5.314  17.385  0.00  0.00    +0.000 HD
BRANCH   4   7
ATOM      7  C   UNL     1       2.453   6.958  19.175  0.00  0.00    +0.000 A 
ATOM      8  C   UNL     1       2.513   7.628  17.943  0.00  0.00    +0.000 A 
ATOM      9  C   UNL     1       1.928   8.898  17.806  0.00  0.00    +0.000 A 
ATOM     10  C   UNL     1       1.290   9.488  18.894  0.00  0.00    +0.000 A 
ATOM     11  F   UNL     1       0.723  10.694  18.751  0.00  0.00    +0.000 F 
ATOM     12  C   UNL     1       1.226   8.825  20.111  0.00  0.00    +0.000 A 
ATOM     13  F   UNL     1       0.602   9.386  21.155  0.00  0.00    +0.000 F 
ATOM     14  C   UNL     1       1.800   7.568  20.257  0.00  0.00    +0.000 A 
ENDBRANCH   4   7
ENDBRANCH   1   3
BRANCH   1  15
ATOM     15  N   UNL     1       5.115   3.270  18.620  0.00  0.00    +0.000 N 
ATOM     16  H   UNL     1       5.647   2.650  18.004  0.00  0.00    +0.000 HD
BRANCH  15  19
ATOM     17  O   UNL     1       7.369   5.615  20.063  0.00  0.00    +0.000 OA
ATOM     18  C   UNL     1       6.927   4.839  19.211  0.00  0.00    +0.000 C 
ATOM     19  N   UNL     1       5.801   4.109  19.500  0.00  0.00    +0.000 N 
ATOM     20  H   UNL     1       5.390   4.251  20.420  0.00  0.00    +0.000 HD
BRANCH  18  21
ATOM     21  C   UNL     1       7.611   4.684  17.866  0.00  0.00    +0.000 C 
BRANCH  21  22
ATOM     22  C   UNL     1       6.735   5.210  16.770  0.00  0.00    +0.000 A 
ATOM     23  C   UNL     1       6.027   6.397  16.730  0.00  0.00    +0.000 A 
ATOM     24  C   UNL     1       5.261   6.533  15.536  0.00  0.00    +0.000 A 
ATOM     25  C   UNL     1       5.406   5.445  14.706  0.00  0.00    +0.000 A 
ATOM     26  S   UNL     1       6.472   4.278  15.357  0.00  0.00    +0.000 S 
ENDBRANCH  21  22
ENDBRANCH  18  21
ENDBRANCH  15  19
ENDBRANCH   1  15
TORSDOF 6
ENDMDL
MODEL 4
REMARK VINA RESULT:      -7.3      2.171      4.150
REMARK  Name = 
REMARK  6 active torsions:
REMARK  status: ('A' for Active; 'I' for Inactive)
REMARK    1  A    between atoms: C_2  and  C_3
REMARK    2  A    between atoms: C_3  and  C_4
REMARK    3  A    between atoms: N_9  and  N_10
REMARK    4  A    between atoms: N_10  and  C_11
REMARK    5  A    between atoms: C_11  and  N_13
REMARK    6  A    between atoms: C_14  and  C_16
REMARK                            x       y       z     vdW  Elec       q    Type
REMARK                         _______ _______ _______ _____ _____    ______ ____
ROOT
ATOM      1  C   UNL     1       3.897   3.575  18.465  0.00  0.00    +0.000 C 
ATOM      2  S   UNL     1       2.874   2.447  17.769  0.00  0.00    +0.000 S 
ENDROOT
BRANCH   1   3
ATOM      3  N   UNL     1       3.427   4.860  18.653  0.00  0.00    +0.000 N 
ATOM      4  C   UNL     1       2.821   5.361  19.795  0.00  0.00    +0.000 C 
ATOM      5  O   UNL     1       2.780   4.736  20.852  0.00  0.00    +0.000 OA
ATOM      6  H   UNL     1       3.498   5.438  17.828  0.00  0.00    +0.000 HD
BRANCH   4   7
ATOM      7  C   UNL     1       2.220   6.722  19.731  0.00  0.00    +0.000 A 
ATOM      8  C   UNL     1       1.588   7.346  20.818  0.00  0.00    +0.000 A 
ATOM      9  C   UNL     1       1.109   8.660  20.691  0.00  0.00    +0.000 A 
ATOM     10  C   UNL     1       1.263   9.341  19.486  0.00  0.00    +0.000 A 
ATOM     11  F   UNL     1       0.815  10.599  19.377  0.00  0.00    +0.000 F 
ATOM     12  C   UNL     1       1.892   8.727  18.412  0.00  0.00    +0.000 A 
ATOM     13  F   UNL     1       2.052   9.384  17.256  0.00  0.00    +0.000 F 
ATOM     14  C   UNL     1       2.371   7.427  18.527  0.00  0.00    +0.000 A 
ENDBRANCH   4   7
ENDBRANCH   1   3
BRANCH   1  15
ATOM     15  N   UNL     1       5.184   3.326  18.893  0.00  0.00    +0.000 N 
ATOM     16  H   UNL     1       5.709   2.599  18.398  0.00  0.00    +0.000 HD
BRANCH  15  19
ATOM     17  O   UNL     1       7.423   5.873  19.969  0.00  0.00    +0.000 OA
ATOM     18  C   UNL     1       6.972   4.993  19.229  0.00  0.00    +0.000 C 
ATOM     19  N   UNL     1       5.878   4.276  19.643  0.00  0.00    +0.000 N 
ATOM     20  H   UNL     1       5.496   4.515  20.556  0.00  0.00    +0.000 HD
BRANCH  18  21
ATOM     21  C   UNL     1       7.613   4.698  17.886  0.00  0.00    +0.000 C 
BRANCH  21  22
ATOM     22  C   UNL     1       6.738   5.186  16.772  0.00  0.00    +0.000 A 
ATOM     23  C   UNL     1       5.986   6.345  16.712  0.00  0.00    +0.000 A 
ATOM     24  C   UNL     1       5.237   6.447  15.504  0.00  0.00    +0.000 A 
ATOM     25  C   UNL     1       5.438   5.361  14.682  0.00  0.00    +0.000 A 
ATOM     26  S   UNL     1       6.535   4.238  15.359  0.00  0.00    +0.000 S 
ENDBRANCH  21  22
ENDBRANCH  18  21
ENDBRANCH  15  19
ENDBRANCH   1  15
TORSDOF 6
ENDMDL
MODEL 5
REMARK VINA RESULT:      -7.2      3.321      4.846
REMARK  Name = 
REMARK  6 active torsions:
REMARK  status: ('A' for Active; 'I' for Inactive)
REMARK    1  A    between atoms: C_2  and  C_3
REMARK    2  A    between atoms: C_3  and  C_4
REMARK    3  A    between atoms: N_9  and  N_10
REMARK    4  A    between atoms: N_10  and  C_11
REMARK    5  A    between atoms: C_11  and  N_13
REMARK    6  A    between atoms: C_14  and  C_16
REMARK                            x       y       z     vdW  Elec       q    Type
REMARK                         _______ _______ _______ _____ _____    ______ ____
ROOT
ATOM      1  C   UNL     1       4.470   2.128  19.458  0.00  0.00    +0.000 C 
ATOM      2  S   UNL     1       5.040   1.382  20.845  0.00  0.00    +0.000 S 
ENDROOT
BRANCH   1   3
ATOM      3  N   UNL     1       4.998   3.356  19.110  0.00  0.00    +0.000 N 
ATOM      4  C   UNL     1       5.217   3.828  17.825  0.00  0.00    +0.000 C 
ATOM      5  O   UNL     1       4.805   3.245  16.825  0.00  0.00    +0.000 OA
ATOM      6  H   UNL     1       5.294   3.905  19.903  0.00  0.00    +0.000 HD
BRANCH   4   7
ATOM      7  C   UNL     1       5.965   5.107  17.665  0.00  0.00    +0.000 A 
ATOM      8  C   UNL     1       5.603   6.111  16.753  0.00  0.00    +0.000 A 
ATOM      9  C   UNL     1       6.324   7.315  16.715  0.00  0.00    +0.000 A 
ATOM     10  C   UNL     1       7.394   7.511  17.585  0.00  0.00    +0.000 A 
ATOM     11  F   UNL     1       8.067   8.669  17.551  0.00  0.00    +0.000 F 
ATOM     12  C   UNL     1       7.749   6.522  18.490  0.00  0.00    +0.000 A 
ATOM     13  F   UNL     1       8.770   6.713  19.335  0.00  0.00    +0.000 F 
ATOM     14  C   UNL     1       7.042   5.326  18.537  0.00  0.00    +0.000 A 
ENDBRANCH   4   7
ENDBRANCH   1   3
BRANCH   1  15
ATOM     15  N   UNL     1       3.518   1.607  18.608  0.00  0.00    +0.000 N 
ATOM     16  H   UNL     1       3.844   0.974  17.872  0.00  0.00    +0.000 HD
BRANCH  15  19
ATOM     17  O   UNL     1       0.035   2.271  18.910  0.00  0.00    +0.000 OA
ATOM     18  C   UNL     1       1.207   2.473  18.576  0.00  0.00    +0.000 C 
ATOM     19  N   UNL     1       2.172   1.586  18.979  0.00  0.00    +0.000 N 
ATOM     20  H   UNL     1       1.860   0.798  19.543  0.00  0.00    +0.000 HD
BRANCH  18  21
ATOM     21  C   UNL     1       1.584   3.682  17.742  0.00  0.00    +0.000 C 
BRANCH  21  22
ATOM     22  C   UNL     1       1.825   4.870  18.622  0.00  0.00    +0.000 A 
ATOM     23  C   UNL     1       2.310   6.117  18.271  0.00  0.00    +0.000 A 
ATOM     24  C   UNL     1       2.452   6.981  19.395  0.00  0.00    +0.000 A 
ATOM     25  C   UNL     1       2.075   6.367  20.568  0.00  0.00    +0.000 A 
ATOM     26  S   UNL     1       1.538   4.764  20.308  0.00  0.00    +0.000 S 
ENDBRANCH  21  22
ENDBRANCH  18  21
ENDBRANCH  15  19
ENDBRANCH   1  15
TORSDOF 6
ENDMDL
MODEL 6
REMARK VINA RESULT:      -7.1      2.084      4.315
REMARK  Name = 
REMARK  6 active torsions:
REMARK  status: ('A' for Active; 'I' for Inactive)
REMARK    1  A    between atoms: C_2  and  C_3
REMARK    2  A    between atoms: C_3  and  C_4
REMARK    3  A    between atoms: N_9  and  N_10
REMARK    4  A    between atoms: N_10  and  C_11
REMARK    5  A    between atoms: C_11  and  N_13
REMARK    6  A    between atoms: C_14  and  C_16
REMARK                            x       y       z     vdW  Elec       q    Type
REMARK                         _______ _______ _______ _____ _____    ______ ____
ROOT
ATOM      1  C   UNL     1       3.305   3.562  17.890  0.00  0.00    +0.000 C 
ATOM      2  S   UNL     1       2.161   2.341  17.942  0.00  0.00    +0.000 S 
ENDROOT
BRANCH   1   3
ATOM      3  N   UNL     1       2.874   4.870  17.989  0.00  0.00    +0.000 N 
ATOM      4  C   UNL     1       3.296   5.813  18.915  0.00  0.00    +0.000 C 
ATOM      5  O   UNL     1       4.245   5.621  19.671  0.00  0.00    +0.000 OA
ATOM      6  H   UNL     1       2.135   5.100  17.342  0.00  0.00    +0.000 HD
BRANCH   4   7
ATOM      7  C   UNL     1       2.575   7.115  18.969  0.00  0.00    +0.000 A 
ATOM      8  C   UNL     1       2.420   7.966  17.863  0.00  0.00    +0.000 A 
ATOM      9  C   UNL     1       1.666   9.144  17.986  0.00  0.00    +0.000 A 
ATOM     10  C   UNL     1       1.072   9.464  19.204  0.00  0.00    +0.000 A 
ATOM     11  F   UNL     1       0.343  10.584  19.309  0.00  0.00    +0.000 F 
ATOM     12  C   UNL     1       1.220   8.622  20.296  0.00  0.00    +0.000 A 
ATOM     13  F   UNL     1       0.641   8.922  21.466  0.00  0.00    +0.000 F 
ATOM     14  C   UNL     1       1.964   7.453  20.186  0.00  0.00    +0.000 A 
ENDBRANCH   4   7
ENDBRANCH   1   3
BRANCH   1  15
ATOM     15  N   UNL     1       4.666   3.373  17.775  0.00  0.00    +0.000 N 
ATOM     16  H   UNL     1       5.174   3.099  18.621  0.00  0.00    +0.000 HD
BRANCH  15  19
ATOM     17  O   UNL     1       6.360   3.719  14.665  0.00  0.00    +0.000 OA
ATOM     18  C   UNL     1       5.795   4.087  15.700  0.00  0.00    +0.000 C 
ATOM     19  N   UNL     1       5.246   3.140  16.527  0.00  0.00    +0.000 N 
ATOM     20  H   UNL     1       5.337   2.170  16.232  0.00  0.00    +0.000 HD
BRANCH  18  21
ATOM     21  C   UNL     1       5.698   5.558  16.056  0.00  0.00    +0.000 C 
BRANCH  21  22
ATOM     22  C   UNL     1       6.689   5.903  17.125  0.00  0.00    +0.000 A 
ATOM     23  C   UNL     1       7.267   5.068  18.064  0.00  0.00    +0.000 A 
ATOM     24  C   UNL     1       8.131   5.768  18.955  0.00  0.00    +0.000 A 
ATOM     25  C   UNL     1       8.183   7.114  18.671  0.00  0.00    +0.000 A 
ATOM     26  S   UNL     1       7.208   7.524  17.327  0.00  0.00    +0.000 S 
ENDBRANCH  21  22
ENDBRANCH  18  21
ENDBRANCH  15  19
ENDBRANCH   1  15
TORSDOF 6
ENDMDL
MODEL 7
REMARK VINA RESULT:      -7.1      1.667      1.937
REMARK  Name = 
REMARK  6 active torsions:
REMARK  status: ('A' for Active; 'I' for Inactive)
REMARK    1  A    between atoms: C_2  and  C_3
REMARK    2  A    between atoms: C_3  and  C_4
REMARK    3  A    between atoms: N_9  and  N_10
REMARK    4  A    between atoms: N_10  and  C_11
REMARK    5  A    between atoms: C_11  and  N_13
REMARK    6  A    between atoms: C_14  and  C_16
REMARK                            x       y       z     vdW  Elec       q    Type
REMARK                         _______ _______ _______ _____ _____    ______ ____
ROOT
ATOM      1  C   UNL     1       5.671   5.054  18.456  0.00  0.00    +0.000 C 
ATOM      2  S   UNL     1       7.161   5.518  19.062  0.00  0.00    +0.000 S 
ENDROOT
BRANCH   1   3
ATOM      3  N   UNL     1       4.577   5.853  18.723  0.00  0.00    +0.000 N 
ATOM      4  C   UNL     1       3.985   6.762  17.859  0.00  0.00    +0.000 C 
ATOM      5  O   UNL     1       4.287   6.841  16.670  0.00  0.00    +0.000 OA
ATOM      6  H   UNL     1       4.247   5.777  19.673  0.00  0.00    +0.000 HD
BRANCH   4   7
ATOM      7  C   UNL     1       2.925   7.658  18.400  0.00  0.00    +0.000 A 
ATOM      8  C   UNL     1       2.343   8.706  17.670  0.00  0.00    +0.000 A 
ATOM      9  C   UNL     1       1.301   9.459  18.234  0.00  0.00    +0.000 A 
ATOM     10  C   UNL     1       0.846   9.163  19.516  0.00  0.00    +0.000 A 
ATOM     11  F   UNL     1      -0.158   9.878  20.042  0.00  0.00    +0.000 F 
ATOM     12  C   UNL     1       1.417   8.124  20.238  0.00  0.00    +0.000 A 
ATOM     13  F   UNL     1       0.974   7.829  21.467  0.00  0.00    +0.000 F 
ATOM     14  C   UNL     1       2.449   7.372  19.689  0.00  0.00    +0.000 A 
ENDBRANCH   4   7
ENDBRANCH   1   3
BRANCH   1  15
ATOM     15  N   UNL     1       5.439   3.936  17.683  0.00  0.00    +0.000 N 
ATOM     16  H   UNL     1       5.966   3.090  17.915  0.00  0.00    +0.000 HD
BRANCH  15  19
ATOM     17  O   UNL     1       2.223   3.028  16.463  0.00  0.00    +0.000 OA
ATOM     18  C   UNL     1       3.242   2.944  17.155  0.00  0.00    +0.000 C 
ATOM     19  N   UNL     1       4.269   3.826  16.930  0.00  0.00    +0.000 N 
ATOM     20  H   UNL     1       4.129   4.509  16.188  0.00  0.00    +0.000 HD
BRANCH  18  21
ATOM     21  C   UNL     1       3.368   1.886  18.234  0.00  0.00    +0.000 C 
BRANCH  21  22
ATOM     22  C   UNL     1       2.745   2.364  19.510  0.00  0.00    +0.000 A 
ATOM     23  C   UNL     1       3.358   2.626  20.721  0.00  0.00    +0.000 A 
ATOM     24  C   UNL     1       2.428   3.018  21.728  0.00  0.00    +0.000 A 
ATOM     25  C   UNL     1       1.136   3.039  21.254  0.00  0.00    +0.000 A 
ATOM     26  S   UNL     1       1.051   2.605  19.602  0.00  0.00    +0.000 S 
ENDBRANCH  21  22
ENDBRANCH  18  21
ENDBRANCH  15  19
ENDBRANCH   1  15
TORSDOF 6
ENDMDL
MODEL 8
REMARK VINA RESULT:      -7.1      1.623      2.213
REMARK  Name = 
REMARK  6 active torsions:
REMARK  status: ('A' for Active; 'I' for Inactive)
REMARK    1  A    between atoms: C_2  and  C_3
REMARK    2  A    between atoms: C_3  and  C_4
REMARK    3  A    between atoms: N_9  and  N_10
REMARK    4  A    between atoms: N_10  and  C_11
REMARK    5  A    between atoms: C_11  and  N_13
REMARK    6  A    between atoms: C_14  and  C_16
REMARK                            x       y       z     vdW  Elec       q    Type
REMARK                         _______ _______ _______ _____ _____    ______ ____
ROOT
ATOM      1  C   UNL     1       5.701   4.981  18.362  0.00  0.00    +0.000 C 
ATOM      2  S   UNL     1       7.214   5.539  18.811  0.00  0.00    +0.000 S 
ENDROOT
BRANCH   1   3
ATOM      3  N   UNL     1       4.591   5.695  18.770  0.00  0.00    +0.000 N 
ATOM      4  C   UNL     1       3.866   6.602  18.013  0.00  0.00    +0.000 C 
ATOM      5  O   UNL     1       4.048   6.755  16.807  0.00  0.00    +0.000 OA
ATOM      6  H   UNL     1       4.358   5.554  19.742  0.00  0.00    +0.000 HD
BRANCH   4   7
ATOM      7  C   UNL     1       2.811   7.403  18.696  0.00  0.00    +0.000 A 
ATOM      8  C   UNL     1       2.328   7.116  19.982  0.00  0.00    +0.000 A 
ATOM      9  C   UNL     1       1.380   7.964  20.579  0.00  0.00    +0.000 A 
ATOM     10  C   UNL     1       0.925   9.088  19.894  0.00  0.00    +0.000 A 
ATOM     11  F   UNL     1       0.031   9.898  20.476  0.00  0.00    +0.000 F 
ATOM     12  C   UNL     1       1.406   9.374  18.624  0.00  0.00    +0.000 A 
ATOM     13  F   UNL     1       0.979  10.461  17.968  0.00  0.00    +0.000 F 
ATOM     14  C   UNL     1       2.344   8.543  18.024  0.00  0.00    +0.000 A 
ENDBRANCH   4   7
ENDBRANCH   1   3
BRANCH   1  15
ATOM     15  N   UNL     1       5.460   3.864  17.590  0.00  0.00    +0.000 N 
ATOM     16  H   UNL     1       5.971   3.010  17.831  0.00  0.00    +0.000 HD
BRANCH  15  19
ATOM     17  O   UNL     1       2.212   3.069  16.376  0.00  0.00    +0.000 OA
ATOM     18  C   UNL     1       3.212   2.976  17.094  0.00  0.00    +0.000 C 
ATOM     19  N   UNL     1       4.298   3.769  16.823  0.00  0.00    +0.000 N 
ATOM     20  H   UNL     1       4.215   4.399  16.028  0.00  0.00    +0.000 HD
BRANCH  18  21
ATOM     21  C   UNL     1       3.251   2.000  18.254  0.00  0.00    +0.000 C 
BRANCH  21  22
ATOM     22  C   UNL     1       2.575   2.589  19.455  0.00  0.00    +0.000 A 
ATOM     23  C   UNL     1       1.368   3.261  19.518  0.00  0.00    +0.000 A 
ATOM     24  C   UNL     1       1.071   3.722  20.834  0.00  0.00    +0.000 A 
ATOM     25  C   UNL     1       2.061   3.390  21.731  0.00  0.00    +0.000 A 
ATOM     26  S   UNL     1       3.330   2.514  20.991  0.00  0.00    +0.000 S 
ENDBRANCH  21  22
ENDBRANCH  18  21
ENDBRANCH  15  19
ENDBRANCH   1  15
TORSDOF 6
ENDMDL
MODEL 9
REMARK VINA RESULT:      -7.0      4.496      6.386
REMARK  Name = 
REMARK  6 active torsions:
REMARK  status: ('A' for Active; 'I' for Inactive)
REMARK    1  A    between atoms: C_2  and  C_3
REMARK    2  A    between atoms: C_3  and  C_4
REMARK    3  A    between atoms: N_9  and  N_10
REMARK    4  A    between atoms: N_10  and  C_11
REMARK    5  A    between atoms: C_11  and  N_13
REMARK    6  A    between atoms: C_14  and  C_16
REMARK                            x       y       z     vdW  Elec       q    Type
REMARK                         _______ _______ _______ _____ _____    ______ ____
ROOT
ATOM      1  C   UNL     1       5.001   3.968  18.876  0.00  0.00    +0.000 C 
ATOM      2  S   UNL     1       4.680   2.573  19.744  0.00  0.00    +0.000 S 
ENDROOT
BRANCH   1   3
ATOM      3  N   UNL     1       5.429   3.845  17.569  0.00  0.00    +0.000 N 
ATOM      4  C   UNL     1       6.355   4.647  16.921  0.00  0.00    +0.000 C 
ATOM      5  O   UNL     1       7.033   5.486  17.511  0.00  0.00    +0.000 OA
ATOM      6  H   UNL     1       4.946   3.122  17.056  0.00  0.00    +0.000 HD
BRANCH   4   7
ATOM      7  C   UNL     1       6.543   4.460  15.456  0.00  0.00    +0.000 A 
ATOM      8  C   UNL     1       5.714   3.654  14.661  0.00  0.00    +0.000 A 
ATOM      9  C   UNL     1       5.922   3.588  13.273  0.00  0.00    +0.000 A 
ATOM     10  C   UNL     1       6.950   4.325  12.690  0.00  0.00    +0.000 A 
ATOM     11  F   UNL     1       7.133   4.266  11.364  0.00  0.00    +0.000 F 
ATOM     12  C   UNL     1       7.767   5.126  13.474  0.00  0.00    +0.000 A 
ATOM     13  F   UNL     1       8.749   5.844  12.914  0.00  0.00    +0.000 F 
ATOM     14  C   UNL     1       7.570   5.199  14.848  0.00  0.00    +0.000 A 
ENDBRANCH   4   7
ENDBRANCH   1   3
BRANCH   1  15
ATOM     15  N   UNL     1       4.855   5.254  19.354  0.00  0.00    +0.000 N 
ATOM     16  H   UNL     1       5.555   5.586  20.023  0.00  0.00    +0.000 HD
BRANCH  15  19
ATOM     17  O   UNL     1       2.303   7.521  18.352  0.00  0.00    +0.000 OA
ATOM     18  C   UNL     1       2.828   6.620  19.013  0.00  0.00    +0.000 C 
ATOM     19  N   UNL     1       4.080   6.184  18.659  0.00  0.00    +0.000 N 
ATOM     20  H   UNL     1       4.510   6.636  17.855  0.00  0.00    +0.000 HD
BRANCH  18  21
ATOM     21  C   UNL     1       2.109   5.995  20.193  0.00  0.00    +0.000 C 
BRANCH  21  22
ATOM     22  C   UNL     1       1.589   4.638  19.829  0.00  0.00    +0.000 A 
ATOM     23  C   UNL     1       1.201   3.612  20.670  0.00  0.00    +0.000 A 
ATOM     24  C   UNL     1       0.806   2.443  19.956  0.00  0.00    +0.000 A 
ATOM     25  C   UNL     1       0.909   2.614  18.594  0.00  0.00    +0.000 A 
ATOM     26  S   UNL     1       1.461   4.179  18.183  0.00  0.00    +0.000 S 
ENDBRANCH  21  22
ENDBRANCH  18  21
ENDBRANCH  15  19
ENDBRANCH   1  15
TORSDOF 6
ENDMDL
