MODEL 1
REMARK VINA RESULT:      -6.8      0.000      0.000
REMARK  Name = 
REMARK  0 active torsions:
REMARK  status: ('A' for Active; 'I' for Inactive)
REMARK                            x       y       z     vdW  Elec       q    Type
REMARK                         _______ _______ _______ _____ _____    ______ ____
ROOT
ATOM      1  O   UNL     1       8.410   4.068  17.639  0.00  0.00    +0.000 OA
ATOM      2  C   UNL     1       7.325   4.585  17.771  0.00  0.00    +0.000 C 
ATOM      3  N   UNL     1       6.239   4.131  18.493  0.00  0.00    +0.000 N 
ATOM      4  C   UNL     1       5.163   5.016  18.399  0.00  0.00    +0.000 A 
ATOM      5  C   UNL     1       3.910   4.916  18.976  0.00  0.00    +0.000 A 
ATOM      6 CL   UNL     1       3.482   3.577  19.962  0.00  0.00    +0.000 Cl
ATOM      7  C   UNL     1       2.986   5.938  18.736  0.00  0.00    +0.000 A 
ATOM      8  C   UNL     1       3.334   7.036  17.926  0.00  0.00    +0.000 A 
ATOM      9 CL   UNL     1       2.175   8.278  17.648  0.00  0.00    +0.000 Cl
ATOM     10  C   UNL     1       4.597   7.140  17.345  0.00  0.00    +0.000 A 
ATOM     11  C   UNL     1       5.483   6.113  17.604  0.00  0.00    +0.000 A 
ATOM     12  C   UNL     1       6.862   5.931  17.147  0.00  0.00    +0.000 C 
ATOM     13  O   UNL     1       7.493   6.675  16.436  0.00  0.00    +0.000 OA
ATOM     14  H   UNL     1       6.243   3.266  19.016  0.00  0.00    +0.000 HD
ENDROOT
TORSDOF 0
ENDMDL
MODEL 2
REMARK VINA RESULT:      -6.3      2.779      3.575
REMARK  Name = 
REMARK  0 active torsions:
REMARK  status: ('A' for Active; 'I' for Inactive)
REMARK                            x       y       z     vdW  Elec       q    Type
REMARK                         _______ _______ _______ _____ _____    ______ ____
ROOT
ATOM      1  O   UNL     1       7.865   5.483  13.668  0.00  0.00    +0.000 OA
ATOM      2  C   UNL     1       7.236   5.208  14.663  0.00  0.00    +0.000 C 
ATOM      3  N   UNL     1       7.547   5.484  15.979  0.00  0.00    +0.000 N 
ATOM      4  C   UNL     1       6.563   5.000  16.844  0.00  0.00    +0.000 A 
ATOM      5  C   UNL     1       6.512   5.079  18.223  0.00  0.00    +0.000 A 
ATOM      6 CL   UNL     1       7.757   5.846  19.124  0.00  0.00    +0.000 Cl
ATOM      7  C   UNL     1       5.414   4.514  18.880  0.00  0.00    +0.000 A 
ATOM      8  C   UNL     1       4.392   3.883  18.144  0.00  0.00    +0.000 A 
ATOM      9 CL   UNL     1       3.053   3.195  18.979  0.00  0.00    +0.000 Cl
ATOM     10  C   UNL     1       4.441   3.803  16.753  0.00  0.00    +0.000 A 
ATOM     11  C   UNL     1       5.539   4.372  16.139  0.00  0.00    +0.000 A 
ATOM     12  C   UNL     1       5.879   4.452  14.717  0.00  0.00    +0.000 C 
ATOM     13  O   UNL     1       5.233   4.018  13.794  0.00  0.00    +0.000 OA
ATOM     14  H   UNL     1       8.384   5.976  16.259  0.00  0.00    +0.000 HD
ENDROOT
TORSDOF 0
ENDMDL
MODEL 3
REMARK VINA RESULT:      -6.2      1.684      3.088
REMARK  Name = 
REMARK  0 active torsions:
REMARK  status: ('A' for Active; 'I' for Inactive)
REMARK                            x       y       z     vdW  Elec       q    Type
REMARK                         _______ _______ _______ _____ _____    ______ ____
ROOT
ATOM      1  O   UNL     1       7.827   7.338  16.808  0.00  0.00    +0.000 OA
ATOM      2  C   UNL     1       6.825   6.686  16.989  0.00  0.00    +0.000 C 
ATOM      3  N   UNL     1       5.567   7.128  17.350  0.00  0.00    +0.000 N 
ATOM      4  C   UNL     1       4.670   6.063  17.461  0.00  0.00    +0.000 A 
ATOM      5  C   UNL     1       3.330   6.096  17.798  0.00  0.00    +0.000 A 
ATOM      6 CL   UNL     1       2.531   7.574  18.154  0.00  0.00    +0.000 Cl
ATOM      7  C   UNL     1       2.628   4.887  17.846  0.00  0.00    +0.000 A 
ATOM      8  C   UNL     1       3.281   3.673  17.556  0.00  0.00    +0.000 A 
ATOM      9 CL   UNL     1       2.392   2.201  17.624  0.00  0.00    +0.000 Cl
ATOM     10  C   UNL     1       4.632   3.638  17.214  0.00  0.00    +0.000 A 
ATOM     11  C   UNL     1       5.292   4.850  17.177  0.00  0.00    +0.000 A 
ATOM     12  C   UNL     1       6.691   5.143  16.859  0.00  0.00    +0.000 C 
ATOM     13  O   UNL     1       7.548   4.347  16.562  0.00  0.00    +0.000 OA
ATOM     14  H   UNL     1       5.345   8.101  17.507  0.00  0.00    +0.000 HD
ENDROOT
TORSDOF 0
ENDMDL
MODEL 4
REMARK VINA RESULT:      -6.2      2.824      3.561
REMARK  Name = 
REMARK  0 active torsions:
REMARK  status: ('A' for Active; 'I' for Inactive)
REMARK                            x       y       z     vdW  Elec       q    Type
REMARK                         _______ _______ _______ _____ _____    ______ ____
ROOT
ATOM      1  O   UNL     1       4.858   1.855  20.211  0.00  0.00    +0.000 OA
ATOM      2  C   UNL     1       4.640   2.924  19.689  0.00  0.00    +0.000 C 
ATOM      3  N   UNL     1       5.455   3.646  18.839  0.00  0.00    +0.000 N 
ATOM      4  C   UNL     1       4.844   4.838  18.446  0.00  0.00    +0.000 A 
ATOM      5  C   UNL     1       5.334   5.823  17.608  0.00  0.00    +0.000 A 
ATOM      6 CL   UNL     1       6.886   5.693  16.884  0.00  0.00    +0.000 Cl
ATOM      7  C   UNL     1       4.533   6.942  17.358  0.00  0.00    +0.000 A 
ATOM      8  C   UNL     1       3.260   7.051  17.952  0.00  0.00    +0.000 A 
ATOM      9 CL   UNL     1       2.296   8.440  17.628  0.00  0.00    +0.000 Cl
ATOM     10  C   UNL     1       2.764   6.059  18.796  0.00  0.00    +0.000 A 
ATOM     11  C   UNL     1       3.582   4.970  19.019  0.00  0.00    +0.000 A 
ATOM     12  C   UNL     1       3.354   3.782  19.843  0.00  0.00    +0.000 C 
ATOM     13  O   UNL     1       2.371   3.534  20.499  0.00  0.00    +0.000 OA
ATOM     14  H   UNL     1       6.372   3.332  18.551  0.00  0.00    +0.000 HD
ENDROOT
TORSDOF 0
ENDMDL
MODEL 5
REMARK VINA RESULT:      -6.1      1.834      1.905
REMARK  Name = 
REMARK  0 active torsions:
REMARK  status: ('A' for Active; 'I' for Inactive)
REMARK                            x       y       z     vdW  Elec       q    Type
REMARK                         _______ _______ _______ _____ _____    ______ ____
ROOT
ATOM      1  O   UNL     1       6.599   3.976  14.895  0.00  0.00    +0.000 OA
ATOM      2  C   UNL     1       5.903   4.333  15.818  0.00  0.00    +0.000 C 
ATOM      3  N   UNL     1       5.553   3.628  16.952  0.00  0.00    +0.000 N 
ATOM      4  C   UNL     1       4.731   4.389  17.786  0.00  0.00    +0.000 A 
ATOM      5  C   UNL     1       4.176   4.038  19.003  0.00  0.00    +0.000 A 
ATOM      6 CL   UNL     1       4.450   2.494  19.701  0.00  0.00    +0.000 Cl
ATOM      7  C   UNL     1       3.376   4.977  19.663  0.00  0.00    +0.000 A 
ATOM      8  C   UNL     1       3.149   6.244  19.091  0.00  0.00    +0.000 A 
ATOM      9 CL   UNL     1       2.159   7.379  19.925  0.00  0.00    +0.000 Cl
ATOM     10  C   UNL     1       3.708   6.600  17.865  0.00  0.00    +0.000 A 
ATOM     11  C   UNL     1       4.492   5.649  17.243  0.00  0.00    +0.000 A 
ATOM     12  C   UNL     1       5.207   5.714  15.967  0.00  0.00    +0.000 C 
ATOM     13  O   UNL     1       5.239   6.649  15.203  0.00  0.00    +0.000 OA
ATOM     14  H   UNL     1       5.864   2.684  17.136  0.00  0.00    +0.000 HD
ENDROOT
TORSDOF 0
ENDMDL
MODEL 6
REMARK VINA RESULT:      -6.1      1.200      3.106
REMARK  Name = 
REMARK  0 active torsions:
REMARK  status: ('A' for Active; 'I' for Inactive)
REMARK                            x       y       z     vdW  Elec       q    Type
REMARK                         _______ _______ _______ _____ _____    ______ ____
ROOT
ATOM      1  O   UNL     1       7.746   6.998  16.578  0.00  0.00    +0.000 OA
ATOM      2  C   UNL     1       6.822   6.470  17.153  0.00  0.00    +0.000 C 
ATOM      3  N   UNL     1       5.525   6.924  17.289  0.00  0.00    +0.000 N 
ATOM      4  C   UNL     1       4.751   6.025  18.027  0.00  0.00    +0.000 A 
ATOM      5  C   UNL     1       3.416   6.120  18.375  0.00  0.00    +0.000 A 
ATOM      6 CL   UNL     1       2.461   7.469  17.907  0.00  0.00    +0.000 Cl
ATOM      7  C   UNL     1       2.851   5.085  19.128  0.00  0.00    +0.000 A 
ATOM      8  C   UNL     1       3.632   3.979  19.514  0.00  0.00    +0.000 A 
ATOM      9 CL   UNL     1       2.911   2.721  20.441  0.00  0.00    +0.000 Cl
ATOM     10  C   UNL     1       4.978   3.881  19.163  0.00  0.00    +0.000 A 
ATOM     11  C   UNL     1       5.501   4.920  18.421  0.00  0.00    +0.000 A 
ATOM     12  C   UNL     1       6.858   5.111  17.905  0.00  0.00    +0.000 C 
ATOM     13  O   UNL     1       7.796   4.363  18.042  0.00  0.00    +0.000 OA
ATOM     14  H   UNL     1       5.198   7.796  16.897  0.00  0.00    +0.000 HD
ENDROOT
TORSDOF 0
ENDMDL
MODEL 7
REMARK VINA RESULT:      -6.1      2.142      3.360
REMARK  Name = 
REMARK  0 active torsions:
REMARK  status: ('A' for Active; 'I' for Inactive)
REMARK                            x       y       z     vdW  Elec       q    Type
REMARK                         _______ _______ _______ _____ _____    ______ ____
ROOT
ATOM      1  O   UNL     1       6.777   6.239  15.766  0.00  0.00    +0.000 OA
ATOM      2  C   UNL     1       5.787   5.797  16.303  0.00  0.00    +0.000 C 
ATOM      3  N   UNL     1       4.838   6.472  17.045  0.00  0.00    +0.000 N 
ATOM      4  C   UNL     1       3.841   5.606  17.498  0.00  0.00    +0.000 A 
ATOM      5  C   UNL     1       2.728   5.898  18.265  0.00  0.00    +0.000 A 
ATOM      6 CL   UNL     1       2.404   7.497  18.801  0.00  0.00    +0.000 Cl
ATOM      7  C   UNL     1       1.860   4.854  18.600  0.00  0.00    +0.000 A 
ATOM      8  C   UNL     1       2.125   3.541  18.162  0.00  0.00    +0.000 A 
ATOM      9 CL   UNL     1       1.041   2.275  18.592  0.00  0.00    +0.000 Cl
ATOM     10  C   UNL     1       3.247   3.245  17.389  0.00  0.00    +0.000 A 
ATOM     11  C   UNL     1       4.080   4.300  17.077  0.00  0.00    +0.000 A 
ATOM     12  C   UNL     1       5.317   4.316  16.295  0.00  0.00    +0.000 C 
ATOM     13  O   UNL     1       5.849   3.371  15.764  0.00  0.00    +0.000 OA
ATOM     14  H   UNL     1       4.879   7.466  17.223  0.00  0.00    +0.000 HD
ENDROOT
TORSDOF 0
ENDMDL
MODEL 8
REMARK VINA RESULT:      -6.1      1.794      1.954
REMARK  Name = 
REMARK  0 active torsions:
REMARK  status: ('A' for Active; 'I' for Inactive)
REMARK                            x       y       z     vdW  Elec       q    Type
REMARK                         _______ _______ _______ _____ _____    ______ ____
ROOT
ATOM      1  O   UNL     1       7.455   4.582  15.277  0.00  0.00    +0.000 OA
ATOM      2  C   UNL     1       6.530   4.650  16.053  0.00  0.00    +0.000 C 
ATOM      3  N   UNL     1       5.732   3.629  16.529  0.00  0.00    +0.000 N 
ATOM      4  C   UNL     1       4.765   4.113  17.413  0.00  0.00    +0.000 A 
ATOM      5  C   UNL     1       3.789   3.409  18.094  0.00  0.00    +0.000 A 
ATOM      6 CL   UNL     1       3.626   1.708  17.922  0.00  0.00    +0.000 Cl
ATOM      7  C   UNL     1       2.924   4.118  18.934  0.00  0.00    +0.000 A 
ATOM      8  C   UNL     1       3.054   5.513  19.075  0.00  0.00    +0.000 A 
ATOM      9 CL   UNL     1       1.975   6.359  20.115  0.00  0.00    +0.000 Cl
ATOM     10  C   UNL     1       4.039   6.224  18.390  0.00  0.00    +0.000 A 
ATOM     11  C   UNL     1       4.874   5.492  17.571  0.00  0.00    +0.000 A 
ATOM     12  C   UNL     1       5.987   5.938  16.732  0.00  0.00    +0.000 C 
ATOM     13  O   UNL     1       6.388   7.070  16.603  0.00  0.00    +0.000 OA
ATOM     14  H   UNL     1       5.849   2.662  16.259  0.00  0.00    +0.000 HD
ENDROOT
TORSDOF 0
ENDMDL
MODEL 9
REMARK VINA RESULT:      -6.0      3.657      4.459
REMARK  Name = 
REMARK  0 active torsions:
REMARK  status: ('A' for Active; 'I' for Inactive)
REMARK                            x       y       z     vdW  Elec       q    Type
REMARK                         _______ _______ _______ _____ _____    ______ ____
ROOT
ATOM      1  O   UNL     1       2.738   3.874  20.124  0.00  0.00    +0.000 OA
ATOM      2  C   UNL     1       3.551   4.049  19.246  0.00  0.00    +0.000 C 
ATOM      3  N   UNL     1       4.840   4.532  19.354  0.00  0.00    +0.000 N 
ATOM      4  C   UNL     1       5.465   4.588  18.106  0.00  0.00    +0.000 A 
ATOM      5  C   UNL     1       6.746   5.011  17.801  0.00  0.00    +0.000 A 
ATOM      6 CL   UNL     1       7.820   5.568  19.019  0.00  0.00    +0.000 Cl
ATOM      7  C   UNL     1       7.154   4.977  16.464  0.00  0.00    +0.000 A 
ATOM      8  C   UNL     1       6.275   4.521  15.462  0.00  0.00    +0.000 A 
ATOM      9 CL   UNL     1       6.805   4.492  13.825  0.00  0.00    +0.000 Cl
ATOM     10  C   UNL     1       4.983   4.094  15.768  0.00  0.00    +0.000 A 
ATOM     11  C   UNL     1       4.615   4.141  17.098  0.00  0.00    +0.000 A 
ATOM     12  C   UNL     1       3.349   3.768  17.731  0.00  0.00    +0.000 C 
ATOM     13  O   UNL     1       2.365   3.336  17.181  0.00  0.00    +0.000 OA
ATOM     14  H   UNL     1       5.259   4.803  20.233  0.00  0.00    +0.000 HD
ENDROOT
TORSDOF 0
ENDMDL
