MODEL 1
REMARK VINA RESULT:      -7.6      0.000      0.000
REMARK  Name = 
REMARK  9 active torsions:
REMARK  status: ('A' for Active; 'I' for Inactive)
REMARK    1  A    between atoms: C_1  and  C_2
REMARK    2  A    between atoms: C_2  and  O_3
REMARK    3  A    between atoms: O_3  and  C_4
REMARK    4  A    between atoms: C_4  and  C_6
REMARK    5  A    between atoms: C_6  and  C_7
REMARK    6  A    between atoms: C_12  and  C_14
REMARK    7  A    between atoms: C_14  and  S_15
REMARK    8  A    between atoms: S_15  and  C_16
REMARK    9  A    between atoms: N_20  and  C_21
REMARK                            x       y       z     vdW  Elec       q    Type
REMARK                         _______ _______ _______ _____ _____    ______ ____
ROOT
ATOM      1  C   UNL     1       4.501   5.674  17.354  0.00  0.00    +0.000 A 
ATOM      2  C   UNL     1       4.609   4.395  17.871  0.00  0.00    +0.000 A 
ATOM      3  S   UNL     1       3.860   4.324  19.414  0.00  0.00    +0.000 S 
ATOM      4  C   UNL     1       3.385   5.950  19.234  0.00  0.00    +0.000 A 
ATOM      5  N   UNL     1       2.658   6.449  20.279  0.00  0.00    +0.000 N 
ATOM      6  C   UNL     1       2.003   7.659  20.190  0.00  0.00    +0.000 C 
ATOM      7  O   UNL     1       1.920   8.373  19.193  0.00  0.00    +0.000 OA
ATOM      8  N   UNL     1       3.765   6.550  18.138  0.00  0.00    +0.000 NA
ATOM      9  H   UNL     1       2.517   5.829  21.064  0.00  0.00    +0.000 HD
ENDROOT
BRANCH   1  10
ATOM     10  C   UNL     1       5.110   6.194  16.095  0.00  0.00    +0.000 C 
BRANCH  10  11
ATOM     11  C   UNL     1       6.552   5.761  15.998  0.00  0.00    +0.000 C 
ATOM     12  O   UNL     1       7.385   5.858  16.893  0.00  0.00    +0.000 OA
BRANCH  11  13
ATOM     13  O   UNL     1       6.800   5.244  14.760  0.00  0.00    +0.000 OA
BRANCH  13  15
ATOM     14  C   UNL     1       6.098   3.705  13.070  0.00  0.00    +0.000 C 
ATOM     15  C   UNL     1       6.334   3.904  14.557  0.00  0.00    +0.000 C 
ENDBRANCH  13  15
ENDBRANCH  11  13
ENDBRANCH  10  11
ENDBRANCH   1  10
BRANCH   6  16
ATOM     16  C   UNL     1       1.320   8.059  21.488  0.00  0.00    +0.000 C 
BRANCH  16  17
ATOM     17  S   UNL     1      -0.326   8.739  21.160  0.00  0.00    +0.000 S 
BRANCH  17  18
ATOM     18  C   UNL     1       0.032  10.422  20.944  0.00  0.00    +0.000 A 
ATOM     19  N   UNL     1       0.889  11.106  21.671  0.00  0.00    +0.000 NA
ATOM     20  N   UNL     1       1.111  12.271  20.990  0.00  0.00    +0.000 NA
ATOM     21  N   UNL     1       0.418  12.305  19.859  0.00  0.00    +0.000 NA
ATOM     22  N   UNL     1      -0.361  11.191  19.859  0.00  0.00    +0.000 N 
BRANCH  22  23
ATOM     23  C   UNL     1      -1.387  11.025  18.892  0.00  0.00    +0.000 A 
ATOM     24  C   UNL     1      -1.177  10.160  17.804  0.00  0.00    +0.000 A 
ATOM     25  C   UNL     1      -2.163  10.014  16.823  0.00  0.00    +0.000 A 
ATOM     26  C   UNL     1      -3.340  10.748  16.916  0.00  0.00    +0.000 A 
ATOM     27  F   UNL     1      -4.269  10.631  15.958  0.00  0.00    +0.000 F 
ATOM     28  C   UNL     1      -3.553  11.620  17.977  0.00  0.00    +0.000 A 
ATOM     29  C   UNL     1      -2.580  11.761  18.970  0.00  0.00    +0.000 A 
ENDBRANCH  22  23
ENDBRANCH  17  18
ENDBRANCH  16  17
ENDBRANCH   6  16
TORSDOF 8
ENDMDL
MODEL 2
REMARK VINA RESULT:      -7.3      3.613      8.991
REMARK  Name = 
REMARK  9 active torsions:
REMARK  status: ('A' for Active; 'I' for Inactive)
REMARK    1  A    between atoms: C_1  and  C_2
REMARK    2  A    between atoms: C_2  and  O_3
REMARK    3  A    between atoms: O_3  and  C_4
REMARK    4  A    between atoms: C_4  and  C_6
REMARK    5  A    between atoms: C_6  and  C_7
REMARK    6  A    between atoms: C_12  and  C_14
REMARK    7  A    between atoms: C_14  and  S_15
REMARK    8  A    between atoms: S_15  and  C_16
REMARK    9  A    between atoms: N_20  and  C_21
REMARK                            x       y       z     vdW  Elec       q    Type
REMARK                         _______ _______ _______ _____ _____    ______ ____
ROOT
ATOM      1  C   UNL     1      -0.894  11.454  20.066  0.00  0.00    +0.000 A 
ATOM      2  C   UNL     1      -1.137  11.676  21.411  0.00  0.00    +0.000 A 
ATOM      3  S   UNL     1      -0.484  10.390  22.342  0.00  0.00    +0.000 S 
ATOM      4  C   UNL     1       0.135   9.698  20.913  0.00  0.00    +0.000 A 
ATOM      5  N   UNL     1       0.840   8.543  21.101  0.00  0.00    +0.000 N 
ATOM      6  C   UNL     1       1.599   7.989  20.091  0.00  0.00    +0.000 C 
ATOM      7  O   UNL     1       1.797   8.470  18.978  0.00  0.00    +0.000 OA
ATOM      8  N   UNL     1      -0.132  10.326  19.800  0.00  0.00    +0.000 NA
ATOM      9  H   UNL     1       0.885   8.192  22.047  0.00  0.00    +0.000 HD
ENDROOT
BRANCH   1  10
ATOM     10  C   UNL     1      -1.385  12.264  18.914  0.00  0.00    +0.000 C 
BRANCH  10  11
ATOM     11  C   UNL     1      -2.469  11.516  18.177  0.00  0.00    +0.000 C 
ATOM     12  O   UNL     1      -3.660  11.525  18.466  0.00  0.00    +0.000 OA
BRANCH  11  13
ATOM     13  O   UNL     1      -1.927  10.820  17.136  0.00  0.00    +0.000 OA
BRANCH  13  15
ATOM     14  C   UNL     1      -3.075  10.500  15.063  0.00  0.00    +0.000 C 
ATOM     15  C   UNL     1      -2.833   9.942  16.455  0.00  0.00    +0.000 C 
ENDBRANCH  13  15
ENDBRANCH  11  13
ENDBRANCH  10  11
ENDBRANCH   1  10
BRANCH   6  16
ATOM     16  C   UNL     1       2.239   6.668  20.489  0.00  0.00    +0.000 C 
BRANCH  16  17
ATOM     17  S   UNL     1       2.241   5.514  19.093  0.00  0.00    +0.000 S 
BRANCH  17  18
ATOM     18  C   UNL     1       3.385   4.325  19.629  0.00  0.00    +0.000 A 
ATOM     19  N   UNL     1       3.071   3.215  20.263  0.00  0.00    +0.000 NA
ATOM     20  N   UNL     1       4.189   2.429  20.216  0.00  0.00    +0.000 NA
ATOM     21  N   UNL     1       5.171   3.032  19.558  0.00  0.00    +0.000 NA
ATOM     22  N   UNL     1       4.723   4.282  19.270  0.00  0.00    +0.000 N 
BRANCH  22  23
ATOM     23  C   UNL     1       5.606   5.267  18.756  0.00  0.00    +0.000 A 
ATOM     24  C   UNL     1       5.218   6.027  17.639  0.00  0.00    +0.000 A 
ATOM     25  C   UNL     1       6.092   6.976  17.098  0.00  0.00    +0.000 A 
ATOM     26  C   UNL     1       7.354   7.145  17.654  0.00  0.00    +0.000 A 
ATOM     27  F   UNL     1       8.201   8.030  17.114  0.00  0.00    +0.000 F 
ATOM     28  C   UNL     1       7.757   6.388  18.748  0.00  0.00    +0.000 A 
ATOM     29  C   UNL     1       6.886   5.448  19.306  0.00  0.00    +0.000 A 
ENDBRANCH  22  23
ENDBRANCH  17  18
ENDBRANCH  16  17
ENDBRANCH   6  16
TORSDOF 8
ENDMDL
MODEL 3
REMARK VINA RESULT:      -7.3      1.037      1.816
REMARK  Name = 
REMARK  9 active torsions:
REMARK  status: ('A' for Active; 'I' for Inactive)
REMARK    1  A    between atoms: C_1  and  C_2
REMARK    2  A    between atoms: C_2  and  O_3
REMARK    3  A    between atoms: O_3  and  C_4
REMARK    4  A    between atoms: C_4  and  C_6
REMARK    5  A    between atoms: C_6  and  C_7
REMARK    6  A    between atoms: C_12  and  C_14
REMARK    7  A    between atoms: C_14  and  S_15
REMARK    8  A    between atoms: S_15  and  C_16
REMARK    9  A    between atoms: N_20  and  C_21
REMARK                            x       y       z     vdW  Elec       q    Type
REMARK                         _______ _______ _______ _____ _____    ______ ____
ROOT
ATOM      1  C   UNL     1       4.218   4.777  17.651  0.00  0.00    +0.000 A 
ATOM      2  C   UNL     1       4.071   3.553  18.281  0.00  0.00    +0.000 A 
ATOM      3  S   UNL     1       3.280   3.765  19.791  0.00  0.00    +0.000 S 
ATOM      4  C   UNL     1       3.122   5.427  19.450  0.00  0.00    +0.000 A 
ATOM      5  N   UNL     1       2.474   6.145  20.415  0.00  0.00    +0.000 N 
ATOM      6  C   UNL     1       2.059   7.441  20.194  0.00  0.00    +0.000 C 
ATOM      7  O   UNL     1       2.138   8.063  19.136  0.00  0.00    +0.000 OA
ATOM      8  N   UNL     1       3.637   5.842  18.324  0.00  0.00    +0.000 NA
ATOM      9  H   UNL     1       2.199   5.638  21.244  0.00  0.00    +0.000 HD
ENDROOT
BRANCH   1  10
ATOM     10  C   UNL     1       4.947   5.057  16.380  0.00  0.00    +0.000 C 
BRANCH  10  11
ATOM     11  C   UNL     1       6.031   6.079  16.617  0.00  0.00    +0.000 C 
ATOM     12  O   UNL     1       5.852   7.283  16.769  0.00  0.00    +0.000 OA
BRANCH  11  13
ATOM     13  O   UNL     1       7.250   5.467  16.637  0.00  0.00    +0.000 OA
BRANCH  13  15
ATOM     14  C   UNL     1       7.914   5.682  18.924  0.00  0.00    +0.000 C 
ATOM     15  C   UNL     1       7.531   4.710  17.821  0.00  0.00    +0.000 C 
ENDBRANCH  13  15
ENDBRANCH  11  13
ENDBRANCH  10  11
ENDBRANCH   1  10
BRANCH   6  16
ATOM     16  C   UNL     1       1.428   8.079  21.422  0.00  0.00    +0.000 C 
BRANCH  16  17
ATOM     17  S   UNL     1      -0.219   8.724  21.031  0.00  0.00    +0.000 S 
BRANCH  17  18
ATOM     18  C   UNL     1       0.103  10.422  20.880  0.00  0.00    +0.000 A 
ATOM     19  N   UNL     1       0.929  11.101  21.647  0.00  0.00    +0.000 NA
ATOM     20  N   UNL     1       1.136  12.293  21.010  0.00  0.00    +0.000 NA
ATOM     21  N   UNL     1       0.464  12.350  19.868  0.00  0.00    +0.000 NA
ATOM     22  N   UNL     1      -0.288  11.219  19.814  0.00  0.00    +0.000 N 
BRANCH  22  23
ATOM     23  C   UNL     1      -1.291  11.062  18.822  0.00  0.00    +0.000 A 
ATOM     24  C   UNL     1      -2.520  11.728  18.972  0.00  0.00    +0.000 A 
ATOM     25  C   UNL     1      -3.532  11.555  18.023  0.00  0.00    +0.000 A 
ATOM     26  C   UNL     1      -3.326  10.702  16.944  0.00  0.00    +0.000 A 
ATOM     27  F   UNL     1      -4.308  10.513  16.054  0.00  0.00    +0.000 F 
ATOM     28  C   UNL     1      -2.122  10.025  16.793  0.00  0.00    +0.000 A 
ATOM     29  C   UNL     1      -1.098  10.203  17.728  0.00  0.00    +0.000 A 
ENDBRANCH  22  23
ENDBRANCH  17  18
ENDBRANCH  16  17
ENDBRANCH   6  16
TORSDOF 8
ENDMDL
MODEL 4
REMARK VINA RESULT:      -7.3      3.618      8.935
REMARK  Name = 
REMARK  9 active torsions:
REMARK  status: ('A' for Active; 'I' for Inactive)
REMARK    1  A    between atoms: C_1  and  C_2
REMARK    2  A    between atoms: C_2  and  O_3
REMARK    3  A    between atoms: O_3  and  C_4
REMARK    4  A    between atoms: C_4  and  C_6
REMARK    5  A    between atoms: C_6  and  C_7
REMARK    6  A    between atoms: C_12  and  C_14
REMARK    7  A    between atoms: C_14  and  S_15
REMARK    8  A    between atoms: S_15  and  C_16
REMARK    9  A    between atoms: N_20  and  C_21
REMARK                            x       y       z     vdW  Elec       q    Type
REMARK                         _______ _______ _______ _____ _____    ______ ____
ROOT
ATOM      1  C   UNL     1      -1.165  11.324  19.549  0.00  0.00    +0.000 A 
ATOM      2  C   UNL     1      -1.228  11.648  20.893  0.00  0.00    +0.000 A 
ATOM      3  S   UNL     1      -0.275  10.549  21.805  0.00  0.00    +0.000 S 
ATOM      4  C   UNL     1       0.205   9.795  20.354  0.00  0.00    +0.000 A 
ATOM      5  N   UNL     1       1.078   8.757  20.515  0.00  0.00    +0.000 N 
ATOM      6  C   UNL     1       1.741   8.198  19.442  0.00  0.00    +0.000 C 
ATOM      7  O   UNL     1       1.701   8.586  18.276  0.00  0.00    +0.000 OA
ATOM      8  N   UNL     1      -0.310  10.273  19.252  0.00  0.00    +0.000 NA
ATOM      9  H   UNL     1       1.313   8.511  21.465  0.00  0.00    +0.000 HD
ENDROOT
BRANCH   1  10
ATOM     10  C   UNL     1      -1.930  11.950  18.432  0.00  0.00    +0.000 C 
BRANCH  10  11
ATOM     11  C   UNL     1      -2.687  10.894  17.664  0.00  0.00    +0.000 C 
ATOM     12  O   UNL     1      -3.589  10.196  18.116  0.00  0.00    +0.000 OA
BRANCH  11  13
ATOM     13  O   UNL     1      -2.219  10.824  16.385  0.00  0.00    +0.000 OA
BRANCH  13  15
ATOM     14  C   UNL     1      -3.456  10.271  14.415  0.00  0.00    +0.000 C 
ATOM     15  C   UNL     1      -2.711   9.718  15.617  0.00  0.00    +0.000 C 
ENDBRANCH  13  15
ENDBRANCH  11  13
ENDBRANCH  10  11
ENDBRANCH   1  10
BRANCH   6  16
ATOM     16  C   UNL     1       2.604   7.009  19.833  0.00  0.00    +0.000 C 
BRANCH  16  17
ATOM     17  S   UNL     1       2.254   5.588  18.767  0.00  0.00    +0.000 S 
BRANCH  17  18
ATOM     18  C   UNL     1       3.338   4.397  19.412  0.00  0.00    +0.000 A 
ATOM     19  N   UNL     1       2.964   3.329  20.086  0.00  0.00    +0.000 NA
ATOM     20  N   UNL     1       4.060   2.512  20.128  0.00  0.00    +0.000 NA
ATOM     21  N   UNL     1       5.087   3.053  19.484  0.00  0.00    +0.000 NA
ATOM     22  N   UNL     1       4.689   4.299  19.115  0.00  0.00    +0.000 N 
BRANCH  22  23
ATOM     23  C   UNL     1       5.622   5.232  18.592  0.00  0.00    +0.000 A 
ATOM     24  C   UNL     1       6.842   5.435  19.260  0.00  0.00    +0.000 A 
ATOM     25  C   UNL     1       7.756   6.378  18.779  0.00  0.00    +0.000 A 
ATOM     26  C   UNL     1       7.442   7.130  17.654  0.00  0.00    +0.000 A 
ATOM     27  F   UNL     1       8.304   8.055  17.214  0.00  0.00    +0.000 F 
ATOM     28  C   UNL     1       6.232   6.951  16.994  0.00  0.00    +0.000 A 
ATOM     29  C   UNL     1       5.318   6.000  17.457  0.00  0.00    +0.000 A 
ENDBRANCH  22  23
ENDBRANCH  17  18
ENDBRANCH  16  17
ENDBRANCH   6  16
TORSDOF 8
ENDMDL
MODEL 5
REMARK VINA RESULT:      -7.2      1.614      2.352
REMARK  Name = 
REMARK  9 active torsions:
REMARK  status: ('A' for Active; 'I' for Inactive)
REMARK    1  A    between atoms: C_1  and  C_2
REMARK    2  A    between atoms: C_2  and  O_3
REMARK    3  A    between atoms: O_3  and  C_4
REMARK    4  A    between atoms: C_4  and  C_6
REMARK    5  A    between atoms: C_6  and  C_7
REMARK    6  A    between atoms: C_12  and  C_14
REMARK    7  A    between atoms: C_14  and  S_15
REMARK    8  A    between atoms: S_15  and  C_16
REMARK    9  A    between atoms: N_20  and  C_21
REMARK                            x       y       z     vdW  Elec       q    Type
REMARK                         _______ _______ _______ _____ _____    ______ ____
ROOT
ATOM      1  C   UNL     1       3.089   3.736  18.751  0.00  0.00    +0.000 A 
ATOM      2  C   UNL     1       2.431   2.767  19.488  0.00  0.00    +0.000 A 
ATOM      3  S   UNL     1       1.630   3.491  20.823  0.00  0.00    +0.000 S 
ATOM      4  C   UNL     1       2.143   5.020  20.273  0.00  0.00    +0.000 A 
ATOM      5  N   UNL     1       1.720   6.070  21.038  0.00  0.00    +0.000 N 
ATOM      6  C   UNL     1       1.846   7.374  20.607  0.00  0.00    +0.000 C 
ATOM      7  O   UNL     1       2.258   7.744  19.509  0.00  0.00    +0.000 OA
ATOM      8  N   UNL     1       2.887   5.033  19.199  0.00  0.00    +0.000 NA
ATOM      9  H   UNL     1       1.192   5.838  21.867  0.00  0.00    +0.000 HD
ENDROOT
BRANCH   1  10
ATOM     10  C   UNL     1       3.993   3.525  17.583  0.00  0.00    +0.000 C 
BRANCH  10  11
ATOM     11  C   UNL     1       4.847   4.748  17.359  0.00  0.00    +0.000 C 
ATOM     12  O   UNL     1       4.555   5.697  16.640  0.00  0.00    +0.000 OA
BRANCH  11  13
ATOM     13  O   UNL     1       6.003   4.644  18.077  0.00  0.00    +0.000 OA
BRANCH  13  15
ATOM     14  C   UNL     1       7.844   5.763  19.116  0.00  0.00    +0.000 C 
ATOM     15  C   UNL     1       6.922   5.731  17.908  0.00  0.00    +0.000 C 
ENDBRANCH  13  15
ENDBRANCH  11  13
ENDBRANCH  10  11
ENDBRANCH   1  10
BRANCH   6  16
ATOM     16  C   UNL     1       1.382   8.387  21.641  0.00  0.00    +0.000 C 
BRANCH  16  17
ATOM     17  S   UNL     1      -0.268   9.011  21.228  0.00  0.00    +0.000 S 
BRANCH  17  18
ATOM     18  C   UNL     1       0.058  10.692  20.950  0.00  0.00    +0.000 A 
ATOM     19  N   UNL     1       0.884  11.425  21.667  0.00  0.00    +0.000 NA
ATOM     20  N   UNL     1       1.095  12.565  20.942  0.00  0.00    +0.000 NA
ATOM     21  N   UNL     1       0.428  12.536  19.796  0.00  0.00    +0.000 NA
ATOM     22  N   UNL     1      -0.326  11.406  19.825  0.00  0.00    +0.000 N 
BRANCH  22  23
ATOM     23  C   UNL     1      -1.326  11.177  18.843  0.00  0.00    +0.000 A 
ATOM     24  C   UNL     1      -2.575  11.811  18.969  0.00  0.00    +0.000 A 
ATOM     25  C   UNL     1      -3.582  11.566  18.031  0.00  0.00    +0.000 A 
ATOM     26  C   UNL     1      -3.352  10.675  16.989  0.00  0.00    +0.000 A 
ATOM     27  F   UNL     1      -4.330  10.418  16.111  0.00  0.00    +0.000 F 
ATOM     28  C   UNL     1      -2.128  10.029  16.863  0.00  0.00    +0.000 A 
ATOM     29  C   UNL     1      -1.109  10.278  17.787  0.00  0.00    +0.000 A 
ENDBRANCH  22  23
ENDBRANCH  17  18
ENDBRANCH  16  17
ENDBRANCH   6  16
TORSDOF 8
ENDMDL
MODEL 6
REMARK VINA RESULT:      -7.2      3.509      9.181
REMARK  Name = 
REMARK  9 active torsions:
REMARK  status: ('A' for Active; 'I' for Inactive)
REMARK    1  A    between atoms: C_1  and  C_2
REMARK    2  A    between atoms: C_2  and  O_3
REMARK    3  A    between atoms: O_3  and  C_4
REMARK    4  A    between atoms: C_4  and  C_6
REMARK    5  A    between atoms: C_6  and  C_7
REMARK    6  A    between atoms: C_12  and  C_14
REMARK    7  A    between atoms: C_14  and  S_15
REMARK    8  A    between atoms: S_15  and  C_16
REMARK    9  A    between atoms: N_20  and  C_21
REMARK                            x       y       z     vdW  Elec       q    Type
REMARK                         _______ _______ _______ _____ _____    ______ ____
ROOT
ATOM      1  C   UNL     1      -1.228  11.122  18.524  0.00  0.00    +0.000 A 
ATOM      2  C   UNL     1      -1.321  11.423  19.872  0.00  0.00    +0.000 A 
ATOM      3  S   UNL     1      -0.204  10.470  20.762  0.00  0.00    +0.000 S 
ATOM      4  C   UNL     1       0.364   9.808  19.298  0.00  0.00    +0.000 A 
ATOM      5  N   UNL     1       1.383   8.909  19.439  0.00  0.00    +0.000 N 
ATOM      6  C   UNL     1       2.107   8.463  18.353  0.00  0.00    +0.000 C 
ATOM      7  O   UNL     1       1.996   8.850  17.192  0.00  0.00    +0.000 OA
ATOM      8  N   UNL     1      -0.230  10.212  18.207  0.00  0.00    +0.000 NA
ATOM      9  H   UNL     1       1.664   8.693  20.385  0.00  0.00    +0.000 HD
ENDROOT
BRANCH   1  10
ATOM     10  C   UNL     1      -2.091  11.637  17.421  0.00  0.00    +0.000 C 
BRANCH  10  11
ATOM     11  C   UNL     1      -3.445  10.971  17.467  0.00  0.00    +0.000 C 
ATOM     12  O   UNL     1      -3.648   9.792  17.739  0.00  0.00    +0.000 OA
BRANCH  11  13
ATOM     13  O   UNL     1      -4.418  11.875  17.159  0.00  0.00    +0.000 OA
BRANCH  13  15
ATOM     14  C   UNL     1      -6.307  12.757  18.331  0.00  0.00    +0.000 C 
ATOM     15  C   UNL     1      -5.730  11.540  17.629  0.00  0.00    +0.000 C 
ENDBRANCH  13  15
ENDBRANCH  11  13
ENDBRANCH  10  11
ENDBRANCH   1  10
BRANCH   6  16
ATOM     16  C   UNL     1       3.142   7.412  18.723  0.00  0.00    +0.000 C 
BRANCH  16  17
ATOM     17  S   UNL     1       4.220   7.053  17.313  0.00  0.00    +0.000 S 
BRANCH  17  18
ATOM     18  C   UNL     1       5.325   5.908  18.005  0.00  0.00    +0.000 A 
ATOM     19  N   UNL     1       6.615   6.113  18.164  0.00  0.00    +0.000 NA
ATOM     20  N   UNL     1       7.047   5.131  19.013  0.00  0.00    +0.000 NA
ATOM     21  N   UNL     1       6.046   4.343  19.383  0.00  0.00    +0.000 NA
ATOM     22  N   UNL     1       4.961   4.747  18.671  0.00  0.00    +0.000 N 
BRANCH  22  23
ATOM     23  C   UNL     1       3.770   3.976  18.666  0.00  0.00    +0.000 A 
ATOM     24  C   UNL     1       2.941   3.980  19.802  0.00  0.00    +0.000 A 
ATOM     25  C   UNL     1       1.783   3.197  19.828  0.00  0.00    +0.000 A 
ATOM     26  C   UNL     1       1.469   2.396  18.736  0.00  0.00    +0.000 A 
ATOM     27  F   UNL     1       0.377   1.622  18.776  0.00  0.00    +0.000 F 
ATOM     28  C   UNL     1       2.288   2.370  17.614  0.00  0.00    +0.000 A 
ATOM     29  C   UNL     1       3.440   3.161  17.572  0.00  0.00    +0.000 A 
ENDBRANCH  22  23
ENDBRANCH  17  18
ENDBRANCH  16  17
ENDBRANCH   6  16
TORSDOF 8
ENDMDL
MODEL 7
REMARK VINA RESULT:      -7.2      1.879      2.516
REMARK  Name = 
REMARK  9 active torsions:
REMARK  status: ('A' for Active; 'I' for Inactive)
REMARK    1  A    between atoms: C_1  and  C_2
REMARK    2  A    between atoms: C_2  and  O_3
REMARK    3  A    between atoms: O_3  and  C_4
REMARK    4  A    between atoms: C_4  and  C_6
REMARK    5  A    between atoms: C_6  and  C_7
REMARK    6  A    between atoms: C_12  and  C_14
REMARK    7  A    between atoms: C_14  and  S_15
REMARK    8  A    between atoms: S_15  and  C_16
REMARK    9  A    between atoms: N_20  and  C_21
REMARK                            x       y       z     vdW  Elec       q    Type
REMARK                         _______ _______ _______ _____ _____    ______ ____
ROOT
ATOM      1  C   UNL     1       4.385   4.285  18.866  0.00  0.00    +0.000 A 
ATOM      2  C   UNL     1       3.742   3.300  19.595  0.00  0.00    +0.000 A 
ATOM      3  S   UNL     1       2.476   3.994  20.525  0.00  0.00    +0.000 S 
ATOM      4  C   UNL     1       2.824   5.510  19.827  0.00  0.00    +0.000 A 
ATOM      5  N   UNL     1       2.012   6.527  20.243  0.00  0.00    +0.000 N 
ATOM      6  C   UNL     1       2.005   7.751  19.608  0.00  0.00    +0.000 C 
ATOM      7  O   UNL     1       2.632   8.051  18.594  0.00  0.00    +0.000 OA
ATOM      8  N   UNL     1       3.823   5.548  18.987  0.00  0.00    +0.000 NA
ATOM      9  H   UNL     1       1.326   6.295  20.948  0.00  0.00    +0.000 HD
ENDROOT
BRANCH   1  10
ATOM     10  C   UNL     1       5.604   4.132  18.019  0.00  0.00    +0.000 C 
BRANCH  10  11
ATOM     11  C   UNL     1       6.673   5.097  18.469  0.00  0.00    +0.000 C 
ATOM     12  O   UNL     1       7.119   5.184  19.608  0.00  0.00    +0.000 OA
BRANCH  11  13
ATOM     13  O   UNL     1       7.076   5.867  17.417  0.00  0.00    +0.000 OA
BRANCH  13  15
ATOM     14  C   UNL     1       7.833   8.127  17.601  0.00  0.00    +0.000 C 
ATOM     15  C   UNL     1       6.621   7.226  17.449  0.00  0.00    +0.000 C 
ENDBRANCH  13  15
ENDBRANCH  11  13
ENDBRANCH  10  11
ENDBRANCH   1  10
BRANCH   6  16
ATOM     16  C   UNL     1       1.086   8.760  20.278  0.00  0.00    +0.000 C 
BRANCH  16  17
ATOM     17  S   UNL     1       0.725  10.136  19.157  0.00  0.00    +0.000 S 
BRANCH  17  18
ATOM     18  C   UNL     1      -0.636  10.873  19.942  0.00  0.00    +0.000 A 
ATOM     19  N   UNL     1      -0.646  11.292  21.189  0.00  0.00    +0.000 NA
ATOM     20  N   UNL     1      -1.760  12.077  21.310  0.00  0.00    +0.000 NA
ATOM     21  N   UNL     1      -2.419  12.154  20.161  0.00  0.00    +0.000 NA
ATOM     22  N   UNL     1      -1.788  11.309  19.304  0.00  0.00    +0.000 N 
BRANCH  22  23
ATOM     23  C   UNL     1      -2.364  10.988  18.048  0.00  0.00    +0.000 A 
ATOM     24  C   UNL     1      -3.628  11.506  17.716  0.00  0.00    +0.000 A 
ATOM     25  C   UNL     1      -4.227  11.169  16.498  0.00  0.00    +0.000 A 
ATOM     26  C   UNL     1      -3.578  10.299  15.629  0.00  0.00    +0.000 A 
ATOM     27  F   UNL     1      -4.167   9.952  14.478  0.00  0.00    +0.000 F 
ATOM     28  C   UNL     1      -2.336   9.766  15.952  0.00  0.00    +0.000 A 
ATOM     29  C   UNL     1      -1.722  10.109  17.161  0.00  0.00    +0.000 A 
ENDBRANCH  22  23
ENDBRANCH  17  18
ENDBRANCH  16  17
ENDBRANCH   6  16
TORSDOF 8
ENDMDL
MODEL 8
REMARK VINA RESULT:      -7.1      4.106      9.170
REMARK  Name = 
REMARK  9 active torsions:
REMARK  status: ('A' for Active; 'I' for Inactive)
REMARK    1  A    between atoms: C_1  and  C_2
REMARK    2  A    between atoms: C_2  and  O_3
REMARK    3  A    between atoms: O_3  and  C_4
REMARK    4  A    between atoms: C_4  and  C_6
REMARK    5  A    between atoms: C_6  and  C_7
REMARK    6  A    between atoms: C_12  and  C_14
REMARK    7  A    between atoms: C_14  and  S_15
REMARK    8  A    between atoms: S_15  and  C_16
REMARK    9  A    between atoms: N_20  and  C_21
REMARK                            x       y       z     vdW  Elec       q    Type
REMARK                         _______ _______ _______ _____ _____    ______ ____
ROOT
ATOM      1  C   UNL     1       0.698   9.655  19.539  0.00  0.00    +0.000 A 
ATOM      2  C   UNL     1       1.170  10.047  18.298  0.00  0.00    +0.000 A 
ATOM      3  S   UNL     1       2.312   8.902  17.720  0.00  0.00    +0.000 S 
ATOM      4  C   UNL     1       2.027   7.950  19.105  0.00  0.00    +0.000 A 
ATOM      5  N   UNL     1       2.737   6.784  19.149  0.00  0.00    +0.000 N 
ATOM      6  C   UNL     1       2.452   5.800  20.072  0.00  0.00    +0.000 C 
ATOM      7  O   UNL     1       1.525   5.802  20.879  0.00  0.00    +0.000 OA
ATOM      8  N   UNL     1       1.178   8.429  19.975  0.00  0.00    +0.000 NA
ATOM      9  H   UNL     1       3.388   6.626  18.393  0.00  0.00    +0.000 HD
ENDROOT
BRANCH   1  10
ATOM     10  C   UNL     1      -0.218  10.416  20.438  0.00  0.00    +0.000 C 
BRANCH  10  11
ATOM     11  C   UNL     1       0.496  10.784  21.715  0.00  0.00    +0.000 C 
ATOM     12  O   UNL     1       0.552  10.089  22.724  0.00  0.00    +0.000 OA
BRANCH  11  13
ATOM     13  O   UNL     1       1.074  12.013  21.586  0.00  0.00    +0.000 OA
BRANCH  13  15
ATOM     14  C   UNL     1       1.363  13.838  20.069  0.00  0.00    +0.000 C 
ATOM     15  C   UNL     1       0.354  12.941  20.765  0.00  0.00    +0.000 C 
ENDBRANCH  13  15
ENDBRANCH  11  13
ENDBRANCH  10  11
ENDBRANCH   1  10
BRANCH   6  16
ATOM     16  C   UNL     1       3.411   4.622  19.996  0.00  0.00    +0.000 C 
BRANCH  16  17
ATOM     17  S   UNL     1       4.024   4.406  18.305  0.00  0.00    +0.000 S 
BRANCH  17  18
ATOM     18  C   UNL     1       5.700   4.815  18.491  0.00  0.00    +0.000 A 
ATOM     19  N   UNL     1       6.274   5.124  19.634  0.00  0.00    +0.000 NA
ATOM     20  N   UNL     1       7.621   5.061  19.404  0.00  0.00    +0.000 NA
ATOM     21  N   UNL     1       7.877   4.708  18.150  0.00  0.00    +0.000 NA
ATOM     22  N   UNL     1       6.675   4.653  17.519  0.00  0.00    +0.000 N 
BRANCH  22  23
ATOM     23  C   UNL     1       6.604   4.514  16.108  0.00  0.00    +0.000 A 
ATOM     24  C   UNL     1       5.640   3.658  15.547  0.00  0.00    +0.000 A 
ATOM     25  C   UNL     1       5.582   3.481  14.161  0.00  0.00    +0.000 A 
ATOM     26  C   UNL     1       6.497   4.134  13.344  0.00  0.00    +0.000 A 
ATOM     27  F   UNL     1       6.461   3.937  12.020  0.00  0.00    +0.000 F 
ATOM     28  C   UNL     1       7.466   4.970  13.887  0.00  0.00    +0.000 A 
ATOM     29  C   UNL     1       7.523   5.165  15.270  0.00  0.00    +0.000 A 
ENDBRANCH  22  23
ENDBRANCH  17  18
ENDBRANCH  16  17
ENDBRANCH   6  16
TORSDOF 8
ENDMDL
MODEL 9
REMARK VINA RESULT:      -7.1      1.506      2.068
REMARK  Name = 
REMARK  9 active torsions:
REMARK  status: ('A' for Active; 'I' for Inactive)
REMARK    1  A    between atoms: C_1  and  C_2
REMARK    2  A    between atoms: C_2  and  O_3
REMARK    3  A    between atoms: O_3  and  C_4
REMARK    4  A    between atoms: C_4  and  C_6
REMARK    5  A    between atoms: C_6  and  C_7
REMARK    6  A    between atoms: C_12  and  C_14
REMARK    7  A    between atoms: C_14  and  S_15
REMARK    8  A    between atoms: S_15  and  C_16
REMARK    9  A    between atoms: N_20  and  C_21
REMARK                            x       y       z     vdW  Elec       q    Type
REMARK                         _______ _______ _______ _____ _____    ______ ____
ROOT
ATOM      1  C   UNL     1       3.488   3.706  19.154  0.00  0.00    +0.000 A 
ATOM      2  C   UNL     1       2.925   2.850  20.085  0.00  0.00    +0.000 A 
ATOM      3  S   UNL     1       2.026   3.751  21.238  0.00  0.00    +0.000 S 
ATOM      4  C   UNL     1       2.381   5.175  20.370  0.00  0.00    +0.000 A 
ATOM      5  N   UNL     1       1.833   6.311  20.894  0.00  0.00    +0.000 N 
ATOM      6  C   UNL     1       1.826   7.498  20.192  0.00  0.00    +0.000 C 
ATOM      7  O   UNL     1       2.216   7.668  19.039  0.00  0.00    +0.000 OA
ATOM      8  N   UNL     1       3.139   5.039  19.315  0.00  0.00    +0.000 NA
ATOM      9  H   UNL     1       1.318   6.205  21.756  0.00  0.00    +0.000 HD
ENDROOT
BRANCH   1  10
ATOM     10  C   UNL     1       4.432   3.350  18.054  0.00  0.00    +0.000 C 
BRANCH  10  11
ATOM     11  C   UNL     1       5.551   4.359  17.983  0.00  0.00    +0.000 C 
ATOM     12  O   UNL     1       6.488   4.437  18.770  0.00  0.00    +0.000 OA
BRANCH  11  13
ATOM     13  O   UNL     1       5.368   5.180  16.909  0.00  0.00    +0.000 OA
BRANCH  13  15
ATOM     14  C   UNL     1       6.155   3.992  14.989  0.00  0.00    +0.000 C 
ATOM     15  C   UNL     1       6.420   5.150  15.935  0.00  0.00    +0.000 C 
ENDBRANCH  13  15
ENDBRANCH  11  13
ENDBRANCH  10  11
ENDBRANCH   1  10
BRANCH   6  16
ATOM     16  C   UNL     1       1.236   8.652  20.988  0.00  0.00    +0.000 C 
BRANCH  16  17
ATOM     17  S   UNL     1       1.080  10.129  19.951  0.00  0.00    +0.000 S 
BRANCH  17  18
ATOM     18  C   UNL     1      -0.184  10.992  20.766  0.00  0.00    +0.000 A 
ATOM     19  N   UNL     1      -0.112  11.437  22.003  0.00  0.00    +0.000 NA
ATOM     20  N   UNL     1      -1.151  12.314  22.146  0.00  0.00    +0.000 NA
ATOM     21  N   UNL     1      -1.845  12.423  21.020  0.00  0.00    +0.000 NA
ATOM     22  N   UNL     1      -1.319  11.511  20.161  0.00  0.00    +0.000 N 
BRANCH  22  23
ATOM     23  C   UNL     1      -1.967  11.213  18.934  0.00  0.00    +0.000 A 
ATOM     24  C   UNL     1      -3.232  11.769  18.669  0.00  0.00    +0.000 A 
ATOM     25  C   UNL     1      -3.901  11.456  17.482  0.00  0.00    +0.000 A 
ATOM     26  C   UNL     1      -3.321  10.573  16.578  0.00  0.00    +0.000 A 
ATOM     27  F   UNL     1      -3.979  10.249  15.457  0.00  0.00    +0.000 F 
ATOM     28  C   UNL     1      -2.080  10.004  16.835  0.00  0.00    +0.000 A 
ATOM     29  C   UNL     1      -1.396  10.322  18.011  0.00  0.00    +0.000 A 
ENDBRANCH  22  23
ENDBRANCH  17  18
ENDBRANCH  16  17
ENDBRANCH   6  16
TORSDOF 8
ENDMDL
