MODEL 1
REMARK VINA RESULT:      -7.8      0.000      0.000
REMARK  Name = 
REMARK  8 active torsions:
REMARK  status: ('A' for Active; 'I' for Inactive)
REMARK    1  A    between atoms: C_1  and  C_2
REMARK    2  A    between atoms: C_2  and  N_3
REMARK    3  A    between atoms: N_3  and  C_4
REMARK    4  A    between atoms: N_3  and  C_6
REMARK    5  A    between atoms: C_4  and  C_5
REMARK    6  A    between atoms: C_6  and  C_7
REMARK    7  A    between atoms: C_7  and  N_8
REMARK    8  A    between atoms: C_9  and  C_11
REMARK                            x       y       z     vdW  Elec       q    Type
REMARK                         _______ _______ _______ _____ _____    ______ ____
ROOT
ATOM      1  C   UNL     1       6.590   5.453  17.380  0.00  0.00    +0.000 A 
ATOM      2  C   UNL     1       7.059   5.132  16.162  0.00  0.00    +0.000 A 
ATOM      3  C   UNL     1       6.300   4.316  15.254  0.00  0.00    +0.000 A 
ATOM      4  C   UNL     1       5.097   3.863  15.616  0.00  0.00    +0.000 A 
ATOM      5  N   UNL     1       4.539   4.161  16.854  0.00  0.00    +0.000 N 
ATOM      6  C   UNL     1       3.268   3.652  17.147  0.00  0.00    +0.000 A 
ATOM      7  O   UNL     1       2.607   2.939  16.391  0.00  0.00    +0.000 OA
ATOM      8  C   UNL     1       2.702   4.017  18.457  0.00  0.00    +0.000 A 
ATOM      9  C   UNL     1       1.419   3.608  18.836  0.00  0.00    +0.000 A 
ATOM     10  C   UNL     1       0.909   3.992  20.077  0.00  0.00    +0.000 A 
ATOM     11  C   UNL     1       1.684   4.772  20.934  0.00  0.00    +0.000 A 
ATOM     12  C   UNL     1       2.966   5.170  20.548  0.00  0.00    +0.000 A 
ATOM     13  C   UNL     1       3.480   4.799  19.304  0.00  0.00    +0.000 A 
ATOM     14  N   UNL     1       4.753   5.248  18.953  0.00  0.00    +0.000 NA
ATOM     15  C   UNL     1       5.232   4.947  17.782  0.00  0.00    +0.000 A 
ENDROOT
BRANCH   1  17
ATOM     16  N   UNL     1       7.717   7.565  17.811  0.00  0.00    +0.000 N 
ATOM     17  C   UNL     1       7.484   6.286  18.246  0.00  0.00    +0.000 C 
ATOM     18  O   UNL     1       7.960   5.849  19.291  0.00  0.00    +0.000 OA
ATOM     19  H   UNL     1       7.387   7.830  16.886  0.00  0.00    +0.000 HD
BRANCH  16  20
ATOM     20  C   UNL     1       8.532   8.505  18.550  0.00  0.00    +0.000 C 
BRANCH  20  21
ATOM     21  C   UNL     1       8.564   9.914  17.924  0.00  0.00    +0.000 C 
BRANCH  21  22
ATOM     22  N   UNL     1       9.491  10.886  18.558  0.00  0.00    +0.000 NA
BRANCH  22  24
ATOM     23  C   UNL     1      10.452  12.896  17.365  0.00  0.00    +0.000 C 
ATOM     24  C   UNL     1       9.262  12.255  18.073  0.00  0.00    +0.000 C 
ENDBRANCH  22  24
BRANCH  22  25
ATOM     25  C   UNL     1       9.463  10.757  20.028  0.00  0.00    +0.000 C 
ATOM     26  C   UNL     1      10.157  11.863  20.823  0.00  0.00    +0.000 C 
ENDBRANCH  22  25
ENDBRANCH  21  22
ENDBRANCH  20  21
ENDBRANCH  16  20
ENDBRANCH   1  17
TORSDOF 6
ENDMDL
MODEL 2
REMARK VINA RESULT:      -7.8      0.304      1.253
REMARK  Name = 
REMARK  8 active torsions:
REMARK  status: ('A' for Active; 'I' for Inactive)
REMARK    1  A    between atoms: C_1  and  C_2
REMARK    2  A    between atoms: C_2  and  N_3
REMARK    3  A    between atoms: N_3  and  C_4
REMARK    4  A    between atoms: N_3  and  C_6
REMARK    5  A    between atoms: C_4  and  C_5
REMARK    6  A    between atoms: C_6  and  C_7
REMARK    7  A    between atoms: C_7  and  N_8
REMARK    8  A    between atoms: C_9  and  C_11
REMARK                            x       y       z     vdW  Elec       q    Type
REMARK                         _______ _______ _______ _____ _____    ______ ____
ROOT
ATOM      1  C   UNL     1       6.571   5.544  17.360  0.00  0.00    +0.000 A 
ATOM      2  C   UNL     1       7.043   5.202  16.148  0.00  0.00    +0.000 A 
ATOM      3  C   UNL     1       6.290   4.361  15.258  0.00  0.00    +0.000 A 
ATOM      4  C   UNL     1       5.091   3.906  15.629  0.00  0.00    +0.000 A 
ATOM      5  N   UNL     1       4.531   4.225  16.862  0.00  0.00    +0.000 N 
ATOM      6  C   UNL     1       3.264   3.712  17.166  0.00  0.00    +0.000 A 
ATOM      7  O   UNL     1       2.609   2.978  16.426  0.00  0.00    +0.000 OA
ATOM      8  C   UNL     1       2.697   4.099  18.469  0.00  0.00    +0.000 A 
ATOM      9  C   UNL     1       1.416   3.686  18.858  0.00  0.00    +0.000 A 
ATOM     10  C   UNL     1       0.905   4.092  20.091  0.00  0.00    +0.000 A 
ATOM     11  C   UNL     1       1.674   4.896  20.931  0.00  0.00    +0.000 A 
ATOM     12  C   UNL     1       2.952   5.296  20.536  0.00  0.00    +0.000 A 
ATOM     13  C   UNL     1       3.468   4.904  19.299  0.00  0.00    +0.000 A 
ATOM     14  N   UNL     1       4.737   5.356  18.938  0.00  0.00    +0.000 NA
ATOM     15  C   UNL     1       5.219   5.035  17.773  0.00  0.00    +0.000 A 
ENDROOT
BRANCH   1  17
ATOM     16  N   UNL     1       7.656   7.683  17.762  0.00  0.00    +0.000 N 
ATOM     17  C   UNL     1       7.459   6.402  18.208  0.00  0.00    +0.000 C 
ATOM     18  O   UNL     1       7.961   5.981  19.247  0.00  0.00    +0.000 OA
ATOM     19  H   UNL     1       7.307   7.936  16.841  0.00  0.00    +0.000 HD
BRANCH  16  20
ATOM     20  C   UNL     1       8.461   8.645  18.484  0.00  0.00    +0.000 C 
BRANCH  20  21
ATOM     21  C   UNL     1       8.440  10.055  17.858  0.00  0.00    +0.000 C 
BRANCH  21  22
ATOM     22  N   UNL     1       9.221  11.095  18.574  0.00  0.00    +0.000 NA
BRANCH  22  24
ATOM     23  C   UNL     1      10.092  11.794  20.841  0.00  0.00    +0.000 C 
ATOM     24  C   UNL     1       9.550  10.683  19.947  0.00  0.00    +0.000 C 
ENDBRANCH  22  24
BRANCH  22  25
ATOM     25  C   UNL     1      10.390  11.517  17.778  0.00  0.00    +0.000 C 
ATOM     26  C   UNL     1      10.478  13.004  17.431  0.00  0.00    +0.000 C 
ENDBRANCH  22  25
ENDBRANCH  21  22
ENDBRANCH  20  21
ENDBRANCH  16  20
ENDBRANCH   1  17
TORSDOF 6
ENDMDL
MODEL 3
REMARK VINA RESULT:      -7.7      4.353      6.954
REMARK  Name = 
REMARK  8 active torsions:
REMARK  status: ('A' for Active; 'I' for Inactive)
REMARK    1  A    between atoms: C_1  and  C_2
REMARK    2  A    between atoms: C_2  and  N_3
REMARK    3  A    between atoms: N_3  and  C_4
REMARK    4  A    between atoms: N_3  and  C_6
REMARK    5  A    between atoms: C_4  and  C_5
REMARK    6  A    between atoms: C_6  and  C_7
REMARK    7  A    between atoms: C_7  and  N_8
REMARK    8  A    between atoms: C_9  and  C_11
REMARK                            x       y       z     vdW  Elec       q    Type
REMARK                         _______ _______ _______ _____ _____    ______ ____
ROOT
ATOM      1  C   UNL     1       2.180   6.069  19.768  0.00  0.00    +0.000 A 
ATOM      2  C   UNL     1       1.537   5.327  20.686  0.00  0.00    +0.000 A 
ATOM      3  C   UNL     1       1.633   3.892  20.696  0.00  0.00    +0.000 A 
ATOM      4  C   UNL     1       2.377   3.270  19.778  0.00  0.00    +0.000 A 
ATOM      5  N   UNL     1       3.080   3.969  18.802  0.00  0.00    +0.000 N 
ATOM      6  C   UNL     1       3.844   3.236  17.885  0.00  0.00    +0.000 A 
ATOM      7  O   UNL     1       3.927   2.008  17.865  0.00  0.00    +0.000 OA
ATOM      8  C   UNL     1       4.595   4.018  16.888  0.00  0.00    +0.000 A 
ATOM      9  C   UNL     1       5.431   3.395  15.954  0.00  0.00    +0.000 A 
ATOM     10  C   UNL     1       6.144   4.171  15.039  0.00  0.00    +0.000 A 
ATOM     11  C   UNL     1       6.013   5.559  15.054  0.00  0.00    +0.000 A 
ATOM     12  C   UNL     1       5.171   6.169  15.987  0.00  0.00    +0.000 A 
ATOM     13  C   UNL     1       4.461   5.401  16.913  0.00  0.00    +0.000 A 
ATOM     14  N   UNL     1       3.659   6.061  17.843  0.00  0.00    +0.000 NA
ATOM     15  C   UNL     1       3.022   5.366  18.739  0.00  0.00    +0.000 A 
ENDROOT
BRANCH   1  17
ATOM     16  N   UNL     1       1.955   8.214  18.645  0.00  0.00    +0.000 N 
ATOM     17  C   UNL     1       1.982   7.551  19.844  0.00  0.00    +0.000 C 
ATOM     18  O   UNL     1       1.834   8.128  20.919  0.00  0.00    +0.000 OA
ATOM     19  H   UNL     1       2.194   7.700  17.801  0.00  0.00    +0.000 HD
BRANCH  16  20
ATOM     20  C   UNL     1       1.740   9.642  18.547  0.00  0.00    +0.000 C 
BRANCH  20  21
ATOM     21  C   UNL     1       0.288  10.020  18.188  0.00  0.00    +0.000 C 
BRANCH  21  22
ATOM     22  N   UNL     1      -0.582  10.410  19.326  0.00  0.00    +0.000 NA
BRANCH  22  24
ATOM     23  C   UNL     1      -0.372  11.033  21.767  0.00  0.00    +0.000 C 
ATOM     24  C   UNL     1       0.158  11.173  20.343  0.00  0.00    +0.000 C 
ENDBRANCH  22  24
BRANCH  22  25
ATOM     25  C   UNL     1      -1.806  11.081  18.847  0.00  0.00    +0.000 C 
ATOM     26  C   UNL     1      -2.566  10.387  17.716  0.00  0.00    +0.000 C 
ENDBRANCH  22  25
ENDBRANCH  21  22
ENDBRANCH  20  21
ENDBRANCH  16  20
ENDBRANCH   1  17
TORSDOF 6
ENDMDL
MODEL 4
REMARK VINA RESULT:      -7.6      4.357      6.891
REMARK  Name = 
REMARK  8 active torsions:
REMARK  status: ('A' for Active; 'I' for Inactive)
REMARK    1  A    between atoms: C_1  and  C_2
REMARK    2  A    between atoms: C_2  and  N_3
REMARK    3  A    between atoms: N_3  and  C_4
REMARK    4  A    between atoms: N_3  and  C_6
REMARK    5  A    between atoms: C_4  and  C_5
REMARK    6  A    between atoms: C_6  and  C_7
REMARK    7  A    between atoms: C_7  and  N_8
REMARK    8  A    between atoms: C_9  and  C_11
REMARK                            x       y       z     vdW  Elec       q    Type
REMARK                         _______ _______ _______ _____ _____    ______ ____
ROOT
ATOM      1  C   UNL     1       2.177   6.081  19.796  0.00  0.00    +0.000 A 
ATOM      2  C   UNL     1       1.548   5.341  20.726  0.00  0.00    +0.000 A 
ATOM      3  C   UNL     1       1.661   3.908  20.749  0.00  0.00    +0.000 A 
ATOM      4  C   UNL     1       2.408   3.285  19.834  0.00  0.00    +0.000 A 
ATOM      5  N   UNL     1       3.097   3.982  18.847  0.00  0.00    +0.000 N 
ATOM      6  C   UNL     1       3.865   3.249  17.934  0.00  0.00    +0.000 A 
ATOM      7  O   UNL     1       3.963   2.022  17.926  0.00  0.00    +0.000 OA
ATOM      8  C   UNL     1       4.602   4.029  16.925  0.00  0.00    +0.000 A 
ATOM      9  C   UNL     1       5.440   3.406  15.993  0.00  0.00    +0.000 A 
ATOM     10  C   UNL     1       6.139   4.181  15.066  0.00  0.00    +0.000 A 
ATOM     11  C   UNL     1       5.991   5.567  15.068  0.00  0.00    +0.000 A 
ATOM     12  C   UNL     1       5.147   6.177  15.999  0.00  0.00    +0.000 A 
ATOM     13  C   UNL     1       4.451   5.411  16.936  0.00  0.00    +0.000 A 
ATOM     14  N   UNL     1       3.646   6.070  17.864  0.00  0.00    +0.000 NA
ATOM     15  C   UNL     1       3.022   5.378  18.770  0.00  0.00    +0.000 A 
ENDROOT
BRANCH   1  17
ATOM     16  N   UNL     1       1.913   8.210  18.652  0.00  0.00    +0.000 N 
ATOM     17  C   UNL     1       1.962   7.562  19.858  0.00  0.00    +0.000 C 
ATOM     18  O   UNL     1       1.819   8.148  20.928  0.00  0.00    +0.000 OA
ATOM     19  H   UNL     1       2.149   7.690  17.811  0.00  0.00    +0.000 HD
BRANCH  16  20
ATOM     20  C   UNL     1       1.679   9.635  18.541  0.00  0.00    +0.000 C 
BRANCH  20  21
ATOM     21  C   UNL     1       0.251   9.987  18.076  0.00  0.00    +0.000 C 
BRANCH  21  22
ATOM     22  N   UNL     1      -0.452  11.027  18.870  0.00  0.00    +0.000 NA
BRANCH  22  24
ATOM     23  C   UNL     1      -2.621  10.290  17.803  0.00  0.00    +0.000 C 
ATOM     24  C   UNL     1      -1.714  11.438  18.237  0.00  0.00    +0.000 C 
ENDBRANCH  22  24
BRANCH  22  25
ATOM     25  C   UNL     1      -0.595  10.607  20.278  0.00  0.00    +0.000 C 
ATOM     26  C   UNL     1      -0.319  11.672  21.339  0.00  0.00    +0.000 C 
ENDBRANCH  22  25
ENDBRANCH  21  22
ENDBRANCH  20  21
ENDBRANCH  16  20
ENDBRANCH   1  17
TORSDOF 6
ENDMDL
MODEL 5
REMARK VINA RESULT:      -7.5      4.457      7.063
REMARK  Name = 
REMARK  8 active torsions:
REMARK  status: ('A' for Active; 'I' for Inactive)
REMARK    1  A    between atoms: C_1  and  C_2
REMARK    2  A    between atoms: C_2  and  N_3
REMARK    3  A    between atoms: N_3  and  C_4
REMARK    4  A    between atoms: N_3  and  C_6
REMARK    5  A    between atoms: C_4  and  C_5
REMARK    6  A    between atoms: C_6  and  C_7
REMARK    7  A    between atoms: C_7  and  N_8
REMARK    8  A    between atoms: C_9  and  C_11
REMARK                            x       y       z     vdW  Elec       q    Type
REMARK                         _______ _______ _______ _____ _____    ______ ____
ROOT
ATOM      1  C   UNL     1       2.075   6.136  19.935  0.00  0.00    +0.000 A 
ATOM      2  C   UNL     1       1.455   5.341  20.824  0.00  0.00    +0.000 A 
ATOM      3  C   UNL     1       1.584   3.910  20.773  0.00  0.00    +0.000 A 
ATOM      4  C   UNL     1       2.338   3.345  19.826  0.00  0.00    +0.000 A 
ATOM      5  N   UNL     1       3.018   4.101  18.877  0.00  0.00    +0.000 N 
ATOM      6  C   UNL     1       3.794   3.426  17.927  0.00  0.00    +0.000 A 
ATOM      7  O   UNL     1       3.906   2.202  17.854  0.00  0.00    +0.000 OA
ATOM      8  C   UNL     1       4.521   4.266  16.960  0.00  0.00    +0.000 A 
ATOM      9  C   UNL     1       5.367   3.704  15.996  0.00  0.00    +0.000 A 
ATOM     10  C   UNL     1       6.055   4.534  15.112  0.00  0.00    +0.000 A 
ATOM     11  C   UNL     1       5.891   5.917  15.186  0.00  0.00    +0.000 A 
ATOM     12  C   UNL     1       5.041   6.467  16.148  0.00  0.00    +0.000 A 
ATOM     13  C   UNL     1       4.354   5.644  17.044  0.00  0.00    +0.000 A 
ATOM     14  N   UNL     1       3.542   6.245  18.005  0.00  0.00    +0.000 NA
ATOM     15  C   UNL     1       2.927   5.498  18.874  0.00  0.00    +0.000 A 
ENDROOT
BRANCH   1  17
ATOM     16  N   UNL     1       1.637   8.296  18.907  0.00  0.00    +0.000 N 
ATOM     17  C   UNL     1       1.842   7.609  20.075  0.00  0.00    +0.000 C 
ATOM     18  O   UNL     1       1.818   8.157  21.174  0.00  0.00    +0.000 OA
ATOM     19  H   UNL     1       1.779   7.809  18.026  0.00  0.00    +0.000 HD
BRANCH  16  20
ATOM     20  C   UNL     1       1.366   9.718  18.875  0.00  0.00    +0.000 C 
BRANCH  20  21
ATOM     21  C   UNL     1      -0.092  10.072  19.233  0.00  0.00    +0.000 C 
BRANCH  21  22
ATOM     22  N   UNL     1      -0.848  10.830  18.204  0.00  0.00    +0.000 NA
BRANCH  22  24
ATOM     23  C   UNL     1      -2.414  10.463  16.254  0.00  0.00    +0.000 C 
ATOM     24  C   UNL     1      -1.955  10.039  17.647  0.00  0.00    +0.000 C 
ENDBRANCH  22  24
BRANCH  22  25
ATOM     25  C   UNL     1      -1.254  12.153  18.717  0.00  0.00    +0.000 C 
ATOM     26  C   UNL     1      -0.415  13.348  18.264  0.00  0.00    +0.000 C 
ENDBRANCH  22  25
ENDBRANCH  21  22
ENDBRANCH  20  21
ENDBRANCH  16  20
ENDBRANCH   1  17
TORSDOF 6
ENDMDL
MODEL 6
REMARK VINA RESULT:      -7.5      4.337      6.914
REMARK  Name = 
REMARK  8 active torsions:
REMARK  status: ('A' for Active; 'I' for Inactive)
REMARK    1  A    between atoms: C_1  and  C_2
REMARK    2  A    between atoms: C_2  and  N_3
REMARK    3  A    between atoms: N_3  and  C_4
REMARK    4  A    between atoms: N_3  and  C_6
REMARK    5  A    between atoms: C_4  and  C_5
REMARK    6  A    between atoms: C_6  and  C_7
REMARK    7  A    between atoms: C_7  and  N_8
REMARK    8  A    between atoms: C_9  and  C_11
REMARK                            x       y       z     vdW  Elec       q    Type
REMARK                         _______ _______ _______ _____ _____    ______ ____
ROOT
ATOM      1  C   UNL     1       2.120   5.898  19.890  0.00  0.00    +0.000 A 
ATOM      2  C   UNL     1       1.471   5.104  20.759  0.00  0.00    +0.000 A 
ATOM      3  C   UNL     1       1.556   3.671  20.677  0.00  0.00    +0.000 A 
ATOM      4  C   UNL     1       2.296   3.103  19.721  0.00  0.00    +0.000 A 
ATOM      5  N   UNL     1       3.005   3.857  18.793  0.00  0.00    +0.000 N 
ATOM      6  C   UNL     1       3.764   3.180  17.831  0.00  0.00    +0.000 A 
ATOM      7  O   UNL     1       3.839   1.955  17.732  0.00  0.00    +0.000 OA
ATOM      8  C   UNL     1       4.522   4.017  16.886  0.00  0.00    +0.000 A 
ATOM      9  C   UNL     1       5.355   3.450  15.914  0.00  0.00    +0.000 A 
ATOM     10  C   UNL     1       6.074   4.277  15.051  0.00  0.00    +0.000 A 
ATOM     11  C   UNL     1       5.952   5.662  15.155  0.00  0.00    +0.000 A 
ATOM     12  C   UNL     1       5.115   6.218  16.125  0.00  0.00    +0.000 A 
ATOM     13  C   UNL     1       4.398   5.397  16.999  0.00  0.00    +0.000 A 
ATOM     14  N   UNL     1       3.600   6.002  17.970  0.00  0.00    +0.000 NA
ATOM     15  C   UNL     1       2.958   5.256  18.819  0.00  0.00    +0.000 A 
ENDROOT
BRANCH   1  17
ATOM     16  N   UNL     1       1.508   7.784  21.298  0.00  0.00    +0.000 N 
ATOM     17  C   UNL     1       1.932   7.374  20.061  0.00  0.00    +0.000 C 
ATOM     18  O   UNL     1       2.165   8.164  19.149  0.00  0.00    +0.000 OA
ATOM     19  H   UNL     1       1.227   7.078  21.974  0.00  0.00    +0.000 HD
BRANCH  16  20
ATOM     20  C   UNL     1       1.310   9.178  21.633  0.00  0.00    +0.000 C 
BRANCH  20  21
ATOM     21  C   UNL     1      -0.076   9.717  21.222  0.00  0.00    +0.000 C 
BRANCH  21  22
ATOM     22  N   UNL     1      -0.136  11.159  20.875  0.00  0.00    +0.000 NA
BRANCH  22  24
ATOM     23  C   UNL     1      -0.692  10.268  18.576  0.00  0.00    +0.000 C 
ATOM     24  C   UNL     1      -0.070  11.375  19.422  0.00  0.00    +0.000 C 
ENDBRANCH  22  24
BRANCH  22  25
ATOM     25  C   UNL     1      -1.290  11.809  21.526  0.00  0.00    +0.000 C 
ATOM     26  C   UNL     1      -1.453  11.565  23.027  0.00  0.00    +0.000 C 
ENDBRANCH  22  25
ENDBRANCH  21  22
ENDBRANCH  20  21
ENDBRANCH  16  20
ENDBRANCH   1  17
TORSDOF 6
ENDMDL
MODEL 7
REMARK VINA RESULT:      -7.5      4.333      7.070
REMARK  Name = 
REMARK  8 active torsions:
REMARK  status: ('A' for Active; 'I' for Inactive)
REMARK    1  A    between atoms: C_1  and  C_2
REMARK    2  A    between atoms: C_2  and  N_3
REMARK    3  A    between atoms: N_3  and  C_4
REMARK    4  A    between atoms: N_3  and  C_6
REMARK    5  A    between atoms: C_4  and  C_5
REMARK    6  A    between atoms: C_6  and  C_7
REMARK    7  A    between atoms: C_7  and  N_8
REMARK    8  A    between atoms: C_9  and  C_11
REMARK                            x       y       z     vdW  Elec       q    Type
REMARK                         _______ _______ _______ _____ _____    ______ ____
ROOT
ATOM      1  C   UNL     1       2.141   5.835  19.911  0.00  0.00    +0.000 A 
ATOM      2  C   UNL     1       1.514   5.022  20.778  0.00  0.00    +0.000 A 
ATOM      3  C   UNL     1       1.624   3.592  20.684  0.00  0.00    +0.000 A 
ATOM      4  C   UNL     1       2.368   3.045  19.719  0.00  0.00    +0.000 A 
ATOM      5  N   UNL     1       3.057   3.820  18.791  0.00  0.00    +0.000 N 
ATOM      6  C   UNL     1       3.821   3.163  17.819  0.00  0.00    +0.000 A 
ATOM      7  O   UNL     1       3.918   1.941  17.711  0.00  0.00    +0.000 OA
ATOM      8  C   UNL     1       4.557   4.022  16.876  0.00  0.00    +0.000 A 
ATOM      9  C   UNL     1       5.393   3.477  15.893  0.00  0.00    +0.000 A 
ATOM     10  C   UNL     1       6.090   4.325  15.032  0.00  0.00    +0.000 A 
ATOM     11  C   UNL     1       5.944   5.706  15.147  0.00  0.00    +0.000 A 
ATOM     12  C   UNL     1       5.102   6.239  16.127  0.00  0.00    +0.000 A 
ATOM     13  C   UNL     1       4.408   5.399  17.000  0.00  0.00    +0.000 A 
ATOM     14  N   UNL     1       3.605   5.981  17.981  0.00  0.00    +0.000 NA
ATOM     15  C   UNL     1       2.983   5.217  18.829  0.00  0.00    +0.000 A 
ENDROOT
BRANCH   1  17
ATOM     16  N   UNL     1       1.593   7.708  21.361  0.00  0.00    +0.000 N 
ATOM     17  C   UNL     1       1.927   7.306  20.094  0.00  0.00    +0.000 C 
ATOM     18  O   UNL     1       2.063   8.098  19.165  0.00  0.00    +0.000 OA
ATOM     19  H   UNL     1       1.387   6.997  22.058  0.00  0.00    +0.000 HD
BRANCH  16  20
ATOM     20  C   UNL     1       1.385   9.098  21.709  0.00  0.00    +0.000 C 
BRANCH  20  21
ATOM     21  C   UNL     1      -0.081   9.429  22.059  0.00  0.00    +0.000 C 
BRANCH  21  22
ATOM     22  N   UNL     1      -0.724  10.483  21.233  0.00  0.00    +0.000 NA
BRANCH  22  24
ATOM     23  C   UNL     1      -1.269  12.261  22.944  0.00  0.00    +0.000 C 
ATOM     24  C   UNL     1      -0.432  11.831  21.743  0.00  0.00    +0.000 C 
ENDBRANCH  22  24
BRANCH  22  25
ATOM     25  C   UNL     1      -0.403  10.300  19.804  0.00  0.00    +0.000 C 
ATOM     26  C   UNL     1      -1.528  10.587  18.809  0.00  0.00    +0.000 C 
ENDBRANCH  22  25
ENDBRANCH  21  22
ENDBRANCH  20  21
ENDBRANCH  16  20
ENDBRANCH   1  17
TORSDOF 6
ENDMDL
MODEL 8
REMARK VINA RESULT:      -7.4      4.380      6.514
REMARK  Name = 
REMARK  8 active torsions:
REMARK  status: ('A' for Active; 'I' for Inactive)
REMARK    1  A    between atoms: C_1  and  C_2
REMARK    2  A    between atoms: C_2  and  N_3
REMARK    3  A    between atoms: N_3  and  C_4
REMARK    4  A    between atoms: N_3  and  C_6
REMARK    5  A    between atoms: C_4  and  C_5
REMARK    6  A    between atoms: C_6  and  C_7
REMARK    7  A    between atoms: C_7  and  N_8
REMARK    8  A    between atoms: C_9  and  C_11
REMARK                            x       y       z     vdW  Elec       q    Type
REMARK                         _______ _______ _______ _____ _____    ______ ____
ROOT
ATOM      1  C   UNL     1       2.179   6.068  19.644  0.00  0.00    +0.000 A 
ATOM      2  C   UNL     1       1.513   5.350  20.565  0.00  0.00    +0.000 A 
ATOM      3  C   UNL     1       1.589   3.914  20.600  0.00  0.00    +0.000 A 
ATOM      4  C   UNL     1       2.339   3.267  19.704  0.00  0.00    +0.000 A 
ATOM      5  N   UNL     1       3.065   3.940  18.727  0.00  0.00    +0.000 N 
ATOM      6  C   UNL     1       3.833   3.183  17.834  0.00  0.00    +0.000 A 
ATOM      7  O   UNL     1       3.900   1.953  17.836  0.00  0.00    +0.000 OA
ATOM      8  C   UNL     1       4.609   3.937  16.836  0.00  0.00    +0.000 A 
ATOM      9  C   UNL     1       5.450   3.288  15.924  0.00  0.00    +0.000 A 
ATOM     10  C   UNL     1       6.186   4.039  15.007  0.00  0.00    +0.000 A 
ATOM     11  C   UNL     1       6.073   5.428  14.997  0.00  0.00    +0.000 A 
ATOM     12  C   UNL     1       5.226   6.065  15.907  0.00  0.00    +0.000 A 
ATOM     13  C   UNL     1       4.492   5.322  16.835  0.00  0.00    +0.000 A 
ATOM     14  N   UNL     1       3.685   6.008  17.742  0.00  0.00    +0.000 NA
ATOM     15  C   UNL     1       3.026   5.337  18.640  0.00  0.00    +0.000 A 
ENDROOT
BRANCH   1  17
ATOM     16  N   UNL     1       1.983   8.194  18.481  0.00  0.00    +0.000 N 
ATOM     17  C   UNL     1       1.999   7.554  19.693  0.00  0.00    +0.000 C 
ATOM     18  O   UNL     1       1.855   8.151  20.756  0.00  0.00    +0.000 OA
ATOM     19  H   UNL     1       2.218   7.662  17.647  0.00  0.00    +0.000 HD
BRANCH  16  20
ATOM     20  C   UNL     1       1.786   9.623  18.357  0.00  0.00    +0.000 C 
BRANCH  20  21
ATOM     21  C   UNL     1       0.301  10.040  18.362  0.00  0.00    +0.000 C 
BRANCH  21  22
ATOM     22  N   UNL     1       0.008  11.390  18.906  0.00  0.00    +0.000 NA
BRANCH  22  24
ATOM     23  C   UNL     1      -0.350  10.921  21.364  0.00  0.00    +0.000 C 
ATOM     24  C   UNL     1      -0.948  11.334  20.023  0.00  0.00    +0.000 C 
ENDBRANCH  22  24
BRANCH  22  25
ATOM     25  C   UNL     1       1.256  12.113  19.222  0.00  0.00    +0.000 C 
ATOM     26  C   UNL     1       1.563  13.347  18.372  0.00  0.00    +0.000 C 
ENDBRANCH  22  25
ENDBRANCH  21  22
ENDBRANCH  20  21
ENDBRANCH  16  20
ENDBRANCH   1  17
TORSDOF 6
ENDMDL
MODEL 9
REMARK VINA RESULT:      -7.1      4.274      6.345
REMARK  Name = 
REMARK  8 active torsions:
REMARK  status: ('A' for Active; 'I' for Inactive)
REMARK    1  A    between atoms: C_1  and  C_2
REMARK    2  A    between atoms: C_2  and  N_3
REMARK    3  A    between atoms: N_3  and  C_4
REMARK    4  A    between atoms: N_3  and  C_6
REMARK    5  A    between atoms: C_4  and  C_5
REMARK    6  A    between atoms: C_6  and  C_7
REMARK    7  A    between atoms: C_7  and  N_8
REMARK    8  A    between atoms: C_9  and  C_11
REMARK                            x       y       z     vdW  Elec       q    Type
REMARK                         _______ _______ _______ _____ _____    ______ ____
ROOT
ATOM      1  C   UNL     1       4.253   6.523  17.240  0.00  0.00    +0.000 A 
ATOM      2  C   UNL     1       3.854   7.784  17.002  0.00  0.00    +0.000 A 
ATOM      3  C   UNL     1       2.844   8.419  17.806  0.00  0.00    +0.000 A 
ATOM      4  C   UNL     1       2.286   7.751  18.818  0.00  0.00    +0.000 A 
ATOM      5  N   UNL     1       2.654   6.448  19.134  0.00  0.00    +0.000 N 
ATOM      6  C   UNL     1       2.023   5.827  20.220  0.00  0.00    +0.000 A 
ATOM      7  O   UNL     1       1.146   6.345  20.911  0.00  0.00    +0.000 OA
ATOM      8  C   UNL     1       2.465   4.458  20.537  0.00  0.00    +0.000 A 
ATOM      9  C   UNL     1       1.941   3.758  21.630  0.00  0.00    +0.000 A 
ATOM     10  C   UNL     1       2.400   2.471  21.912  0.00  0.00    +0.000 A 
ATOM     11  C   UNL     1       3.370   1.887  21.099  0.00  0.00    +0.000 A 
ATOM     12  C   UNL     1       3.882   2.592  20.007  0.00  0.00    +0.000 A 
ATOM     13  C   UNL     1       3.435   3.884  19.723  0.00  0.00    +0.000 A 
ATOM     14  N   UNL     1       4.000   4.557  18.640  0.00  0.00    +0.000 NA
ATOM     15  C   UNL     1       3.627   5.776  18.385  0.00  0.00    +0.000 A 
ENDROOT
BRANCH   1  17
ATOM     16  N   UNL     1       5.128   4.650  15.961  0.00  0.00    +0.000 N 
ATOM     17  C   UNL     1       5.292   5.963  16.317  0.00  0.00    +0.000 C 
ATOM     18  O   UNL     1       6.219   6.650  15.896  0.00  0.00    +0.000 OA
ATOM     19  H   UNL     1       4.408   4.105  16.429  0.00  0.00    +0.000 HD
BRANCH  16  20
ATOM     20  C   UNL     1       6.028   3.971  15.052  0.00  0.00    +0.000 C 
BRANCH  20  21
ATOM     21  C   UNL     1       5.580   4.045  13.577  0.00  0.00    +0.000 C 
BRANCH  21  22
ATOM     22  N   UNL     1       6.489   3.409  12.590  0.00  0.00    +0.000 NA
BRANCH  22  24
ATOM     23  C   UNL     1       6.686   1.422  11.041  0.00  0.00    +0.000 C 
ATOM     24  C   UNL     1       5.785   2.426  11.752  0.00  0.00    +0.000 C 
ENDBRANCH  22  24
BRANCH  22  25
ATOM     25  C   UNL     1       7.228   4.430  11.822  0.00  0.00    +0.000 C 
ATOM     26  C   UNL     1       8.047   5.434  12.635  0.00  0.00    +0.000 C 
ENDBRANCH  22  25
ENDBRANCH  21  22
ENDBRANCH  20  21
ENDBRANCH  16  20
ENDBRANCH   1  17
TORSDOF 6
ENDMDL
