MODEL 1
REMARK VINA RESULT:      -7.9      0.000      0.000
REMARK  Name = 
REMARK  6 active torsions:
REMARK  status: ('A' for Active; 'I' for Inactive)
REMARK    1  A    between atoms: C_1  and  C_2
REMARK    2  A    between atoms: C_6  and  C_7
REMARK    3  A    between atoms: N_9  and  C_10
REMARK    4  A    between atoms: C_16  and  C_17
REMARK    5  A    between atoms: N_19  and  C_20
REMARK    6  A    between atoms: C_26  and  C_27
REMARK                            x       y       z     vdW  Elec       q    Type
REMARK                         _______ _______ _______ _____ _____    ______ ____
ROOT
ATOM      1  C   UNL     1       0.981  12.541  19.263  0.00  0.00    +0.000 C 
ATOM      2  C   UNL     1       1.762  11.774  18.173  0.00  0.00    +0.000 C 
ATOM      3  O   UNL     1       2.509  12.273  17.345  0.00  0.00    +0.000 OA
ATOM      4  N   UNL     1       1.730  10.353  18.184  0.00  0.00    +0.000 N 
ATOM      5  C   UNL     1       1.209   9.687  19.271  0.00  0.00    +0.000 A 
ATOM      6  C   UNL     1       0.310  10.281  20.133  0.00  0.00    +0.000 A 
ATOM      7  C   UNL     1       0.032   9.251  21.075  0.00  0.00    +0.000 A 
ATOM      8  C   UNL     1      -0.791   9.242  22.313  0.00  0.00    +0.000 C 
ATOM      9  N   UNL     1       0.648   8.102  20.747  0.00  0.00    +0.000 NA
ATOM     10  N   UNL     1       1.442   8.403  19.696  0.00  0.00    +0.000 N 
ATOM     11  C   UNL     1      -0.178  11.662  19.817  0.00  0.00    +0.000 C 
ATOM     12  H   UNL     1       2.187   9.870  17.420  0.00  0.00    +0.000 HD
ENDROOT
BRANCH  11  13
ATOM     13  C   UNL     1      -0.958  12.269  20.967  0.00  0.00    +0.000 A 
ATOM     14  C   UNL     1      -0.237  12.855  22.033  0.00  0.00    +0.000 A 
ATOM     15  C   UNL     1      -0.883  13.321  23.181  0.00  0.00    +0.000 A 
ATOM     16  C   UNL     1      -2.261  13.199  23.286  0.00  0.00    +0.000 A 
ATOM     17  F   UNL     1      -2.875  13.614  24.402  0.00  0.00    +0.000 F 
ATOM     18  C   UNL     1      -2.990  12.639  22.246  0.00  0.00    +0.000 A 
ATOM     19  F   UNL     1      -4.318  12.501  22.355  0.00  0.00    +0.000 F 
ATOM     20  C   UNL     1      -2.356  12.184  21.086  0.00  0.00    +0.000 A 
ENDBRANCH  11  13
BRANCH  10  21
ATOM     21  C   UNL     1       2.443   7.510  19.243  0.00  0.00    +0.000 A 
ATOM     22  C   UNL     1       3.051   7.734  18.002  0.00  0.00    +0.000 A 
ATOM     23  C   UNL     1       4.014   6.838  17.534  0.00  0.00    +0.000 A 
ATOM     24  C   UNL     1       4.352   5.715  18.282  0.00  0.00    +0.000 A 
ATOM     25  C   UNL     1       3.740   5.478  19.511  0.00  0.00    +0.000 A 
ATOM     26  C   UNL     1       2.786   6.374  19.995  0.00  0.00    +0.000 A 
ENDBRANCH  10  21
BRANCH   1  29
ATOM     27  C   UNL     1       1.073  14.978  19.207  0.00  0.00    +0.000 C 
ATOM     28  O   UNL     1       1.877  14.972  20.136  0.00  0.00    +0.000 OA
ATOM     29  N   UNL     1       0.531  13.815  18.702  0.00  0.00    +0.000 N 
ATOM     30  H   UNL     1       0.021  13.836  17.824  0.00  0.00    +0.000 HD
BRANCH  27  36
ATOM     31  C   UNL     1      -2.304  18.575  18.298  0.00  0.00    +0.000 C 
ATOM     32  C   UNL     1      -0.938  17.982  18.108  0.00  0.00    +0.000 A 
ATOM     33  C   UNL     1       0.024  18.630  17.322  0.00  0.00    +0.000 A 
ATOM     34  C   UNL     1       1.305  18.091  17.170  0.00  0.00    +0.000 A 
ATOM     35  C   UNL     1       1.634  16.898  17.801  0.00  0.00    +0.000 A 
ATOM     36  C   UNL     1       0.672  16.235  18.564  0.00  0.00    +0.000 A 
ATOM     37  C   UNL     1      -0.607  16.774  18.737  0.00  0.00    +0.000 A 
ENDBRANCH  27  36
ENDBRANCH   1  29
TORSDOF 4
ENDMDL
MODEL 2
REMARK VINA RESULT:      -7.9      0.562      1.174
REMARK  Name = 
REMARK  6 active torsions:
REMARK  status: ('A' for Active; 'I' for Inactive)
REMARK    1  A    between atoms: C_1  and  C_2
REMARK    2  A    between atoms: C_6  and  C_7
REMARK    3  A    between atoms: N_9  and  C_10
REMARK    4  A    between atoms: C_16  and  C_17
REMARK    5  A    between atoms: N_19  and  C_20
REMARK    6  A    between atoms: C_26  and  C_27
REMARK                            x       y       z     vdW  Elec       q    Type
REMARK                         _______ _______ _______ _____ _____    ______ ____
ROOT
ATOM      1  C   UNL     1       0.850  12.574  19.499  0.00  0.00    +0.000 C 
ATOM      2  C   UNL     1       1.565  11.800  18.370  0.00  0.00    +0.000 C 
ATOM      3  O   UNL     1       2.264  12.294  17.498  0.00  0.00    +0.000 OA
ATOM      4  N   UNL     1       1.532  10.379  18.390  0.00  0.00    +0.000 N 
ATOM      5  C   UNL     1       1.074   9.720  19.509  0.00  0.00    +0.000 A 
ATOM      6  C   UNL     1       0.228  10.320  20.419  0.00  0.00    +0.000 A 
ATOM      7  C   UNL     1       0.004   9.295  21.381  0.00  0.00    +0.000 A 
ATOM      8  C   UNL     1      -0.745   9.294  22.665  0.00  0.00    +0.000 C 
ATOM      9  N   UNL     1       0.599   8.144  21.023  0.00  0.00    +0.000 NA
ATOM     10  N   UNL     1       1.331   8.437  19.927  0.00  0.00    +0.000 N 
ATOM     11  C   UNL     1      -0.276  11.700  20.125  0.00  0.00    +0.000 C 
ATOM     12  H   UNL     1       1.943   9.891  17.603  0.00  0.00    +0.000 HD
ENDROOT
BRANCH  11  13
ATOM     13  C   UNL     1      -0.986  12.314  21.315  0.00  0.00    +0.000 A 
ATOM     14  C   UNL     1      -2.381  12.116  21.440  0.00  0.00    +0.000 A 
ATOM     15  C   UNL     1      -3.121  12.754  22.440  0.00  0.00    +0.000 A 
ATOM     16  C   UNL     1      -2.479  13.608  23.325  0.00  0.00    +0.000 A 
ATOM     17  F   UNL     1      -3.194  14.245  24.260  0.00  0.00    +0.000 F 
ATOM     18  C   UNL     1      -1.108  13.806  23.228  0.00  0.00    +0.000 A 
ATOM     19  F   UNL     1      -0.491  14.647  24.069  0.00  0.00    +0.000 F 
ATOM     20  C   UNL     1      -0.356  13.161  22.243  0.00  0.00    +0.000 A 
ENDBRANCH  11  13
BRANCH  10  21
ATOM     21  C   UNL     1       2.303   7.540  19.420  0.00  0.00    +0.000 A 
ATOM     22  C   UNL     1       2.882   7.792  18.171  0.00  0.00    +0.000 A 
ATOM     23  C   UNL     1       3.815   6.892  17.652  0.00  0.00    +0.000 A 
ATOM     24  C   UNL     1       4.151   5.741  18.356  0.00  0.00    +0.000 A 
ATOM     25  C   UNL     1       3.566   5.478  19.593  0.00  0.00    +0.000 A 
ATOM     26  C   UNL     1       2.642   6.376  20.129  0.00  0.00    +0.000 A 
ENDBRANCH  10  21
BRANCH   1  29
ATOM     27  C   UNL     1       1.042  14.998  19.309  0.00  0.00    +0.000 C 
ATOM     28  O   UNL     1       1.989  14.989  20.091  0.00  0.00    +0.000 OA
ATOM     29  N   UNL     1       0.371  13.846  18.959  0.00  0.00    +0.000 N 
ATOM     30  H   UNL     1      -0.279  13.858  18.178  0.00  0.00    +0.000 HD
BRANCH  27  36
ATOM     31  C   UNL     1      -2.440  18.517  18.499  0.00  0.00    +0.000 C 
ATOM     32  C   UNL     1      -1.067  17.957  18.272  0.00  0.00    +0.000 A 
ATOM     33  C   UNL     1      -0.140  18.630  17.464  0.00  0.00    +0.000 A 
ATOM     34  C   UNL     1       1.148  18.122  17.277  0.00  0.00    +0.000 A 
ATOM     35  C   UNL     1       1.521  16.935  17.895  0.00  0.00    +0.000 A 
ATOM     36  C   UNL     1       0.595  16.248  18.681  0.00  0.00    +0.000 A 
ATOM     37  C   UNL     1      -0.692  16.756  18.888  0.00  0.00    +0.000 A 
ENDBRANCH  27  36
ENDBRANCH   1  29
TORSDOF 4
ENDMDL
MODEL 3
REMARK VINA RESULT:      -7.6      0.800      1.838
REMARK  Name = 
REMARK  6 active torsions:
REMARK  status: ('A' for Active; 'I' for Inactive)
REMARK    1  A    between atoms: C_1  and  C_2
REMARK    2  A    between atoms: C_6  and  C_7
REMARK    3  A    between atoms: N_9  and  C_10
REMARK    4  A    between atoms: C_16  and  C_17
REMARK    5  A    between atoms: N_19  and  C_20
REMARK    6  A    between atoms: C_26  and  C_27
REMARK                            x       y       z     vdW  Elec       q    Type
REMARK                         _______ _______ _______ _____ _____    ______ ____
ROOT
ATOM      1  C   UNL     1       0.558  12.567  19.616  0.00  0.00    +0.000 C 
ATOM      2  C   UNL     1       1.220  11.818  18.439  0.00  0.00    +0.000 C 
ATOM      3  O   UNL     1       1.833  12.335  17.518  0.00  0.00    +0.000 OA
ATOM      4  N   UNL     1       1.246  10.397  18.463  0.00  0.00    +0.000 N 
ATOM      5  C   UNL     1       0.897   9.724  19.613  0.00  0.00    +0.000 A 
ATOM      6  C   UNL     1       0.095  10.294  20.581  0.00  0.00    +0.000 A 
ATOM      7  C   UNL     1      -0.017   9.264  21.558  0.00  0.00    +0.000 A 
ATOM      8  C   UNL     1      -0.671   9.239  22.893  0.00  0.00    +0.000 C 
ATOM      9  N   UNL     1       0.596   8.136  21.160  0.00  0.00    +0.000 NA
ATOM     10  N   UNL     1       1.234   8.455  20.013  0.00  0.00    +0.000 N 
ATOM     11  C   UNL     1      -0.484  11.651  20.323  0.00  0.00    +0.000 C 
ATOM     12  H   UNL     1       1.618   9.923  17.649  0.00  0.00    +0.000 HD
ENDROOT
BRANCH  11  13
ATOM     13  C   UNL     1      -1.131  12.241  21.561  0.00  0.00    +0.000 A 
ATOM     14  C   UNL     1      -2.493  11.953  21.808  0.00  0.00    +0.000 A 
ATOM     15  C   UNL     1      -3.187  12.561  22.859  0.00  0.00    +0.000 A 
ATOM     16  C   UNL     1      -2.532  13.474  23.672  0.00  0.00    +0.000 A 
ATOM     17  F   UNL     1      -3.207  14.081  24.656  0.00  0.00    +0.000 F 
ATOM     18  C   UNL     1      -1.191  13.761  23.454  0.00  0.00    +0.000 A 
ATOM     19  F   UNL     1      -0.563  14.659  24.226  0.00  0.00    +0.000 F 
ATOM     20  C   UNL     1      -0.483  13.147  22.417  0.00  0.00    +0.000 A 
ENDBRANCH  11  13
BRANCH  10  21
ATOM     21  C   UNL     1       2.202   7.595  19.439  0.00  0.00    +0.000 A 
ATOM     22  C   UNL     1       2.602   6.449  20.136  0.00  0.00    +0.000 A 
ATOM     23  C   UNL     1       3.581   5.617  19.591  0.00  0.00    +0.000 A 
ATOM     24  C   UNL     1       4.175   5.934  18.374  0.00  0.00    +0.000 A 
ATOM     25  C   UNL     1       3.792   7.081  17.682  0.00  0.00    +0.000 A 
ATOM     26  C   UNL     1       2.805   7.913  18.211  0.00  0.00    +0.000 A 
ENDBRANCH  10  21
BRANCH   1  29
ATOM     27  C   UNL     1       0.565  15.004  19.510  0.00  0.00    +0.000 C 
ATOM     28  O   UNL     1       1.500  15.040  20.305  0.00  0.00    +0.000 OA
ATOM     29  N   UNL     1      -0.011  13.817  19.111  0.00  0.00    +0.000 N 
ATOM     30  H   UNL     1      -0.648  13.806  18.320  0.00  0.00    +0.000 HD
BRANCH  27  36
ATOM     31  C   UNL     1       0.689  18.631  16.046  0.00  0.00    +0.000 C 
ATOM     32  C   UNL     1       0.071  17.998  17.258  0.00  0.00    +0.000 A 
ATOM     33  C   UNL     1      -1.068  18.552  17.858  0.00  0.00    +0.000 A 
ATOM     34  C   UNL     1      -1.660  17.946  18.969  0.00  0.00    +0.000 A 
ATOM     35  C   UNL     1      -1.116  16.779  19.492  0.00  0.00    +0.000 A 
ATOM     36  C   UNL     1       0.033  16.236  18.915  0.00  0.00    +0.000 A 
ATOM     37  C   UNL     1       0.623  16.826  17.793  0.00  0.00    +0.000 A 
ENDBRANCH  27  36
ENDBRANCH   1  29
TORSDOF 4
ENDMDL
MODEL 4
REMARK VINA RESULT:      -7.4      0.543      1.168
REMARK  Name = 
REMARK  6 active torsions:
REMARK  status: ('A' for Active; 'I' for Inactive)
REMARK    1  A    between atoms: C_1  and  C_2
REMARK    2  A    between atoms: C_6  and  C_7
REMARK    3  A    between atoms: N_9  and  C_10
REMARK    4  A    between atoms: C_16  and  C_17
REMARK    5  A    between atoms: N_19  and  C_20
REMARK    6  A    between atoms: C_26  and  C_27
REMARK                            x       y       z     vdW  Elec       q    Type
REMARK                         _______ _______ _______ _____ _____    ______ ____
ROOT
ATOM      1  C   UNL     1       0.631  12.596  19.354  0.00  0.00    +0.000 C 
ATOM      2  C   UNL     1       1.417  11.878  18.235  0.00  0.00    +0.000 C 
ATOM      3  O   UNL     1       2.115  12.419  17.392  0.00  0.00    +0.000 OA
ATOM      4  N   UNL     1       1.454  10.457  18.233  0.00  0.00    +0.000 N 
ATOM      5  C   UNL     1       0.997   9.758  19.328  0.00  0.00    +0.000 A 
ATOM      6  C   UNL     1       0.095  10.300  20.221  0.00  0.00    +0.000 A 
ATOM      7  C   UNL     1      -0.105   9.250  21.160  0.00  0.00    +0.000 A 
ATOM      8  C   UNL     1      -0.891   9.191  22.421  0.00  0.00    +0.000 C 
ATOM      9  N   UNL     1       0.556   8.135  20.804  0.00  0.00    +0.000 NA
ATOM     10  N   UNL     1       1.305   8.483  19.735  0.00  0.00    +0.000 N 
ATOM     11  C   UNL     1      -0.468  11.658  19.932  0.00  0.00    +0.000 C 
ATOM     12  H   UNL     1       1.912  10.003  17.452  0.00  0.00    +0.000 HD
ENDROOT
BRANCH  11  13
ATOM     13  C   UNL     1      -1.243  12.216  21.109  0.00  0.00    +0.000 A 
ATOM     14  C   UNL     1      -0.523  12.621  22.257  0.00  0.00    +0.000 A 
ATOM     15  C   UNL     1      -1.178  13.028  23.423  0.00  0.00    +0.000 A 
ATOM     16  C   UNL     1      -2.564  13.026  23.462  0.00  0.00    +0.000 A 
ATOM     17  F   UNL     1      -3.191  13.383  24.591  0.00  0.00    +0.000 F 
ATOM     18  C   UNL     1      -3.292  12.646  22.342  0.00  0.00    +0.000 A 
ATOM     19  F   UNL     1      -4.631  12.625  22.387  0.00  0.00    +0.000 F 
ATOM     20  C   UNL     1      -2.647  12.253  21.166  0.00  0.00    +0.000 A 
ENDBRANCH  11  13
BRANCH  10  21
ATOM     21  C   UNL     1       2.335   7.643  19.245  0.00  0.00    +0.000 A 
ATOM     22  C   UNL     1       2.917   7.926  18.004  0.00  0.00    +0.000 A 
ATOM     23  C   UNL     1       3.908   7.081  17.500  0.00  0.00    +0.000 A 
ATOM     24  C   UNL     1       4.301   5.953  18.212  0.00  0.00    +0.000 A 
ATOM     25  C   UNL     1       3.715   5.659  19.442  0.00  0.00    +0.000 A 
ATOM     26  C   UNL     1       2.732   6.502  19.961  0.00  0.00    +0.000 A 
ENDBRANCH  10  21
BRANCH   1  29
ATOM     27  C   UNL     1       0.350  15.014  19.517  0.00  0.00    +0.000 C 
ATOM     28  O   UNL     1       0.951  15.015  20.589  0.00  0.00    +0.000 OA
ATOM     29  N   UNL     1       0.104  13.852  18.818  0.00  0.00    +0.000 N 
ATOM     30  H   UNL     1      -0.224  13.901  17.858  0.00  0.00    +0.000 HD
BRANCH  27  36
ATOM     31  C   UNL     1       0.726  18.628  16.058  0.00  0.00    +0.000 C 
ATOM     32  C   UNL     1       0.049  18.025  17.254  0.00  0.00    +0.000 A 
ATOM     33  C   UNL     1      -1.079  18.631  17.824  0.00  0.00    +0.000 A 
ATOM     34  C   UNL     1      -1.725  18.052  18.920  0.00  0.00    +0.000 A 
ATOM     35  C   UNL     1      -1.248  16.863  19.457  0.00  0.00    +0.000 A 
ATOM     36  C   UNL     1      -0.111  16.269  18.910  0.00  0.00    +0.000 A 
ATOM     37  C   UNL     1       0.534  16.830  17.803  0.00  0.00    +0.000 A 
ENDBRANCH  27  36
ENDBRANCH   1  29
TORSDOF 4
ENDMDL
MODEL 5
REMARK VINA RESULT:      -7.2      3.586      8.411
REMARK  Name = 
REMARK  6 active torsions:
REMARK  status: ('A' for Active; 'I' for Inactive)
REMARK    1  A    between atoms: C_1  and  C_2
REMARK    2  A    between atoms: C_6  and  C_7
REMARK    3  A    between atoms: N_9  and  C_10
REMARK    4  A    between atoms: C_16  and  C_17
REMARK    5  A    between atoms: N_19  and  C_20
REMARK    6  A    between atoms: C_26  and  C_27
REMARK                            x       y       z     vdW  Elec       q    Type
REMARK                         _______ _______ _______ _____ _____    ______ ____
ROOT
ATOM      1  C   UNL     1       0.053  11.950  19.721  0.00  0.00    +0.000 C 
ATOM      2  C   UNL     1       0.643  12.496  21.040  0.00  0.00    +0.000 C 
ATOM      3  O   UNL     1       1.832  12.635  21.287  0.00  0.00    +0.000 OA
ATOM      4  N   UNL     1      -0.246  13.007  22.024  0.00  0.00    +0.000 N 
ATOM      5  C   UNL     1      -1.569  13.219  21.709  0.00  0.00    +0.000 A 
ATOM      6  C   UNL     1      -2.192  12.553  20.673  0.00  0.00    +0.000 A 
ATOM      7  C   UNL     1      -3.523  13.055  20.717  0.00  0.00    +0.000 A 
ATOM      8  C   UNL     1      -4.696  12.820  19.833  0.00  0.00    +0.000 C 
ATOM      9  N   UNL     1      -3.703  13.888  21.757  0.00  0.00    +0.000 NA
ATOM     10  N   UNL     1      -2.480  14.059  22.302  0.00  0.00    +0.000 N 
ATOM     11  C   UNL     1      -1.422  11.503  19.933  0.00  0.00    +0.000 C 
ATOM     12  H   UNL     1       0.153  13.293  22.911  0.00  0.00    +0.000 HD
ENDROOT
BRANCH  11  13
ATOM     13  C   UNL     1      -2.145  11.040  18.683  0.00  0.00    +0.000 A 
ATOM     14  C   UNL     1      -2.866   9.824  18.735  0.00  0.00    +0.000 A 
ATOM     15  C   UNL     1      -3.451   9.275  17.590  0.00  0.00    +0.000 A 
ATOM     16  C   UNL     1      -3.315   9.926  16.374  0.00  0.00    +0.000 A 
ATOM     17  F   UNL     1      -3.846   9.381  15.272  0.00  0.00    +0.000 F 
ATOM     18  C   UNL     1      -2.622  11.128  16.303  0.00  0.00    +0.000 A 
ATOM     19  F   UNL     1      -2.472  11.747  15.124  0.00  0.00    +0.000 F 
ATOM     20  C   UNL     1      -2.047  11.695  17.444  0.00  0.00    +0.000 A 
ENDBRANCH  11  13
BRANCH  10  21
ATOM     21  C   UNL     1      -2.226  15.076  23.254  0.00  0.00    +0.000 A 
ATOM     22  C   UNL     1      -2.290  14.768  24.619  0.00  0.00    +0.000 A 
ATOM     23  C   UNL     1      -2.076  15.775  25.562  0.00  0.00    +0.000 A 
ATOM     24  C   UNL     1      -1.824  17.080  25.154  0.00  0.00    +0.000 A 
ATOM     25  C   UNL     1      -1.774  17.395  23.797  0.00  0.00    +0.000 A 
ATOM     26  C   UNL     1      -1.974  16.395  22.845  0.00  0.00    +0.000 A 
ENDBRANCH  10  21
BRANCH   1  29
ATOM     27  C   UNL     1       0.906   9.671  19.891  0.00  0.00    +0.000 C 
ATOM     28  O   UNL     1       0.224   9.486  20.896  0.00  0.00    +0.000 OA
ATOM     29  N   UNL     1       0.924  10.881  19.231  0.00  0.00    +0.000 N 
ATOM     30  H   UNL     1       1.345  10.946  18.309  0.00  0.00    +0.000 HD
BRANCH  27  36
ATOM     31  C   UNL     1       2.942   5.093  20.150  0.00  0.00    +0.000 C 
ATOM     32  C   UNL     1       2.715   6.386  19.423  0.00  0.00    +0.000 A 
ATOM     33  C   UNL     1       3.255   6.599  18.148  0.00  0.00    +0.000 A 
ATOM     34  C   UNL     1       3.018   7.793  17.460  0.00  0.00    +0.000 A 
ATOM     35  C   UNL     1       2.240   8.785  18.043  0.00  0.00    +0.000 A 
ATOM     36  C   UNL     1       1.720   8.589  19.323  0.00  0.00    +0.000 A 
ATOM     37  C   UNL     1       1.937   7.392  20.013  0.00  0.00    +0.000 A 
ENDBRANCH  27  36
ENDBRANCH   1  29
TORSDOF 4
ENDMDL
MODEL 6
REMARK VINA RESULT:      -7.2      3.066      5.243
REMARK  Name = 
REMARK  6 active torsions:
REMARK  status: ('A' for Active; 'I' for Inactive)
REMARK    1  A    between atoms: C_1  and  C_2
REMARK    2  A    between atoms: C_6  and  C_7
REMARK    3  A    between atoms: N_9  and  C_10
REMARK    4  A    between atoms: C_16  and  C_17
REMARK    5  A    between atoms: N_19  and  C_20
REMARK    6  A    between atoms: C_26  and  C_27
REMARK                            x       y       z     vdW  Elec       q    Type
REMARK                         _______ _______ _______ _____ _____    ______ ____
ROOT
ATOM      1  C   UNL     1      -0.276  10.250  21.382  0.00  0.00    +0.000 C 
ATOM      2  C   UNL     1      -0.210   8.847  22.025  0.00  0.00    +0.000 C 
ATOM      3  O   UNL     1      -0.968   8.418  22.882  0.00  0.00    +0.000 OA
ATOM      4  N   UNL     1       0.721   7.905  21.510  0.00  0.00    +0.000 N 
ATOM      5  C   UNL     1       1.375   8.164  20.327  0.00  0.00    +0.000 A 
ATOM      6  C   UNL     1       1.543   9.447  19.847  0.00  0.00    +0.000 A 
ATOM      7  C   UNL     1       2.269   9.251  18.639  0.00  0.00    +0.000 A 
ATOM      8  C   UNL     1       2.708  10.205  17.586  0.00  0.00    +0.000 C 
ATOM      9  N   UNL     1       2.589   7.958  18.459  0.00  0.00    +0.000 NA
ATOM     10  N   UNL     1       1.956   7.286  19.445  0.00  0.00    +0.000 N 
ATOM     11  C   UNL     1       1.076  10.593  20.691  0.00  0.00    +0.000 C 
ATOM     12  H   UNL     1       0.800   7.017  21.991  0.00  0.00    +0.000 HD
ENDROOT
BRANCH  11  13
ATOM     13  C   UNL     1       1.102  11.907  19.936  0.00  0.00    +0.000 A 
ATOM     14  C   UNL     1       2.017  12.903  20.351  0.00  0.00    +0.000 A 
ATOM     15  C   UNL     1       2.011  14.180  19.783  0.00  0.00    +0.000 A 
ATOM     16  C   UNL     1       1.084  14.485  18.798  0.00  0.00    +0.000 A 
ATOM     17  F   UNL     1       1.057  15.719  18.279  0.00  0.00    +0.000 F 
ATOM     18  C   UNL     1       0.185  13.518  18.366  0.00  0.00    +0.000 A 
ATOM     19  F   UNL     1      -0.724  13.819  17.429  0.00  0.00    +0.000 F 
ATOM     20  C   UNL     1       0.193  12.233  18.915  0.00  0.00    +0.000 A 
ENDBRANCH  11  13
BRANCH  10  21
ATOM     21  C   UNL     1       1.841   5.875  19.427  0.00  0.00    +0.000 A 
ATOM     22  C   UNL     1       1.899   5.198  18.203  0.00  0.00    +0.000 A 
ATOM     23  C   UNL     1       1.751   3.810  18.177  0.00  0.00    +0.000 A 
ATOM     24  C   UNL     1       1.524   3.103  19.353  0.00  0.00    +0.000 A 
ATOM     25  C   UNL     1       1.452   3.773  20.572  0.00  0.00    +0.000 A 
ATOM     26  C   UNL     1       1.611   5.159  20.613  0.00  0.00    +0.000 A 
ENDBRANCH  10  21
BRANCH   1  29
ATOM     27  C   UNL     1      -1.706  12.078  22.134  0.00  0.00    +0.000 C 
ATOM     28  O   UNL     1      -2.271  12.089  21.044  0.00  0.00    +0.000 OA
ATOM     29  N   UNL     1      -0.668  11.214  22.411  0.00  0.00    +0.000 N 
ATOM     30  H   UNL     1      -0.349  11.098  23.369  0.00  0.00    +0.000 HD
BRANCH  27  36
ATOM     31  C   UNL     1      -0.939  15.988  25.181  0.00  0.00    +0.000 C 
ATOM     32  C   UNL     1      -1.791  14.851  24.699  0.00  0.00    +0.000 A 
ATOM     33  C   UNL     1      -3.056  14.615  25.253  0.00  0.00    +0.000 A 
ATOM     34  C   UNL     1      -3.861  13.574  24.783  0.00  0.00    +0.000 A 
ATOM     35  C   UNL     1      -3.406  12.757  23.756  0.00  0.00    +0.000 A 
ATOM     36  C   UNL     1      -2.137  12.971  23.217  0.00  0.00    +0.000 A 
ATOM     37  C   UNL     1      -1.331  14.021  23.668  0.00  0.00    +0.000 A 
ENDBRANCH  27  36
ENDBRANCH   1  29
TORSDOF 4
ENDMDL
MODEL 7
REMARK VINA RESULT:      -7.1      4.301      7.432
REMARK  Name = 
REMARK  6 active torsions:
REMARK  status: ('A' for Active; 'I' for Inactive)
REMARK    1  A    between atoms: C_1  and  C_2
REMARK    2  A    between atoms: C_6  and  C_7
REMARK    3  A    between atoms: N_9  and  C_10
REMARK    4  A    between atoms: C_16  and  C_17
REMARK    5  A    between atoms: N_19  and  C_20
REMARK    6  A    between atoms: C_26  and  C_27
REMARK                            x       y       z     vdW  Elec       q    Type
REMARK                         _______ _______ _______ _____ _____    ______ ____
ROOT
ATOM      1  C   UNL     1      -0.461  13.620  21.884  0.00  0.00    +0.000 C 
ATOM      2  C   UNL     1       0.170  14.806  22.643  0.00  0.00    +0.000 C 
ATOM      3  O   UNL     1      -0.168  15.209  23.746  0.00  0.00    +0.000 OA
ATOM      4  N   UNL     1       1.327  15.427  22.098  0.00  0.00    +0.000 N 
ATOM      5  C   UNL     1       1.992  14.834  21.049  0.00  0.00    +0.000 A 
ATOM      6  C   UNL     1       1.373  13.942  20.197  0.00  0.00    +0.000 A 
ATOM      7  C   UNL     1       2.403  13.602  19.275  0.00  0.00    +0.000 A 
ATOM      8  C   UNL     1       2.438  12.631  18.150  0.00  0.00    +0.000 C 
ATOM      9  N   UNL     1       3.524  14.307  19.505  0.00  0.00    +0.000 NA
ATOM     10  N   UNL     1       3.298  14.988  20.650  0.00  0.00    +0.000 N 
ATOM     11  C   UNL     1      -0.093  13.687  20.373  0.00  0.00    +0.000 C 
ATOM     12  H   UNL     1       1.683  16.249  22.572  0.00  0.00    +0.000 HD
ENDROOT
BRANCH  11  13
ATOM     13  C   UNL     1      -0.573  12.516  19.536  0.00  0.00    +0.000 A 
ATOM     14  C   UNL     1      -0.185  11.212  19.921  0.00  0.00    +0.000 A 
ATOM     15  C   UNL     1      -0.485  10.099  19.130  0.00  0.00    +0.000 A 
ATOM     16  C   UNL     1      -1.169  10.275  17.936  0.00  0.00    +0.000 A 
ATOM     17  F   UNL     1      -1.425   9.212  17.162  0.00  0.00    +0.000 F 
ATOM     18  C   UNL     1      -1.571  11.546  17.546  0.00  0.00    +0.000 A 
ATOM     19  F   UNL     1      -2.213  11.718  16.383  0.00  0.00    +0.000 F 
ATOM     20  C   UNL     1      -1.291  12.663  18.337  0.00  0.00    +0.000 A 
ENDBRANCH  11  13
BRANCH  10  21
ATOM     21  C   UNL     1       4.345  15.634  21.349  0.00  0.00    +0.000 A 
ATOM     22  C   UNL     1       5.117  14.901  22.259  0.00  0.00    +0.000 A 
ATOM     23  C   UNL     1       6.128  15.542  22.977  0.00  0.00    +0.000 A 
ATOM     24  C   UNL     1       6.356  16.904  22.810  0.00  0.00    +0.000 A 
ATOM     25  C   UNL     1       5.582  17.641  21.917  0.00  0.00    +0.000 A 
ATOM     26  C   UNL     1       4.576  17.010  21.184  0.00  0.00    +0.000 A 
ENDBRANCH  10  21
BRANCH   1  29
ATOM     27  C   UNL     1      -2.450  12.552  22.810  0.00  0.00    +0.000 C 
ATOM     28  O   UNL     1      -1.774  11.588  23.159  0.00  0.00    +0.000 OA
ATOM     29  N   UNL     1      -1.903  13.622  22.134  0.00  0.00    +0.000 N 
ATOM     30  H   UNL     1      -2.440  14.478  22.025  0.00  0.00    +0.000 HD
BRANCH  27  36
ATOM     31  C   UNL     1      -7.234  13.191  21.442  0.00  0.00    +0.000 C 
ATOM     32  C   UNL     1      -6.196  12.931  22.494  0.00  0.00    +0.000 A 
ATOM     33  C   UNL     1      -6.564  12.717  23.829  0.00  0.00    +0.000 A 
ATOM     34  C   UNL     1      -5.598  12.446  24.803  0.00  0.00    +0.000 A 
ATOM     35  C   UNL     1      -4.256  12.388  24.450  0.00  0.00    +0.000 A 
ATOM     36  C   UNL     1      -3.882  12.624  23.127  0.00  0.00    +0.000 A 
ATOM     37  C   UNL     1      -4.841  12.880  22.141  0.00  0.00    +0.000 A 
ENDBRANCH  27  36
ENDBRANCH   1  29
TORSDOF 4
ENDMDL
MODEL 8
REMARK VINA RESULT:      -7.0      4.212      7.267
REMARK  Name = 
REMARK  6 active torsions:
REMARK  status: ('A' for Active; 'I' for Inactive)
REMARK    1  A    between atoms: C_1  and  C_2
REMARK    2  A    between atoms: C_6  and  C_7
REMARK    3  A    between atoms: N_9  and  C_10
REMARK    4  A    between atoms: C_16  and  C_17
REMARK    5  A    between atoms: N_19  and  C_20
REMARK    6  A    between atoms: C_26  and  C_27
REMARK                            x       y       z     vdW  Elec       q    Type
REMARK                         _______ _______ _______ _____ _____    ______ ____
ROOT
ATOM      1  C   UNL     1       0.435  14.228  21.713  0.00  0.00    +0.000 C 
ATOM      2  C   UNL     1       1.178  15.480  22.231  0.00  0.00    +0.000 C 
ATOM      3  O   UNL     1       0.987  16.030  23.305  0.00  0.00    +0.000 OA
ATOM      4  N   UNL     1       2.269  15.986  21.475  0.00  0.00    +0.000 N 
ATOM      5  C   UNL     1       2.789  15.242  20.438  0.00  0.00    +0.000 A 
ATOM      6  C   UNL     1       2.052  14.272  19.791  0.00  0.00    +0.000 A 
ATOM      7  C   UNL     1       2.953  13.783  18.804  0.00  0.00    +0.000 A 
ATOM      8  C   UNL     1       2.831  12.676  17.818  0.00  0.00    +0.000 C 
ATOM      9  N   UNL     1       4.107  14.472  18.804  0.00  0.00    +0.000 NA
ATOM     10  N   UNL     1       4.037  15.299  19.869  0.00  0.00    +0.000 N 
ATOM     11  C   UNL     1       0.615  14.091  20.173  0.00  0.00    +0.000 C 
ATOM     12  H   UNL     1       2.697  16.848  21.791  0.00  0.00    +0.000 HD
ENDROOT
BRANCH  11  13
ATOM     13  C   UNL     1       0.014  12.841  19.560  0.00  0.00    +0.000 A 
ATOM     14  C   UNL     1      -0.845  12.987  18.445  0.00  0.00    +0.000 A 
ATOM     15  C   UNL     1      -1.531  11.894  17.907  0.00  0.00    +0.000 A 
ATOM     16  C   UNL     1      -1.378  10.642  18.482  0.00  0.00    +0.000 A 
ATOM     17  F   UNL     1      -2.063   9.602  17.987  0.00  0.00    +0.000 F 
ATOM     18  C   UNL     1      -0.530  10.474  19.568  0.00  0.00    +0.000 A 
ATOM     19  F   UNL     1      -0.398   9.268  20.137  0.00  0.00    +0.000 F 
ATOM     20  C   UNL     1       0.174  11.556  20.104  0.00  0.00    +0.000 A 
ENDBRANCH  11  13
BRANCH  10  21
ATOM     21  C   UNL     1       5.175  15.993  20.347  0.00  0.00    +0.000 A 
ATOM     22  C   UNL     1       5.914  15.451  21.405  0.00  0.00    +0.000 A 
ATOM     23  C   UNL     1       7.016  16.147  21.904  0.00  0.00    +0.000 A 
ATOM     24  C   UNL     1       7.368  17.383  21.371  0.00  0.00    +0.000 A 
ATOM     25  C   UNL     1       6.628  17.934  20.327  0.00  0.00    +0.000 A 
ATOM     26  C   UNL     1       5.531  17.242  19.812  0.00  0.00    +0.000 A 
ENDBRANCH  10  21
BRANCH   1  29
ATOM     27  C   UNL     1      -1.463  13.315  22.944  0.00  0.00    +0.000 C 
ATOM     28  O   UNL     1      -0.785  12.347  23.279  0.00  0.00    +0.000 OA
ATOM     29  N   UNL     1      -0.964  14.312  22.133  0.00  0.00    +0.000 N 
ATOM     30  H   UNL     1      -1.479  15.182  22.028  0.00  0.00    +0.000 HD
BRANCH  27  36
ATOM     31  C   UNL     1      -5.561  16.101  23.721  0.00  0.00    +0.000 C 
ATOM     32  C   UNL     1      -4.830  14.794  23.811  0.00  0.00    +0.000 A 
ATOM     33  C   UNL     1      -5.454  13.655  24.337  0.00  0.00    +0.000 A 
ATOM     34  C   UNL     1      -4.782  12.431  24.393  0.00  0.00    +0.000 A 
ATOM     35  C   UNL     1      -3.477  12.336  23.926  0.00  0.00    +0.000 A 
ATOM     36  C   UNL     1      -2.842  13.472  23.424  0.00  0.00    +0.000 A 
ATOM     37  C   UNL     1      -3.511  14.698  23.347  0.00  0.00    +0.000 A 
ENDBRANCH  27  36
ENDBRANCH   1  29
TORSDOF 4
ENDMDL
MODEL 9
REMARK VINA RESULT:      -7.0      4.243      7.608
REMARK  Name = 
REMARK  6 active torsions:
REMARK  status: ('A' for Active; 'I' for Inactive)
REMARK    1  A    between atoms: C_1  and  C_2
REMARK    2  A    between atoms: C_6  and  C_7
REMARK    3  A    between atoms: N_9  and  C_10
REMARK    4  A    between atoms: C_16  and  C_17
REMARK    5  A    between atoms: N_19  and  C_20
REMARK    6  A    between atoms: C_26  and  C_27
REMARK                            x       y       z     vdW  Elec       q    Type
REMARK                         _______ _______ _______ _____ _____    ______ ____
ROOT
ATOM      1  C   UNL     1      -0.177  14.017  21.882  0.00  0.00    +0.000 C 
ATOM      2  C   UNL     1       0.366  15.281  22.582  0.00  0.00    +0.000 C 
ATOM      3  O   UNL     1       0.001  15.710  23.667  0.00  0.00    +0.000 OA
ATOM      4  N   UNL     1       1.473  15.959  22.003  0.00  0.00    +0.000 N 
ATOM      5  C   UNL     1       2.179  15.368  20.979  0.00  0.00    +0.000 A 
ATOM      6  C   UNL     1       1.626  14.394  20.174  0.00  0.00    +0.000 A 
ATOM      7  C   UNL     1       2.677  14.088  19.264  0.00  0.00    +0.000 A 
ATOM      8  C   UNL     1       2.782  13.070  18.185  0.00  0.00    +0.000 C 
ATOM      9  N   UNL     1       3.743  14.884  19.455  0.00  0.00    +0.000 NA
ATOM     10  N   UNL     1       3.469  15.599  20.568  0.00  0.00    +0.000 N 
ATOM     11  C   UNL     1       0.183  14.040  20.368  0.00  0.00    +0.000 C 
ATOM     12  H   UNL     1       1.768  16.826  22.436  0.00  0.00    +0.000 HD
ENDROOT
BRANCH  11  13
ATOM     13  C   UNL     1      -0.210  12.799  19.590  0.00  0.00    +0.000 A 
ATOM     14  C   UNL     1      -1.004  12.958  18.430  0.00  0.00    +0.000 A 
ATOM     15  C   UNL     1      -1.507  11.854  17.735  0.00  0.00    +0.000 A 
ATOM     16  C   UNL     1      -1.232  10.575  18.194  0.00  0.00    +0.000 A 
ATOM     17  F   UNL     1      -1.743   9.519  17.548  0.00  0.00    +0.000 F 
ATOM     18  C   UNL     1      -0.443  10.396  19.323  0.00  0.00    +0.000 A 
ATOM     19  F   UNL     1      -0.194   9.161  19.780  0.00  0.00    +0.000 F 
ATOM     20  C   UNL     1       0.078  11.492  20.016  0.00  0.00    +0.000 A 
ENDBRANCH  11  13
BRANCH  10  21
ATOM     21  C   UNL     1       4.467  16.353  21.231  0.00  0.00    +0.000 A 
ATOM     22  C   UNL     1       5.170  15.774  22.294  0.00  0.00    +0.000 A 
ATOM     23  C   UNL     1       6.131  16.525  22.974  0.00  0.00    +0.000 A 
ATOM     24  C   UNL     1       6.374  17.847  22.616  0.00  0.00    +0.000 A 
ATOM     25  C   UNL     1       5.667  18.433  21.568  0.00  0.00    +0.000 A 
ATOM     26  C   UNL     1       4.713  17.689  20.873  0.00  0.00    +0.000 A 
ENDBRANCH  10  21
BRANCH   1  29
ATOM     27  C   UNL     1      -2.090  12.810  22.797  0.00  0.00    +0.000 C 
ATOM     28  O   UNL     1      -1.354  11.883  23.124  0.00  0.00    +0.000 OA
ATOM     29  N   UNL     1      -1.615  13.925  22.139  0.00  0.00    +0.000 N 
ATOM     30  H   UNL     1      -2.204  14.747  22.049  0.00  0.00    +0.000 HD
BRANCH  27  36
ATOM     31  C   UNL     1      -6.910  13.247  21.477  0.00  0.00    +0.000 C 
ATOM     32  C   UNL     1      -5.853  12.994  22.512  0.00  0.00    +0.000 A 
ATOM     33  C   UNL     1      -6.200  12.696  23.837  0.00  0.00    +0.000 A 
ATOM     34  C   UNL     1      -5.216  12.433  24.792  0.00  0.00    +0.000 A 
ATOM     35  C   UNL     1      -3.874  12.467  24.433  0.00  0.00    +0.000 A 
ATOM     36  C   UNL     1      -3.522  12.787  23.121  0.00  0.00    +0.000 A 
ATOM     37  C   UNL     1      -4.500  13.036  22.153  0.00  0.00    +0.000 A 
ENDBRANCH  27  36
ENDBRANCH   1  29
TORSDOF 4
ENDMDL
