MODEL 1
REMARK VINA RESULT:      -6.7      0.000      0.000
REMARK  Name = 
REMARK  6 active torsions:
REMARK  status: ('A' for Active; 'I' for Inactive)
REMARK    1  A    between atoms: C_2  and  C_3
REMARK    2  A    between atoms: C_2  and  C_10
REMARK    3  A    between atoms: C_3  and  C_4
REMARK    4  A    between atoms: C_10  and  C_11
REMARK    5  A    between atoms: C_11  and  O_12
REMARK    6  A    between atoms: C_11  and  C_13
REMARK                            x       y       z     vdW  Elec       q    Type
REMARK                         _______ _______ _______ _____ _____    ______ ____
ROOT
ATOM      1  C   UNL     1       3.281   3.379  16.835  0.00  0.00    +0.000 C 
ENDROOT
BRANCH   1   3
ATOM      2  O   UNL     1       5.542   3.619  16.131  0.00  0.00    +0.000 OA
ATOM      3  C   UNL     1       4.682   3.954  16.955  0.00  0.00    +0.000 C 
BRANCH   3   4
ATOM      4  C   UNL     1       5.055   4.830  18.136  0.00  0.00    +0.000 C 
BRANCH   4   5
ATOM      5  C   UNL     1       4.062   5.933  18.400  0.00  0.00    +0.000 A 
ATOM      6  C   UNL     1       3.906   6.976  17.476  0.00  0.00    +0.000 A 
ATOM      7  C   UNL     1       2.960   7.980  17.693  0.00  0.00    +0.000 A 
ATOM      8  C   UNL     1       2.160   7.949  18.833  0.00  0.00    +0.000 A 
ATOM      9  C   UNL     1       2.305   6.914  19.756  0.00  0.00    +0.000 A 
ATOM     10  C   UNL     1       3.250   5.909  19.540  0.00  0.00    +0.000 A 
ENDBRANCH   4   5
ENDBRANCH   3   4
ENDBRANCH   1   3
BRANCH   1  11
ATOM     11  C   UNL     1       3.035   2.134  17.681  0.00  0.00    +0.000 C 
BRANCH  11  12
ATOM     12  C   UNL     1       2.475   2.467  19.049  0.00  0.00    +0.000 A 
ATOM     13  C   UNL     1       1.160   2.945  19.170  0.00  0.00    +0.000 A 
ATOM     14  C   UNL     1       0.637   3.294  20.415  0.00  0.00    +0.000 A 
ATOM     15  C   UNL     1       1.419   3.165  21.562  0.00  0.00    +0.000 A 
ATOM     16  C   UNL     1       2.721   2.677  21.464  0.00  0.00    +0.000 A 
ATOM     17  C   UNL     1       3.244   2.326  20.218  0.00  0.00    +0.000 A 
ENDBRANCH  11  12
BRANCH  11  18
ATOM     18  O   UNL     1       4.244   1.389  17.821  0.00  0.00    +0.000 OA
ATOM     19  H   UNL     1       4.818   1.856  18.454  0.00  0.00    +0.000 HD
ENDBRANCH  11  18
ENDBRANCH   1  11
TORSDOF 6
ENDMDL
MODEL 2
REMARK VINA RESULT:      -6.5      1.770      4.033
REMARK  Name = 
REMARK  6 active torsions:
REMARK  status: ('A' for Active; 'I' for Inactive)
REMARK    1  A    between atoms: C_2  and  C_3
REMARK    2  A    between atoms: C_2  and  C_10
REMARK    3  A    between atoms: C_3  and  C_4
REMARK    4  A    between atoms: C_10  and  C_11
REMARK    5  A    between atoms: C_11  and  O_12
REMARK    6  A    between atoms: C_11  and  C_13
REMARK                            x       y       z     vdW  Elec       q    Type
REMARK                         _______ _______ _______ _____ _____    ______ ____
ROOT
ATOM      1  C   UNL     1       2.940   2.148  19.938  0.00  0.00    +0.000 C 
ENDROOT
BRANCH   1   3
ATOM      2  O   UNL     1       1.944   2.588  22.055  0.00  0.00    +0.000 OA
ATOM      3  C   UNL     1       1.937   2.841  20.844  0.00  0.00    +0.000 C 
BRANCH   3   4
ATOM      4  C   UNL     1       0.865   3.740  20.257  0.00  0.00    +0.000 C 
BRANCH   4   5
ATOM      5  C   UNL     1       1.410   5.012  19.662  0.00  0.00    +0.000 A 
ATOM      6  C   UNL     1       1.494   5.159  18.270  0.00  0.00    +0.000 A 
ATOM      7  C   UNL     1       1.960   6.349  17.710  0.00  0.00    +0.000 A 
ATOM      8  C   UNL     1       2.344   7.405  18.534  0.00  0.00    +0.000 A 
ATOM      9  C   UNL     1       2.261   7.271  19.919  0.00  0.00    +0.000 A 
ATOM     10  C   UNL     1       1.795   6.081  20.481  0.00  0.00    +0.000 A 
ENDBRANCH   4   5
ENDBRANCH   3   4
ENDBRANCH   1   3
BRANCH   1  11
ATOM     11  C   UNL     1       4.359   2.699  20.030  0.00  0.00    +0.000 C 
BRANCH  11  12
ATOM     12  C   UNL     1       4.692   3.630  18.881  0.00  0.00    +0.000 A 
ATOM     13  C   UNL     1       5.229   4.901  19.144  0.00  0.00    +0.000 A 
ATOM     14  C   UNL     1       5.507   5.788  18.105  0.00  0.00    +0.000 A 
ATOM     15  C   UNL     1       5.257   5.419  16.784  0.00  0.00    +0.000 A 
ATOM     16  C   UNL     1       4.740   4.155  16.503  0.00  0.00    +0.000 A 
ATOM     17  C   UNL     1       4.462   3.266  17.542  0.00  0.00    +0.000 A 
ENDBRANCH  11  12
BRANCH  11  18
ATOM     18  O   UNL     1       5.301   1.628  20.073  0.00  0.00    +0.000 OA
ATOM     19  H   UNL     1       5.832   1.723  20.884  0.00  0.00    +0.000 HD
ENDBRANCH  11  18
ENDBRANCH   1  11
TORSDOF 6
ENDMDL
MODEL 3
REMARK VINA RESULT:      -6.4      2.908      5.947
REMARK  Name = 
REMARK  6 active torsions:
REMARK  status: ('A' for Active; 'I' for Inactive)
REMARK    1  A    between atoms: C_2  and  C_3
REMARK    2  A    between atoms: C_2  and  C_10
REMARK    3  A    between atoms: C_3  and  C_4
REMARK    4  A    between atoms: C_10  and  C_11
REMARK    5  A    between atoms: C_11  and  O_12
REMARK    6  A    between atoms: C_11  and  C_13
REMARK                            x       y       z     vdW  Elec       q    Type
REMARK                         _______ _______ _______ _____ _____    ______ ____
ROOT
ATOM      1  C   UNL     1       4.924   5.723  16.235  0.00  0.00    +0.000 C 
ENDROOT
BRANCH   1   3
ATOM      2  O   UNL     1       5.363   5.687  18.574  0.00  0.00    +0.000 OA
ATOM      3  C   UNL     1       4.531   5.920  17.689  0.00  0.00    +0.000 C 
BRANCH   3   4
ATOM      4  C   UNL     1       3.104   6.281  18.057  0.00  0.00    +0.000 C 
BRANCH   4   5
ATOM      5  C   UNL     1       2.340   5.141  18.680  0.00  0.00    +0.000 A 
ATOM      6  C   UNL     1       1.978   5.193  20.033  0.00  0.00    +0.000 A 
ATOM      7  C   UNL     1       1.235   4.159  20.608  0.00  0.00    +0.000 A 
ATOM      8  C   UNL     1       0.845   3.068  19.836  0.00  0.00    +0.000 A 
ATOM      9  C   UNL     1       1.198   3.008  18.488  0.00  0.00    +0.000 A 
ATOM     10  C   UNL     1       1.940   4.041  17.912  0.00  0.00    +0.000 A 
ENDBRANCH   4   5
ENDBRANCH   3   4
ENDBRANCH   1   3
BRANCH   1  11
ATOM     11  C   UNL     1       6.056   4.724  16.018  0.00  0.00    +0.000 C 
BRANCH  11  12
ATOM     12  C   UNL     1       6.401   4.552  14.552  0.00  0.00    +0.000 A 
ATOM     13  C   UNL     1       5.669   3.651  13.762  0.00  0.00    +0.000 A 
ATOM     14  C   UNL     1       5.994   3.449  12.421  0.00  0.00    +0.000 A 
ATOM     15  C   UNL     1       7.054   4.148  11.845  0.00  0.00    +0.000 A 
ATOM     16  C   UNL     1       7.781   5.058  12.610  0.00  0.00    +0.000 A 
ATOM     17  C   UNL     1       7.456   5.262  13.952  0.00  0.00    +0.000 A 
ENDBRANCH  11  12
BRANCH  11  18
ATOM     18  O   UNL     1       5.713   3.462  16.586  0.00  0.00    +0.000 OA
ATOM     19  H   UNL     1       6.505   2.894  16.567  0.00  0.00    +0.000 HD
ENDBRANCH  11  18
ENDBRANCH   1  11
TORSDOF 6
ENDMDL
MODEL 4
REMARK VINA RESULT:      -6.3      2.263      3.715
REMARK  Name = 
REMARK  6 active torsions:
REMARK  status: ('A' for Active; 'I' for Inactive)
REMARK    1  A    between atoms: C_2  and  C_3
REMARK    2  A    between atoms: C_2  and  C_10
REMARK    3  A    between atoms: C_3  and  C_4
REMARK    4  A    between atoms: C_10  and  C_11
REMARK    5  A    between atoms: C_11  and  O_12
REMARK    6  A    between atoms: C_11  and  C_13
REMARK                            x       y       z     vdW  Elec       q    Type
REMARK                         _______ _______ _______ _____ _____    ______ ____
ROOT
ATOM      1  C   UNL     1       5.167   5.310  19.460  0.00  0.00    +0.000 C 
ENDROOT
BRANCH   1   3
ATOM      2  O   UNL     1       7.417   5.239  20.236  0.00  0.00    +0.000 OA
ATOM      3  C   UNL     1       6.662   5.528  19.299  0.00  0.00    +0.000 C 
BRANCH   3   4
ATOM      4  C   UNL     1       7.210   6.202  18.055  0.00  0.00    +0.000 C 
BRANCH   4   5
ATOM      5  C   UNL     1       6.656   5.635  16.774  0.00  0.00    +0.000 A 
ATOM      6  C   UNL     1       5.659   6.326  16.070  0.00  0.00    +0.000 A 
ATOM      7  C   UNL     1       5.169   5.828  14.862  0.00  0.00    +0.000 A 
ATOM      8  C   UNL     1       5.671   4.636  14.344  0.00  0.00    +0.000 A 
ATOM      9  C   UNL     1       6.664   3.942  15.034  0.00  0.00    +0.000 A 
ATOM     10  C   UNL     1       7.156   4.439  16.242  0.00  0.00    +0.000 A 
ENDBRANCH   4   5
ENDBRANCH   3   4
ENDBRANCH   1   3
BRANCH   1  11
ATOM     11  C   UNL     1       4.654   3.998  18.875  0.00  0.00    +0.000 C 
BRANCH  11  12
ATOM     12  C   UNL     1       3.207   3.731  19.237  0.00  0.00    +0.000 A 
ATOM     13  C   UNL     1       2.609   4.433  20.296  0.00  0.00    +0.000 A 
ATOM     14  C   UNL     1       1.291   4.176  20.670  0.00  0.00    +0.000 A 
ATOM     15  C   UNL     1       0.545   3.214  19.990  0.00  0.00    +0.000 A 
ATOM     16  C   UNL     1       1.117   2.518  18.926  0.00  0.00    +0.000 A 
ATOM     17  C   UNL     1       2.436   2.776  18.549  0.00  0.00    +0.000 A 
ENDBRANCH  11  12
BRANCH  11  18
ATOM     18  O   UNL     1       5.471   2.913  19.313  0.00  0.00    +0.000 OA
ATOM     19  H   UNL     1       5.675   3.047  20.256  0.00  0.00    +0.000 HD
ENDBRANCH  11  18
ENDBRANCH   1  11
TORSDOF 6
ENDMDL
MODEL 5
REMARK VINA RESULT:      -6.3      1.666      3.953
REMARK  Name = 
REMARK  6 active torsions:
REMARK  status: ('A' for Active; 'I' for Inactive)
REMARK    1  A    between atoms: C_2  and  C_3
REMARK    2  A    between atoms: C_2  and  C_10
REMARK    3  A    between atoms: C_3  and  C_4
REMARK    4  A    between atoms: C_10  and  C_11
REMARK    5  A    between atoms: C_11  and  O_12
REMARK    6  A    between atoms: C_11  and  C_13
REMARK                            x       y       z     vdW  Elec       q    Type
REMARK                         _______ _______ _______ _____ _____    ______ ____
ROOT
ATOM      1  C   UNL     1       2.997   1.838  18.853  0.00  0.00    +0.000 C 
ENDROOT
BRANCH   1   3
ATOM      2  O   UNL     1       0.689   2.060  18.315  0.00  0.00    +0.000 OA
ATOM      3  C   UNL     1       1.607   2.414  19.064  0.00  0.00    +0.000 C 
BRANCH   3   4
ATOM      4  C   UNL     1       1.374   3.497  20.101  0.00  0.00    +0.000 C 
BRANCH   4   5
ATOM      5  C   UNL     1       1.691   4.882  19.602  0.00  0.00    +0.000 A 
ATOM      6  C   UNL     1       1.959   5.915  20.511  0.00  0.00    +0.000 A 
ATOM      7  C   UNL     1       2.293   7.192  20.055  0.00  0.00    +0.000 A 
ATOM      8  C   UNL     1       2.364   7.448  18.688  0.00  0.00    +0.000 A 
ATOM      9  C   UNL     1       2.102   6.428  17.775  0.00  0.00    +0.000 A 
ATOM     10  C   UNL     1       1.769   5.150  18.229  0.00  0.00    +0.000 A 
ENDBRANCH   4   5
ENDBRANCH   3   4
ENDBRANCH   1   3
BRANCH   1  11
ATOM     11  C   UNL     1       4.117   2.634  19.516  0.00  0.00    +0.000 C 
BRANCH  11  12
ATOM     12  C   UNL     1       4.703   3.685  18.595  0.00  0.00    +0.000 A 
ATOM     13  C   UNL     1       5.353   4.806  19.136  0.00  0.00    +0.000 A 
ATOM     14  C   UNL     1       5.866   5.804  18.308  0.00  0.00    +0.000 A 
ATOM     15  C   UNL     1       5.741   5.696  16.923  0.00  0.00    +0.000 A 
ATOM     16  C   UNL     1       5.112   4.583  16.368  0.00  0.00    +0.000 A 
ATOM     17  C   UNL     1       4.600   3.583  17.196  0.00  0.00    +0.000 A 
ENDBRANCH  11  12
BRANCH  11  18
ATOM     18  O   UNL     1       5.147   1.754  19.963  0.00  0.00    +0.000 OA
ATOM     19  H   UNL     1       5.474   2.080  20.821  0.00  0.00    +0.000 HD
ENDBRANCH  11  18
ENDBRANCH   1  11
TORSDOF 6
ENDMDL
MODEL 6
REMARK VINA RESULT:      -6.2      1.505      3.817
REMARK  Name = 
REMARK  6 active torsions:
REMARK  status: ('A' for Active; 'I' for Inactive)
REMARK    1  A    between atoms: C_2  and  C_3
REMARK    2  A    between atoms: C_2  and  C_10
REMARK    3  A    between atoms: C_3  and  C_4
REMARK    4  A    between atoms: C_10  and  C_11
REMARK    5  A    between atoms: C_11  and  O_12
REMARK    6  A    between atoms: C_11  and  C_13
REMARK                            x       y       z     vdW  Elec       q    Type
REMARK                         _______ _______ _______ _____ _____    ______ ____
ROOT
ATOM      1  C   UNL     1       3.318   2.537  20.529  0.00  0.00    +0.000 C 
ENDROOT
BRANCH   1   3
ATOM      2  O   UNL     1       1.642   1.841  18.989  0.00  0.00    +0.000 OA
ATOM      3  C   UNL     1       1.949   2.644  19.879  0.00  0.00    +0.000 C 
BRANCH   3   4
ATOM      4  C   UNL     1       1.020   3.791  20.229  0.00  0.00    +0.000 C 
BRANCH   4   5
ATOM      5  C   UNL     1       1.472   5.117  19.677  0.00  0.00    +0.000 A 
ATOM      6  C   UNL     1       1.757   6.181  20.545  0.00  0.00    +0.000 A 
ATOM      7  C   UNL     1       2.216   7.401  20.045  0.00  0.00    +0.000 A 
ATOM      8  C   UNL     1       2.396   7.569  18.674  0.00  0.00    +0.000 A 
ATOM      9  C   UNL     1       2.118   6.517  17.802  0.00  0.00    +0.000 A 
ATOM     10  C   UNL     1       1.660   5.296  18.301  0.00  0.00    +0.000 A 
ENDBRANCH   4   5
ENDBRANCH   3   4
ENDBRANCH   1   3
BRANCH   1  11
ATOM     11  C   UNL     1       4.461   2.269  19.555  0.00  0.00    +0.000 C 
BRANCH  11  12
ATOM     12  C   UNL     1       4.763   3.467  18.676  0.00  0.00    +0.000 A 
ATOM     13  C   UNL     1       4.538   3.394  17.292  0.00  0.00    +0.000 A 
ATOM     14  C   UNL     1       4.845   4.470  16.460  0.00  0.00    +0.000 A 
ATOM     15  C   UNL     1       5.377   5.641  16.999  0.00  0.00    +0.000 A 
ATOM     16  C   UNL     1       5.592   5.737  18.373  0.00  0.00    +0.000 A 
ATOM     17  C   UNL     1       5.284   4.661  19.207  0.00  0.00    +0.000 A 
ENDBRANCH  11  12
BRANCH  11  18
ATOM     18  O   UNL     1       4.158   1.136  18.742  0.00  0.00    +0.000 OA
ATOM     19  H   UNL     1       3.236   0.874  18.918  0.00  0.00    +0.000 HD
ENDBRANCH  11  18
ENDBRANCH   1  11
TORSDOF 6
ENDMDL
MODEL 7
REMARK VINA RESULT:      -6.2      2.982      6.141
REMARK  Name = 
REMARK  6 active torsions:
REMARK  status: ('A' for Active; 'I' for Inactive)
REMARK    1  A    between atoms: C_2  and  C_3
REMARK    2  A    between atoms: C_2  and  C_10
REMARK    3  A    between atoms: C_3  and  C_4
REMARK    4  A    between atoms: C_10  and  C_11
REMARK    5  A    between atoms: C_11  and  O_12
REMARK    6  A    between atoms: C_11  and  C_13
REMARK                            x       y       z     vdW  Elec       q    Type
REMARK                         _______ _______ _______ _____ _____    ______ ____
ROOT
ATOM      1  C   UNL     1       5.402   4.573  16.735  0.00  0.00    +0.000 C 
ENDROOT
BRANCH   1   3
ATOM      2  O   UNL     1       5.435   5.469  18.941  0.00  0.00    +0.000 OA
ATOM      3  C   UNL     1       4.767   5.289  17.915  0.00  0.00    +0.000 C 
BRANCH   3   4
ATOM      4  C   UNL     1       3.299   5.672  17.882  0.00  0.00    +0.000 C 
BRANCH   4   5
ATOM      5  C   UNL     1       2.412   4.708  18.625  0.00  0.00    +0.000 A 
ATOM      6  C   UNL     1       2.103   4.932  19.974  0.00  0.00    +0.000 A 
ATOM      7  C   UNL     1       1.249   4.066  20.659  0.00  0.00    +0.000 A 
ATOM      8  C   UNL     1       0.695   2.969  20.003  0.00  0.00    +0.000 A 
ATOM      9  C   UNL     1       0.994   2.739  18.661  0.00  0.00    +0.000 A 
ATOM     10  C   UNL     1       1.847   3.605  17.974  0.00  0.00    +0.000 A 
ENDBRANCH   4   5
ENDBRANCH   3   4
ENDBRANCH   1   3
BRANCH   1  11
ATOM     11  C   UNL     1       6.261   5.466  15.844  0.00  0.00    +0.000 C 
BRANCH  11  12
ATOM     12  C   UNL     1       6.475   4.872  14.467  0.00  0.00    +0.000 A 
ATOM     13  C   UNL     1       7.534   5.328  13.664  0.00  0.00    +0.000 A 
ATOM     14  C   UNL     1       7.726   4.822  12.379  0.00  0.00    +0.000 A 
ATOM     15  C   UNL     1       6.865   3.848  11.875  0.00  0.00    +0.000 A 
ATOM     16  C   UNL     1       5.819   3.372  12.663  0.00  0.00    +0.000 A 
ATOM     17  C   UNL     1       5.626   3.876  13.950  0.00  0.00    +0.000 A 
ENDBRANCH  11  12
BRANCH  11  18
ATOM     18  O   UNL     1       7.521   5.714  16.466  0.00  0.00    +0.000 OA
ATOM     19  H   UNL     1       7.357   6.145  17.324  0.00  0.00    +0.000 HD
ENDBRANCH  11  18
ENDBRANCH   1  11
TORSDOF 6
ENDMDL
MODEL 8
REMARK VINA RESULT:      -6.1      2.136      5.244
REMARK  Name = 
REMARK  6 active torsions:
REMARK  status: ('A' for Active; 'I' for Inactive)
REMARK    1  A    between atoms: C_2  and  C_3
REMARK    2  A    between atoms: C_2  and  C_10
REMARK    3  A    between atoms: C_3  and  C_4
REMARK    4  A    between atoms: C_10  and  C_11
REMARK    5  A    between atoms: C_11  and  O_12
REMARK    6  A    between atoms: C_11  and  C_13
REMARK                            x       y       z     vdW  Elec       q    Type
REMARK                         _______ _______ _______ _____ _____    ______ ____
ROOT
ATOM      1  C   UNL     1       6.799   5.585  19.335  0.00  0.00    +0.000 C 
ENDROOT
BRANCH   1   3
ATOM      2  O   UNL     1       5.536   3.570  19.447  0.00  0.00    +0.000 OA
ATOM      3  C   UNL     1       5.498   4.807  19.436  0.00  0.00    +0.000 C 
BRANCH   3   4
ATOM      4  C   UNL     1       4.165   5.531  19.403  0.00  0.00    +0.000 C 
BRANCH   4   5
ATOM      5  C   UNL     1       2.979   4.605  19.466  0.00  0.00    +0.000 A 
ATOM      6  C   UNL     1       2.388   4.299  20.701  0.00  0.00    +0.000 A 
ATOM      7  C   UNL     1       1.264   3.474  20.764  0.00  0.00    +0.000 A 
ATOM      8  C   UNL     1       0.719   2.948  19.595  0.00  0.00    +0.000 A 
ATOM      9  C   UNL     1       1.296   3.247  18.362  0.00  0.00    +0.000 A 
ATOM     10  C   UNL     1       2.420   4.073  18.297  0.00  0.00    +0.000 A 
ENDBRANCH   4   5
ENDBRANCH   3   4
ENDBRANCH   1   3
BRANCH   1  11
ATOM     11  C   UNL     1       7.627   5.270  18.093  0.00  0.00    +0.000 C 
BRANCH  11  12
ATOM     12  C   UNL     1       6.794   5.275  16.827  0.00  0.00    +0.000 A 
ATOM     13  C   UNL     1       6.044   6.413  16.487  0.00  0.00    +0.000 A 
ATOM     14  C   UNL     1       5.242   6.426  15.347  0.00  0.00    +0.000 A 
ATOM     15  C   UNL     1       5.178   5.303  14.524  0.00  0.00    +0.000 A 
ATOM     16  C   UNL     1       5.927   4.170  14.837  0.00  0.00    +0.000 A 
ATOM     17  C   UNL     1       6.732   4.156  15.977  0.00  0.00    +0.000 A 
ENDBRANCH  11  12
BRANCH  11  18
ATOM     18  O   UNL     1       8.275   4.008  18.241  0.00  0.00    +0.000 OA
ATOM     19  H   UNL     1       8.774   3.824  17.426  0.00  0.00    +0.000 HD
ENDBRANCH  11  18
ENDBRANCH   1  11
TORSDOF 6
ENDMDL
MODEL 9
REMARK VINA RESULT:      -6.1      2.996      5.969
REMARK  Name = 
REMARK  6 active torsions:
REMARK  status: ('A' for Active; 'I' for Inactive)
REMARK    1  A    between atoms: C_2  and  C_3
REMARK    2  A    between atoms: C_2  and  C_10
REMARK    3  A    between atoms: C_3  and  C_4
REMARK    4  A    between atoms: C_10  and  C_11
REMARK    5  A    between atoms: C_11  and  O_12
REMARK    6  A    between atoms: C_11  and  C_13
REMARK                            x       y       z     vdW  Elec       q    Type
REMARK                         _______ _______ _______ _____ _____    ______ ____
ROOT
ATOM      1  C   UNL     1       6.616   4.362  17.044  0.00  0.00    +0.000 C 
ENDROOT
BRANCH   1   3
ATOM      2  O   UNL     1       5.609   3.925  19.156  0.00  0.00    +0.000 OA
ATOM      3  C   UNL     1       5.438   4.337  18.002  0.00  0.00    +0.000 C 
BRANCH   3   4
ATOM      4  C   UNL     1       4.046   4.699  17.518  0.00  0.00    +0.000 C 
BRANCH   4   5
ATOM      5  C   UNL     1       2.971   4.443  18.542  0.00  0.00    +0.000 A 
ATOM      6  C   UNL     1       2.742   5.369  19.570  0.00  0.00    +0.000 A 
ATOM      7  C   UNL     1       1.721   5.159  20.499  0.00  0.00    +0.000 A 
ATOM      8  C   UNL     1       0.918   4.025  20.409  0.00  0.00    +0.000 A 
ATOM      9  C   UNL     1       1.135   3.099  19.389  0.00  0.00    +0.000 A 
ATOM     10  C   UNL     1       2.156   3.308  18.458  0.00  0.00    +0.000 A 
ENDBRANCH   4   5
ENDBRANCH   3   4
ENDBRANCH   1   3
BRANCH   1  11
ATOM     11  C   UNL     1       6.562   5.480  16.007  0.00  0.00    +0.000 C 
BRANCH  11  12
ATOM     12  C   UNL     1       6.628   4.953  14.587  0.00  0.00    +0.000 A 
ATOM     13  C   UNL     1       5.707   3.984  14.156  0.00  0.00    +0.000 A 
ATOM     14  C   UNL     1       5.774   3.458  12.866  0.00  0.00    +0.000 A 
ATOM     15  C   UNL     1       6.761   3.895  11.983  0.00  0.00    +0.000 A 
ATOM     16  C   UNL     1       7.674   4.867  12.389  0.00  0.00    +0.000 A 
ATOM     17  C   UNL     1       7.607   5.395  13.679  0.00  0.00    +0.000 A 
ENDBRANCH  11  12
BRANCH  11  18
ATOM     18  O   UNL     1       7.621   6.409  16.229  0.00  0.00    +0.000 OA
ATOM     19  H   UNL     1       7.230   7.254  16.514  0.00  0.00    +0.000 HD
ENDBRANCH  11  18
ENDBRANCH   1  11
TORSDOF 6
ENDMDL
