MODEL 1
REMARK VINA RESULT:      -7.6      0.000      0.000
REMARK  Name = 
REMARK  12 active torsions:
REMARK  status: ('A' for Active; 'I' for Inactive)
REMARK    1  A    between atoms: C_1  and  C_2
REMARK    2  A    between atoms: C_2  and  C_3
REMARK    3  A    between atoms: C_2  and  C_4
REMARK    4  A    between atoms: C_4  and  S_5
REMARK    5  A    between atoms: C_4  and  C_6
REMARK    6  A    between atoms: N_8  and  C_9
REMARK    7  A    between atoms: C_9  and  C_10
REMARK    8  A    between atoms: N_12  and  CA_13
REMARK    9  A    between atoms: CA_13  and  C_14
REMARK   10  A    between atoms: CA_13  and  C_21
REMARK   11  A    between atoms: C_14  and  C_15
REMARK   12  A    between atoms: C_21  and  OXT_23
REMARK                            x       y       z     vdW  Elec       q    Type
REMARK                         _______ _______ _______ _____ _____    ______ ____
ROOT
ATOM      1  C   UNL     1       4.970   5.437  17.337  0.00  0.00    +0.000 C 
ATOM      2  O   UNL     1       4.366   4.371  17.239  0.00  0.00    +0.000 OA
ATOM      3  N   UNL     1       4.383   6.559  17.874  0.00  0.00    +0.000 N 
ATOM      4  H   UNL     1       4.855   7.428  17.648  0.00  0.00    +0.000 HD
ENDROOT
BRANCH   1   5
ATOM      5  C   UNL     1       6.391   5.671  16.733  0.00  0.00    +0.000 C 
ATOM      6  C   UNL     1       7.385   4.627  17.281  0.00  0.00    +0.000 C 
ATOM      7  C   UNL     1       7.890   5.196  18.601  0.00  0.00    +0.000 C 
ATOM      8  C   UNL     1       7.678   6.702  18.527  0.00  0.00    +0.000 C 
ATOM      9  C   UNL     1       7.064   6.984  17.160  0.00  0.00    +0.000 C 
BRANCH   5  12
ATOM     10  C   UNL     1       6.205   4.348  14.593  0.00  0.00    +0.000 C 
ATOM     11  O   UNL     1       6.272   3.254  15.159  0.00  0.00    +0.000 OA
ATOM     12  N   UNL     1       6.289   5.545  15.272  0.00  0.00    +0.000 N 
ATOM     13  H   UNL     1       6.164   6.408  14.749  0.00  0.00    +0.000 HD
BRANCH  10  14
ATOM     14  C   UNL     1       6.040   4.498  13.072  0.00  0.00    +0.000 C 
BRANCH  14  16
ATOM     15  C   UNL     1       6.729   2.536  11.567  0.00  0.00    +0.000 C 
ATOM     16  C   UNL     1       5.620   3.160  12.425  0.00  0.00    +0.000 C 
ATOM     17  C   UNL     1       4.379   3.345  11.539  0.00  0.00    +0.000 C 
ENDBRANCH  14  16
BRANCH  14  18
ATOM     18  S   UNL     1       7.640   5.143  12.436  0.00  0.00    +0.000 S 
ATOM     19  H   UNL     1       8.290   3.969  12.484  0.00  0.00    +0.000 HD
ENDBRANCH  14  18
ENDBRANCH  10  14
ENDBRANCH   5  12
ENDBRANCH   1   5
BRANCH   3  20
ATOM     20  CA  UNL     1       2.998   6.638  18.350  0.00  0.00    +0.000 C 
BRANCH  20  21
ATOM     21  C   UNL     1       2.437   8.048  18.067  0.00  0.00    +0.000 C 
ATOM     22  O   UNL     1       2.677   8.720  17.072  0.00  0.00    +0.000 OA
BRANCH  21  23
ATOM     23  OXT UNL     1       1.732   8.572  19.104  0.00  0.00    +0.000 OA
ATOM     24  HXT UNL     1       1.788   8.071  19.952  0.00  0.00    +0.000 HD
ENDBRANCH  21  23
ENDBRANCH  20  21
BRANCH  20  25
ATOM     25  C   UNL     1       2.793   6.197  19.817  0.00  0.00    +0.000 C 
BRANCH  25  26
ATOM     26  C   UNL     1       2.116   4.860  19.979  0.00  0.00    +0.000 A 
ATOM     27  C   UNL     1       2.110   4.196  21.207  0.00  0.00    +0.000 A 
ATOM     28  C   UNL     1       1.574   2.917  21.297  0.00  0.00    +0.000 A 
ATOM     29  C   UNL     1       1.044   2.346  20.153  0.00  0.00    +0.000 A 
ATOM     30  N   UNL     1       0.988   2.973  18.959  0.00  0.00    +0.000 NA
ATOM     31  C   UNL     1       1.512   4.218  18.903  0.00  0.00    +0.000 A 
ENDBRANCH  25  26
ENDBRANCH  20  25
ENDBRANCH   3  20
TORSDOF 10
ENDMDL
MODEL 2
REMARK VINA RESULT:      -7.4      2.762      7.693
REMARK  Name = 
REMARK  12 active torsions:
REMARK  status: ('A' for Active; 'I' for Inactive)
REMARK    1  A    between atoms: C_1  and  C_2
REMARK    2  A    between atoms: C_2  and  C_3
REMARK    3  A    between atoms: C_2  and  C_4
REMARK    4  A    between atoms: C_4  and  S_5
REMARK    5  A    between atoms: C_4  and  C_6
REMARK    6  A    between atoms: N_8  and  C_9
REMARK    7  A    between atoms: C_9  and  C_10
REMARK    8  A    between atoms: N_12  and  CA_13
REMARK    9  A    between atoms: CA_13  and  C_14
REMARK   10  A    between atoms: CA_13  and  C_21
REMARK   11  A    between atoms: C_14  and  C_15
REMARK   12  A    between atoms: C_21  and  OXT_23
REMARK                            x       y       z     vdW  Elec       q    Type
REMARK                         _______ _______ _______ _____ _____    ______ ____
ROOT
ATOM      1  C   UNL     1       3.758   4.346  17.579  0.00  0.00    +0.000 C 
ATOM      2  O   UNL     1       3.581   3.675  16.564  0.00  0.00    +0.000 OA
ATOM      3  N   UNL     1       4.989   4.871  17.899  0.00  0.00    +0.000 N 
ATOM      4  H   UNL     1       5.086   5.151  18.869  0.00  0.00    +0.000 HD
ENDROOT
BRANCH   1   5
ATOM      5  C   UNL     1       2.662   4.543  18.674  0.00  0.00    +0.000 C 
ATOM      6  C   UNL     1       3.081   3.844  19.983  0.00  0.00    +0.000 C 
ATOM      7  C   UNL     1       2.625   2.396  19.838  0.00  0.00    +0.000 C 
ATOM      8  C   UNL     1       1.506   2.402  18.806  0.00  0.00    +0.000 C 
ATOM      9  C   UNL     1       1.322   3.853  18.377  0.00  0.00    +0.000 C 
BRANCH   5  12
ATOM     10  C   UNL     1       1.909   6.542  20.017  0.00  0.00    +0.000 C 
ATOM     11  O   UNL     1       1.384   5.862  20.902  0.00  0.00    +0.000 OA
ATOM     12  N   UNL     1       2.508   5.986  18.906  0.00  0.00    +0.000 N 
ATOM     13  H   UNL     1       2.975   6.605  18.248  0.00  0.00    +0.000 HD
BRANCH  10  14
ATOM     14  C   UNL     1       1.938   8.078  20.044  0.00  0.00    +0.000 C 
BRANCH  14  16
ATOM     15  C   UNL     1       0.052   9.814  20.189  0.00  0.00    +0.000 C 
ATOM     16  C   UNL     1       0.764   8.641  20.876  0.00  0.00    +0.000 C 
ATOM     17  C   UNL     1       1.247   9.117  22.254  0.00  0.00    +0.000 C 
ENDBRANCH  14  16
BRANCH  14  18
ATOM     18  S   UNL     1       1.916   8.631  18.290  0.00  0.00    +0.000 S 
ATOM     19  H   UNL     1       2.921   7.838  17.884  0.00  0.00    +0.000 HD
ENDBRANCH  14  18
ENDBRANCH  10  14
ENDBRANCH   5  12
ENDBRANCH   1   5
BRANCH   3  20
ATOM     20  CA  UNL     1       6.215   4.676  17.118  0.00  0.00    +0.000 C 
BRANCH  20  21
ATOM     21  C   UNL     1       7.430   4.645  18.069  0.00  0.00    +0.000 C 
ATOM     22  O   UNL     1       7.538   5.293  19.102  0.00  0.00    +0.000 OA
BRANCH  21  23
ATOM     23  OXT UNL     1       8.476   3.919  17.593  0.00  0.00    +0.000 OA
ATOM     24  HXT UNL     1       9.184   3.714  18.249  0.00  0.00    +0.000 HD
ENDBRANCH  21  23
ENDBRANCH  20  21
BRANCH  20  25
ATOM     25  C   UNL     1       6.399   5.667  15.946  0.00  0.00    +0.000 C 
BRANCH  25  26
ATOM     26  C   UNL     1       6.643   5.016  14.609  0.00  0.00    +0.000 A 
ATOM     27  C   UNL     1       7.645   5.473  13.753  0.00  0.00    +0.000 A 
ATOM     28  C   UNL     1       7.773   4.924  12.483  0.00  0.00    +0.000 A 
ATOM     29  C   UNL     1       6.898   3.916  12.114  0.00  0.00    +0.000 A 
ATOM     30  N   UNL     1       5.948   3.413  12.929  0.00  0.00    +0.000 NA
ATOM     31  C   UNL     1       5.851   3.964  14.160  0.00  0.00    +0.000 A 
ENDBRANCH  25  26
ENDBRANCH  20  25
ENDBRANCH   3  20
TORSDOF 10
ENDMDL
MODEL 3
REMARK VINA RESULT:      -7.4      2.863      7.566
REMARK  Name = 
REMARK  12 active torsions:
REMARK  status: ('A' for Active; 'I' for Inactive)
REMARK    1  A    between atoms: C_1  and  C_2
REMARK    2  A    between atoms: C_2  and  C_3
REMARK    3  A    between atoms: C_2  and  C_4
REMARK    4  A    between atoms: C_4  and  S_5
REMARK    5  A    between atoms: C_4  and  C_6
REMARK    6  A    between atoms: N_8  and  C_9
REMARK    7  A    between atoms: C_9  and  C_10
REMARK    8  A    between atoms: N_12  and  CA_13
REMARK    9  A    between atoms: CA_13  and  C_14
REMARK   10  A    between atoms: CA_13  and  C_21
REMARK   11  A    between atoms: C_14  and  C_15
REMARK   12  A    between atoms: C_21  and  OXT_23
REMARK                            x       y       z     vdW  Elec       q    Type
REMARK                         _______ _______ _______ _____ _____    ______ ____
ROOT
ATOM      1  C   UNL     1       3.131   4.672  18.947  0.00  0.00    +0.000 C 
ATOM      2  O   UNL     1       2.809   4.002  17.968  0.00  0.00    +0.000 OA
ATOM      3  N   UNL     1       4.398   5.190  19.090  0.00  0.00    +0.000 N 
ATOM      4  H   UNL     1       4.633   5.469  20.036  0.00  0.00    +0.000 HD
ENDROOT
BRANCH   1   5
ATOM      5  C   UNL     1       2.202   4.876  20.186  0.00  0.00    +0.000 C 
ATOM      6  C   UNL     1       2.817   4.208  21.432  0.00  0.00    +0.000 C 
ATOM      7  C   UNL     1       2.368   2.753  21.380  0.00  0.00    +0.000 C 
ATOM      8  C   UNL     1       1.112   2.722  20.521  0.00  0.00    +0.000 C 
ATOM      9  C   UNL     1       0.844   4.162  20.097  0.00  0.00    +0.000 C 
BRANCH   5  12
ATOM     10  C   UNL     1       1.988   7.267  19.410  0.00  0.00    +0.000 C 
ATOM     11  O   UNL     1       2.102   6.984  18.216  0.00  0.00    +0.000 OA
ATOM     12  N   UNL     1       2.059   6.321  20.411  0.00  0.00    +0.000 N 
ATOM     13  H   UNL     1       1.895   6.618  21.370  0.00  0.00    +0.000 HD
BRANCH  10  14
ATOM     14  C   UNL     1       1.774   8.703  19.917  0.00  0.00    +0.000 C 
BRANCH  14  16
ATOM     15  C   UNL     1      -0.459   9.725  20.666  0.00  0.00    +0.000 C 
ATOM     16  C   UNL     1       0.676   8.749  21.003  0.00  0.00    +0.000 C 
ATOM     17  C   UNL     1       1.266   9.156  22.362  0.00  0.00    +0.000 C 
ENDBRANCH  14  16
BRANCH  14  18
ATOM     18  S   UNL     1       1.378   9.723  18.439  0.00  0.00    +0.000 S 
ATOM     19  H   UNL     1       2.047   8.958  17.562  0.00  0.00    +0.000 HD
ENDBRANCH  14  18
ENDBRANCH  10  14
ENDBRANCH   5  12
ENDBRANCH   1   5
BRANCH   3  20
ATOM     20  CA  UNL     1       5.501   4.988  18.144  0.00  0.00    +0.000 C 
BRANCH  20  21
ATOM     21  C   UNL     1       6.834   4.908  18.919  0.00  0.00    +0.000 C 
ATOM     22  O   UNL     1       7.067   5.461  19.986  0.00  0.00    +0.000 OA
BRANCH  21  23
ATOM     23  OXT UNL     1       7.820   4.263  18.242  0.00  0.00    +0.000 OA
ATOM     24  HXT UNL     1       8.248   3.516  18.723  0.00  0.00    +0.000 HD
ENDBRANCH  21  23
ENDBRANCH  20  21
BRANCH  20  25
ATOM     25  C   UNL     1       5.547   6.002  16.979  0.00  0.00    +0.000 C 
BRANCH  25  26
ATOM     26  C   UNL     1       5.963   5.414  15.655  0.00  0.00    +0.000 A 
ATOM     27  C   UNL     1       5.162   4.484  14.992  0.00  0.00    +0.000 A 
ATOM     28  C   UNL     1       5.624   3.880  13.829  0.00  0.00    +0.000 A 
ATOM     29  C   UNL     1       6.873   4.240  13.354  0.00  0.00    +0.000 A 
ATOM     30  N   UNL     1       7.657   5.170  13.939  0.00  0.00    +0.000 NA
ATOM     31  C   UNL     1       7.179   5.744  15.066  0.00  0.00    +0.000 A 
ENDBRANCH  25  26
ENDBRANCH  20  25
ENDBRANCH   3  20
TORSDOF 10
ENDMDL
MODEL 4
REMARK VINA RESULT:      -7.1      2.760      7.663
REMARK  Name = 
REMARK  12 active torsions:
REMARK  status: ('A' for Active; 'I' for Inactive)
REMARK    1  A    between atoms: C_1  and  C_2
REMARK    2  A    between atoms: C_2  and  C_3
REMARK    3  A    between atoms: C_2  and  C_4
REMARK    4  A    between atoms: C_4  and  S_5
REMARK    5  A    between atoms: C_4  and  C_6
REMARK    6  A    between atoms: N_8  and  C_9
REMARK    7  A    between atoms: C_9  and  C_10
REMARK    8  A    between atoms: N_12  and  CA_13
REMARK    9  A    between atoms: CA_13  and  C_14
REMARK   10  A    between atoms: CA_13  and  C_21
REMARK   11  A    between atoms: C_14  and  C_15
REMARK   12  A    between atoms: C_21  and  OXT_23
REMARK                            x       y       z     vdW  Elec       q    Type
REMARK                         _______ _______ _______ _____ _____    ______ ____
ROOT
ATOM      1  C   UNL     1       3.675   4.332  17.558  0.00  0.00    +0.000 C 
ATOM      2  O   UNL     1       3.404   3.588  16.618  0.00  0.00    +0.000 OA
ATOM      3  N   UNL     1       4.895   4.959  17.662  0.00  0.00    +0.000 N 
ATOM      4  H   UNL     1       5.111   5.306  18.591  0.00  0.00    +0.000 HD
ENDROOT
BRANCH   1   5
ATOM      5  C   UNL     1       2.738   4.522  18.794  0.00  0.00    +0.000 C 
ATOM      6  C   UNL     1       3.371   3.885  20.048  0.00  0.00    +0.000 C 
ATOM      7  C   UNL     1       2.964   2.417  20.010  0.00  0.00    +0.000 C 
ATOM      8  C   UNL     1       1.710   2.342  19.150  0.00  0.00    +0.000 C 
ATOM      9  C   UNL     1       1.402   3.769  18.712  0.00  0.00    +0.000 C 
BRANCH   5  12
ATOM     10  C   UNL     1       1.916   6.523  20.092  0.00  0.00    +0.000 C 
ATOM     11  O   UNL     1       1.378   5.844  20.970  0.00  0.00    +0.000 OA
ATOM     12  N   UNL     1       2.555   5.965  19.005  0.00  0.00    +0.000 N 
ATOM     13  H   UNL     1       3.030   6.584  18.353  0.00  0.00    +0.000 HD
BRANCH  10  14
ATOM     14  C   UNL     1       1.920   8.060  20.102  0.00  0.00    +0.000 C 
BRANCH  14  16
ATOM     15  C   UNL     1      -0.016   9.744  20.203  0.00  0.00    +0.000 C 
ATOM     16  C   UNL     1       0.731   8.611  20.920  0.00  0.00    +0.000 C 
ATOM     17  C   UNL     1       1.202   9.140  22.284  0.00  0.00    +0.000 C 
ENDBRANCH  14  16
BRANCH  14  18
ATOM     18  S   UNL     1       1.900   8.592  18.342  0.00  0.00    +0.000 S 
ATOM     19  H   UNL     1       0.728   9.243  18.409  0.00  0.00    +0.000 HD
ENDBRANCH  14  18
ENDBRANCH  10  14
ENDBRANCH   5  12
ENDBRANCH   1   5
BRANCH   3  20
ATOM     20  CA  UNL     1       6.006   4.800  16.718  0.00  0.00    +0.000 C 
BRANCH  20  21
ATOM     21  C   UNL     1       7.345   4.983  17.463  0.00  0.00    +0.000 C 
ATOM     22  O   UNL     1       8.077   4.077  17.838  0.00  0.00    +0.000 OA
BRANCH  21  23
ATOM     23  OXT UNL     1       7.604   6.272  17.808  0.00  0.00    +0.000 OA
ATOM     24  HXT UNL     1       8.478   6.623  17.513  0.00  0.00    +0.000 HD
ENDBRANCH  21  23
ENDBRANCH  20  21
BRANCH  20  25
ATOM     25  C   UNL     1       5.904   5.676  15.448  0.00  0.00    +0.000 C 
BRANCH  25  26
ATOM     26  C   UNL     1       6.172   4.942  14.159  0.00  0.00    +0.000 A 
ATOM     27  C   UNL     1       5.288   3.973  13.681  0.00  0.00    +0.000 A 
ATOM     28  C   UNL     1       5.617   3.237  12.549  0.00  0.00    +0.000 A 
ATOM     29  C   UNL     1       6.818   3.508  11.917  0.00  0.00    +0.000 A 
ATOM     30  N   UNL     1       7.676   4.469  12.319  0.00  0.00    +0.000 NA
ATOM     31  C   UNL     1       7.327   5.171  13.420  0.00  0.00    +0.000 A 
ENDBRANCH  25  26
ENDBRANCH  20  25
ENDBRANCH   3  20
TORSDOF 10
ENDMDL
MODEL 5
REMARK VINA RESULT:      -7.0      1.288      1.639
REMARK  Name = 
REMARK  12 active torsions:
REMARK  status: ('A' for Active; 'I' for Inactive)
REMARK    1  A    between atoms: C_1  and  C_2
REMARK    2  A    between atoms: C_2  and  C_3
REMARK    3  A    between atoms: C_2  and  C_4
REMARK    4  A    between atoms: C_4  and  S_5
REMARK    5  A    between atoms: C_4  and  C_6
REMARK    6  A    between atoms: N_8  and  C_9
REMARK    7  A    between atoms: C_9  and  C_10
REMARK    8  A    between atoms: N_12  and  CA_13
REMARK    9  A    between atoms: CA_13  and  C_14
REMARK   10  A    between atoms: CA_13  and  C_21
REMARK   11  A    between atoms: C_14  and  C_15
REMARK   12  A    between atoms: C_21  and  OXT_23
REMARK                            x       y       z     vdW  Elec       q    Type
REMARK                         _______ _______ _______ _____ _____    ______ ____
ROOT
ATOM      1  C   UNL     1       5.013   6.403  16.862  0.00  0.00    +0.000 C 
ATOM      2  O   UNL     1       4.634   7.566  16.741  0.00  0.00    +0.000 OA
ATOM      3  N   UNL     1       4.191   5.418  17.363  0.00  0.00    +0.000 N 
ATOM      4  H   UNL     1       4.678   4.587  17.681  0.00  0.00    +0.000 HD
ENDROOT
BRANCH   1   5
ATOM      5  C   UNL     1       6.487   5.954  16.610  0.00  0.00    +0.000 C 
ATOM      6  C   UNL     1       6.816   4.700  17.447  0.00  0.00    +0.000 C 
ATOM      7  C   UNL     1       7.246   5.222  18.813  0.00  0.00    +0.000 C 
ATOM      8  C   UNL     1       7.711   6.655  18.597  0.00  0.00    +0.000 C 
ATOM      9  C   UNL     1       7.555   6.939  17.107  0.00  0.00    +0.000 C 
BRANCH   5  12
ATOM     10  C   UNL     1       5.941   4.655  14.517  0.00  0.00    +0.000 C 
ATOM     11  O   UNL     1       5.176   3.878  15.092  0.00  0.00    +0.000 OA
ATOM     12  N   UNL     1       6.629   5.650  15.179  0.00  0.00    +0.000 N 
ATOM     13  H   UNL     1       7.195   6.294  14.631  0.00  0.00    +0.000 HD
BRANCH  10  14
ATOM     14  C   UNL     1       6.225   4.592  13.008  0.00  0.00    +0.000 C 
BRANCH  14  16
ATOM     15  C   UNL     1       7.017   2.660  11.514  0.00  0.00    +0.000 C 
ATOM     16  C   UNL     1       5.915   3.188  12.443  0.00  0.00    +0.000 C 
ATOM     17  C   UNL     1       4.593   3.190  11.661  0.00  0.00    +0.000 C 
ENDBRANCH  14  16
BRANCH  14  18
ATOM     18  S   UNL     1       7.981   5.093  12.787  0.00  0.00    +0.000 S 
ATOM     19  H   UNL     1       8.044   4.797  11.479  0.00  0.00    +0.000 HD
ENDBRANCH  14  18
ENDBRANCH  10  14
ENDBRANCH   5  12
ENDBRANCH   1   5
BRANCH   3  20
ATOM     20  CA  UNL     1       2.818   5.628  17.834  0.00  0.00    +0.000 C 
BRANCH  20  21
ATOM     21  C   UNL     1       2.846   6.403  19.168  0.00  0.00    +0.000 C 
ATOM     22  O   UNL     1       3.571   6.147  20.121  0.00  0.00    +0.000 OA
BRANCH  21  23
ATOM     23  OXT UNL     1       1.874   7.348  19.270  0.00  0.00    +0.000 OA
ATOM     24  HXT UNL     1       1.214   7.202  19.988  0.00  0.00    +0.000 HD
ENDBRANCH  21  23
ENDBRANCH  20  21
BRANCH  20  25
ATOM     25  C   UNL     1       1.957   4.347  17.905  0.00  0.00    +0.000 C 
BRANCH  25  26
ATOM     26  C   UNL     1       2.073   3.586  19.202  0.00  0.00    +0.000 A 
ATOM     27  C   UNL     1       1.010   3.528  20.104  0.00  0.00    +0.000 A 
ATOM     28  C   UNL     1       1.185   2.913  21.337  0.00  0.00    +0.000 A 
ATOM     29  C   UNL     1       2.419   2.357  21.624  0.00  0.00    +0.000 A 
ATOM     30  N   UNL     1       3.457   2.350  20.760  0.00  0.00    +0.000 NA
ATOM     31  C   UNL     1       3.255   2.952  19.567  0.00  0.00    +0.000 A 
ENDBRANCH  25  26
ENDBRANCH  20  25
ENDBRANCH   3  20
TORSDOF 10
ENDMDL
MODEL 6
REMARK VINA RESULT:      -6.9      1.270      1.613
REMARK  Name = 
REMARK  12 active torsions:
REMARK  status: ('A' for Active; 'I' for Inactive)
REMARK    1  A    between atoms: C_1  and  C_2
REMARK    2  A    between atoms: C_2  and  C_3
REMARK    3  A    between atoms: C_2  and  C_4
REMARK    4  A    between atoms: C_4  and  S_5
REMARK    5  A    between atoms: C_4  and  C_6
REMARK    6  A    between atoms: N_8  and  C_9
REMARK    7  A    between atoms: C_9  and  C_10
REMARK    8  A    between atoms: N_12  and  CA_13
REMARK    9  A    between atoms: CA_13  and  C_14
REMARK   10  A    between atoms: CA_13  and  C_21
REMARK   11  A    between atoms: C_14  and  C_15
REMARK   12  A    between atoms: C_21  and  OXT_23
REMARK                            x       y       z     vdW  Elec       q    Type
REMARK                         _______ _______ _______ _____ _____    ______ ____
ROOT
ATOM      1  C   UNL     1       4.957   6.399  16.848  0.00  0.00    +0.000 C 
ATOM      2  O   UNL     1       4.572   7.561  16.735  0.00  0.00    +0.000 OA
ATOM      3  N   UNL     1       4.150   5.412  17.366  0.00  0.00    +0.000 N 
ATOM      4  H   UNL     1       4.647   4.582  17.675  0.00  0.00    +0.000 HD
ENDROOT
BRANCH   1   5
ATOM      5  C   UNL     1       6.428   5.955  16.564  0.00  0.00    +0.000 C 
ATOM      6  C   UNL     1       6.774   4.694  17.383  0.00  0.00    +0.000 C 
ATOM      7  C   UNL     1       7.229   5.204  18.745  0.00  0.00    +0.000 C 
ATOM      8  C   UNL     1       7.688   6.641  18.534  0.00  0.00    +0.000 C 
ATOM      9  C   UNL     1       7.503   6.938  17.050  0.00  0.00    +0.000 C 
BRANCH   5  12
ATOM     10  C   UNL     1       6.006   4.556  14.507  0.00  0.00    +0.000 C 
ATOM     11  O   UNL     1       5.423   3.663  15.125  0.00  0.00    +0.000 OA
ATOM     12  N   UNL     1       6.544   5.664  15.128  0.00  0.00    +0.000 N 
ATOM     13  H   UNL     1       6.956   6.391  14.549  0.00  0.00    +0.000 HD
BRANCH  10  14
ATOM     14  C   UNL     1       6.215   4.527  12.984  0.00  0.00    +0.000 C 
BRANCH  14  16
ATOM     15  C   UNL     1       6.984   2.582  11.495  0.00  0.00    +0.000 C 
ATOM     16  C   UNL     1       5.879   3.135  12.405  0.00  0.00    +0.000 C 
ATOM     17  C   UNL     1       4.573   3.178  11.597  0.00  0.00    +0.000 C 
ENDBRANCH  14  16
BRANCH  14  18
ATOM     18  S   UNL     1       7.957   5.036  12.687  0.00  0.00    +0.000 S 
ATOM     19  H   UNL     1       8.454   4.483  13.805  0.00  0.00    +0.000 HD
ENDBRANCH  14  18
ENDBRANCH  10  14
ENDBRANCH   5  12
ENDBRANCH   1   5
BRANCH   3  20
ATOM     20  CA  UNL     1       2.787   5.616  17.868  0.00  0.00    +0.000 C 
BRANCH  20  21
ATOM     21  C   UNL     1       2.838   6.438  19.173  0.00  0.00    +0.000 C 
ATOM     22  O   UNL     1       2.098   7.374  19.450  0.00  0.00    +0.000 OA
BRANCH  21  23
ATOM     23  OXT UNL     1       3.891   6.127  19.973  0.00  0.00    +0.000 OA
ATOM     24  HXT UNL     1       4.089   6.777  20.687  0.00  0.00    +0.000 HD
ENDBRANCH  21  23
ENDBRANCH  20  21
BRANCH  20  25
ATOM     25  C   UNL     1       1.950   4.325  18.007  0.00  0.00    +0.000 C 
BRANCH  25  26
ATOM     26  C   UNL     1       2.067   3.645  19.348  0.00  0.00    +0.000 A 
ATOM     27  C   UNL     1       3.228   2.965  19.715  0.00  0.00    +0.000 A 
ATOM     28  C   UNL     1       3.264   2.257  20.910  0.00  0.00    +0.000 A 
ATOM     29  C   UNL     1       2.136   2.266  21.712  0.00  0.00    +0.000 A 
ATOM     30  N   UNL     1       1.011   2.950  21.415  0.00  0.00    +0.000 NA
ATOM     31  C   UNL     1       1.007   3.633  20.249  0.00  0.00    +0.000 A 
ENDBRANCH  25  26
ENDBRANCH  20  25
ENDBRANCH   3  20
TORSDOF 10
ENDMDL
MODEL 7
REMARK VINA RESULT:      -6.9      2.821      5.614
REMARK  Name = 
REMARK  12 active torsions:
REMARK  status: ('A' for Active; 'I' for Inactive)
REMARK    1  A    between atoms: C_1  and  C_2
REMARK    2  A    between atoms: C_2  and  C_3
REMARK    3  A    between atoms: C_2  and  C_4
REMARK    4  A    between atoms: C_4  and  S_5
REMARK    5  A    between atoms: C_4  and  C_6
REMARK    6  A    between atoms: N_8  and  C_9
REMARK    7  A    between atoms: C_9  and  C_10
REMARK    8  A    between atoms: N_12  and  CA_13
REMARK    9  A    between atoms: CA_13  and  C_14
REMARK   10  A    between atoms: CA_13  and  C_21
REMARK   11  A    between atoms: C_14  and  C_15
REMARK   12  A    between atoms: C_21  and  OXT_23
REMARK                            x       y       z     vdW  Elec       q    Type
REMARK                         _______ _______ _______ _____ _____    ______ ____
ROOT
ATOM      1  C   UNL     1       2.197   5.100  18.710  0.00  0.00    +0.000 C 
ATOM      2  O   UNL     1       1.486   5.089  17.707  0.00  0.00    +0.000 OA
ATOM      3  N   UNL     1       2.419   6.251  19.432  0.00  0.00    +0.000 N 
ATOM      4  H   UNL     1       3.224   6.211  20.048  0.00  0.00    +0.000 HD
ENDROOT
BRANCH   1   5
ATOM      5  C   UNL     1       3.033   3.867  19.178  0.00  0.00    +0.000 C 
ATOM      6  C   UNL     1       2.565   2.593  18.445  0.00  0.00    +0.000 C 
ATOM      7  C   UNL     1       1.392   2.061  19.259  0.00  0.00    +0.000 C 
ATOM      8  C   UNL     1       1.554   2.625  20.664  0.00  0.00    +0.000 C 
ATOM      9  C   UNL     1       2.826   3.467  20.646  0.00  0.00    +0.000 C 
BRANCH   5  12
ATOM     10  C   UNL     1       4.944   4.324  17.594  0.00  0.00    +0.000 C 
ATOM     11  O   UNL     1       4.245   4.224  16.583  0.00  0.00    +0.000 OA
ATOM     12  N   UNL     1       4.445   4.133  18.866  0.00  0.00    +0.000 N 
ATOM     13  H   UNL     1       5.064   4.291  19.657  0.00  0.00    +0.000 HD
BRANCH  10  14
ATOM     14  C   UNL     1       6.445   4.651  17.551  0.00  0.00    +0.000 C 
BRANCH  14  16
ATOM     15  C   UNL     1       7.276   7.078  17.450  0.00  0.00    +0.000 C 
ATOM     16  C   UNL     1       6.753   5.943  18.341  0.00  0.00    +0.000 C 
ATOM     17  C   UNL     1       7.797   5.679  19.437  0.00  0.00    +0.000 C 
ENDBRANCH  14  16
BRANCH  14  18
ATOM     18  S   UNL     1       6.903   4.759  15.773  0.00  0.00    +0.000 S 
ATOM     19  H   UNL     1       6.774   3.447  15.519  0.00  0.00    +0.000 HD
ENDBRANCH  14  18
ENDBRANCH  10  14
ENDBRANCH   5  12
ENDBRANCH   1   5
BRANCH   3  20
ATOM     20  CA  UNL     1       1.886   7.574  19.092  0.00  0.00    +0.000 C 
BRANCH  20  21
ATOM     21  C   UNL     1       2.709   8.178  17.935  0.00  0.00    +0.000 C 
ATOM     22  O   UNL     1       2.477   9.245  17.382  0.00  0.00    +0.000 OA
BRANCH  21  23
ATOM     23  OXT UNL     1       3.674   7.346  17.461  0.00  0.00    +0.000 OA
ATOM     24  HXT UNL     1       3.507   6.969  16.565  0.00  0.00    +0.000 HD
ENDBRANCH  21  23
ENDBRANCH  20  21
BRANCH  20  25
ATOM     25  C   UNL     1       1.741   8.540  20.289  0.00  0.00    +0.000 C 
BRANCH  25  26
ATOM     26  C   UNL     1       0.729   9.639  20.087  0.00  0.00    +0.000 A 
ATOM     27  C   UNL     1      -0.368   9.467  19.242  0.00  0.00    +0.000 A 
ATOM     28  C   UNL     1      -1.221  10.535  18.993  0.00  0.00    +0.000 A 
ATOM     29  C   UNL     1      -0.957  11.744  19.613  0.00  0.00    +0.000 A 
ATOM     30  N   UNL     1       0.064  11.937  20.474  0.00  0.00    +0.000 NA
ATOM     31  C   UNL     1       0.874  10.879  20.701  0.00  0.00    +0.000 A 
ENDBRANCH  25  26
ENDBRANCH  20  25
ENDBRANCH   3  20
TORSDOF 10
ENDMDL
MODEL 8
REMARK VINA RESULT:      -6.9      2.938      7.654
REMARK  Name = 
REMARK  12 active torsions:
REMARK  status: ('A' for Active; 'I' for Inactive)
REMARK    1  A    between atoms: C_1  and  C_2
REMARK    2  A    between atoms: C_2  and  C_3
REMARK    3  A    between atoms: C_2  and  C_4
REMARK    4  A    between atoms: C_4  and  S_5
REMARK    5  A    between atoms: C_4  and  C_6
REMARK    6  A    between atoms: N_8  and  C_9
REMARK    7  A    between atoms: C_9  and  C_10
REMARK    8  A    between atoms: N_12  and  CA_13
REMARK    9  A    between atoms: CA_13  and  C_14
REMARK   10  A    between atoms: CA_13  and  C_21
REMARK   11  A    between atoms: C_14  and  C_15
REMARK   12  A    between atoms: C_21  and  OXT_23
REMARK                            x       y       z     vdW  Elec       q    Type
REMARK                         _______ _______ _______ _____ _____    ______ ____
ROOT
ATOM      1  C   UNL     1       4.019   4.936  19.238  0.00  0.00    +0.000 C 
ATOM      2  O   UNL     1       4.998   5.208  19.929  0.00  0.00    +0.000 OA
ATOM      3  N   UNL     1       4.119   4.733  17.880  0.00  0.00    +0.000 N 
ATOM      4  H   UNL     1       3.239   4.801  17.380  0.00  0.00    +0.000 HD
ENDROOT
BRANCH   1   5
ATOM      5  C   UNL     1       2.557   4.943  19.789  0.00  0.00    +0.000 C 
ATOM      6  C   UNL     1       2.425   3.958  20.968  0.00  0.00    +0.000 C 
ATOM      7  C   UNL     1       2.142   2.600  20.337  0.00  0.00    +0.000 C 
ATOM      8  C   UNL     1       1.558   2.881  18.959  0.00  0.00    +0.000 C 
ATOM      9  C   UNL     1       1.499   4.398  18.818  0.00  0.00    +0.000 C 
BRANCH   5  12
ATOM     10  C   UNL     1       2.199   7.413  19.417  0.00  0.00    +0.000 C 
ATOM     11  O   UNL     1       2.472   7.362  18.216  0.00  0.00    +0.000 OA
ATOM     12  N   UNL     1       2.250   6.308  20.241  0.00  0.00    +0.000 N 
ATOM     13  H   UNL     1       1.952   6.411  21.207  0.00  0.00    +0.000 HD
BRANCH  10  14
ATOM     14  C   UNL     1       1.790   8.711  20.132  0.00  0.00    +0.000 C 
BRANCH  14  16
ATOM     15  C   UNL     1      -0.472   8.524  21.333  0.00  0.00    +0.000 C 
ATOM     16  C   UNL     1       1.054   8.406  21.456  0.00  0.00    +0.000 C 
ATOM     17  C   UNL     1       1.516   9.355  22.572  0.00  0.00    +0.000 C 
ENDBRANCH  14  16
BRANCH  14  18
ATOM     18  S   UNL     1       0.771   9.666  18.936  0.00  0.00    +0.000 S 
ATOM     19  H   UNL     1      -0.285   9.823  19.751  0.00  0.00    +0.000 HD
ENDBRANCH  14  18
ENDBRANCH  10  14
ENDBRANCH   5  12
ENDBRANCH   1   5
BRANCH   3  20
ATOM     20  CA  UNL     1       5.357   4.846  17.102  0.00  0.00    +0.000 C 
BRANCH  20  21
ATOM     21  C   UNL     1       5.511   6.293  16.589  0.00  0.00    +0.000 C 
ATOM     22  O   UNL     1       6.458   7.032  16.827  0.00  0.00    +0.000 OA
BRANCH  21  23
ATOM     23  OXT UNL     1       4.415   6.759  15.935  0.00  0.00    +0.000 OA
ATOM     24  HXT UNL     1       4.224   7.719  16.057  0.00  0.00    +0.000 HD
ENDBRANCH  21  23
ENDBRANCH  20  21
BRANCH  20  25
ATOM     25  C   UNL     1       5.512   3.795  15.980  0.00  0.00    +0.000 C 
BRANCH  25  26
ATOM     26  C   UNL     1       6.264   4.280  14.767  0.00  0.00    +0.000 A 
ATOM     27  C   UNL     1       5.890   3.892  13.480  0.00  0.00    +0.000 A 
ATOM     28  C   UNL     1       6.668   4.268  12.392  0.00  0.00    +0.000 A 
ATOM     29  C   UNL     1       7.794   5.039  12.626  0.00  0.00    +0.000 A 
ATOM     30  N   UNL     1       8.163   5.475  13.850  0.00  0.00    +0.000 NA
ATOM     31  C   UNL     1       7.383   5.097  14.887  0.00  0.00    +0.000 A 
ENDBRANCH  25  26
ENDBRANCH  20  25
ENDBRANCH   3  20
TORSDOF 10
ENDMDL
MODEL 9
REMARK VINA RESULT:      -6.8      3.200      5.577
REMARK  Name = 
REMARK  12 active torsions:
REMARK  status: ('A' for Active; 'I' for Inactive)
REMARK    1  A    between atoms: C_1  and  C_2
REMARK    2  A    between atoms: C_2  and  C_3
REMARK    3  A    between atoms: C_2  and  C_4
REMARK    4  A    between atoms: C_4  and  S_5
REMARK    5  A    between atoms: C_4  and  C_6
REMARK    6  A    between atoms: N_8  and  C_9
REMARK    7  A    between atoms: C_9  and  C_10
REMARK    8  A    between atoms: N_12  and  CA_13
REMARK    9  A    between atoms: CA_13  and  C_14
REMARK   10  A    between atoms: CA_13  and  C_21
REMARK   11  A    between atoms: C_14  and  C_15
REMARK   12  A    between atoms: C_21  and  OXT_23
REMARK                            x       y       z     vdW  Elec       q    Type
REMARK                         _______ _______ _______ _____ _____    ______ ____
ROOT
ATOM      1  C   UNL     1       2.003   5.988  20.063  0.00  0.00    +0.000 C 
ATOM      2  O   UNL     1       1.342   6.052  21.098  0.00  0.00    +0.000 OA
ATOM      3  N   UNL     1       2.120   7.059  19.207  0.00  0.00    +0.000 N 
ATOM      4  H   UNL     1       2.435   6.818  18.274  0.00  0.00    +0.000 HD
ENDROOT
BRANCH   1   5
ATOM      5  C   UNL     1       2.644   4.663  19.540  0.00  0.00    +0.000 C 
ATOM      6  C   UNL     1       1.712   3.987  18.514  0.00  0.00    +0.000 C 
ATOM      7  C   UNL     1       0.739   3.150  19.335  0.00  0.00    +0.000 C 
ATOM      8  C   UNL     1       1.424   2.881  20.668  0.00  0.00    +0.000 C 
ATOM      9  C   UNL     1       2.789   3.557  20.594  0.00  0.00    +0.000 C 
BRANCH   5  12
ATOM     10  C   UNL     1       4.603   4.183  18.024  0.00  0.00    +0.000 C 
ATOM     11  O   UNL     1       4.217   3.048  17.737  0.00  0.00    +0.000 OA
ATOM     12  N   UNL     1       3.925   5.001  18.903  0.00  0.00    +0.000 N 
ATOM     13  H   UNL     1       4.268   5.948  19.046  0.00  0.00    +0.000 HD
BRANCH  10  14
ATOM     14  C   UNL     1       5.887   4.804  17.452  0.00  0.00    +0.000 C 
BRANCH  14  16
ATOM     15  C   UNL     1       5.048   6.848  16.144  0.00  0.00    +0.000 C 
ATOM     16  C   UNL     1       5.781   6.344  17.395  0.00  0.00    +0.000 C 
ATOM     17  C   UNL     1       7.174   6.992  17.423  0.00  0.00    +0.000 C 
ENDBRANCH  14  16
BRANCH  14  18
ATOM     18  S   UNL     1       6.149   4.032  15.803  0.00  0.00    +0.000 S 
ATOM     19  H   UNL     1       5.189   4.727  15.173  0.00  0.00    +0.000 HD
ENDBRANCH  14  18
ENDBRANCH  10  14
ENDBRANCH   5  12
ENDBRANCH   1   5
BRANCH   3  20
ATOM     20  CA  UNL     1       1.466   8.359  19.392  0.00  0.00    +0.000 C 
BRANCH  20  21
ATOM     21  C   UNL     1       1.478   9.135  18.058  0.00  0.00    +0.000 C 
ATOM     22  O   UNL     1       2.430   9.213  17.293  0.00  0.00    +0.000 OA
BRANCH  21  23
ATOM     23  OXT UNL     1       0.354   9.867  17.843  0.00  0.00    +0.000 OA
ATOM     24  HXT UNL     1       0.420  10.824  18.072  0.00  0.00    +0.000 HD
ENDBRANCH  21  23
ENDBRANCH  20  21
BRANCH  20  25
ATOM     25  C   UNL     1       2.010   9.194  20.573  0.00  0.00    +0.000 C 
BRANCH  25  26
ATOM     26  C   UNL     1       0.947   9.851  21.417  0.00  0.00    +0.000 A 
ATOM     27  C   UNL     1       0.403   9.206  22.527  0.00  0.00    +0.000 A 
ATOM     28  C   UNL     1      -0.650   9.791  23.219  0.00  0.00    +0.000 A 
ATOM     29  C   UNL     1      -1.118  11.019  22.784  0.00  0.00    +0.000 A 
ATOM     30  N   UNL     1      -0.588  11.698  21.745  0.00  0.00    +0.000 NA
ATOM     31  C   UNL     1       0.439  11.105  21.095  0.00  0.00    +0.000 A 
ENDBRANCH  25  26
ENDBRANCH  20  25
ENDBRANCH   3  20
TORSDOF 10
ENDMDL
