MODEL 1
REMARK VINA RESULT:      -8.3      0.000      0.000
REMARK  Name = 
REMARK  8 active torsions:
REMARK  status: ('A' for Active; 'I' for Inactive)
REMARK    1  A    between atoms: C_2  and  C_11
REMARK    2  A    between atoms: N_3  and  C_4
REMARK    3  A    between atoms: C_4  and  C_5
REMARK    4  A    between atoms: C_14  and  O_15
REMARK    5  A    between atoms: O_15  and  C_16
REMARK    6  A    between atoms: C_19  and  C_20
REMARK    7  A    between atoms: C_21  and  C_22
REMARK    8  A    between atoms: C_22  and  O_23
REMARK                            x       y       z     vdW  Elec       q    Type
REMARK                         _______ _______ _______ _____ _____    ______ ____
ROOT
ATOM      1  O   UNL     1       0.688  12.475  19.779  0.00  0.00    +0.000 OA
ENDROOT
BRANCH   1   5
ATOM      2  C   UNL     1       3.904  15.080  19.145  0.00  0.00    +0.000 A 
ATOM      3  C   UNL     1       3.662  14.504  20.398  0.00  0.00    +0.000 A 
ATOM      4  C   UNL     1       2.573  13.641  20.578  0.00  0.00    +0.000 A 
ATOM      5  C   UNL     1       1.723  13.342  19.513  0.00  0.00    +0.000 A 
ATOM      6  C   UNL     1       2.001  13.860  18.247  0.00  0.00    +0.000 A 
ATOM      7  C   UNL     1       3.067  14.745  18.071  0.00  0.00    +0.000 A 
BRANCH   2   9
ATOM      8  O   UNL     1       4.838  17.220  18.847  0.00  0.00    +0.000 OA
ATOM      9  C   UNL     1       5.041  16.008  18.864  0.00  0.00    +0.000 C 
ATOM     10  N   UNL     1       6.293  15.462  18.670  0.00  0.00    +0.000 N 
ATOM     11  H   UNL     1       6.456  14.471  18.728  0.00  0.00    +0.000 HD
BRANCH  10  12
ATOM     12  C   UNL     1       7.440  16.303  18.401  0.00  0.00    +0.000 C 
BRANCH  12  13
ATOM     13  C   UNL     1       8.643  15.484  18.019  0.00  0.00    +0.000 A 
ATOM     14  C   UNL     1       8.604  14.088  18.090  0.00  0.00    +0.000 A 
ATOM     15  C   UNL     1       9.737  13.373  17.735  0.00  0.00    +0.000 A 
ATOM     16  N   UNL     1      10.890  13.944  17.325  0.00  0.00    +0.000 NA
ATOM     17  C   UNL     1      10.911  15.293  17.276  0.00  0.00    +0.000 A 
ATOM     18  C   UNL     1       9.831  16.096  17.611  0.00  0.00    +0.000 A 
ENDBRANCH  12  13
ENDBRANCH  10  12
ENDBRANCH   2   9
ENDBRANCH   1   5
BRANCH   1  19
ATOM     19  C   UNL     1       0.935  11.127  19.907  0.00  0.00    +0.000 A 
ATOM     20  C   UNL     1       1.349  10.470  18.745  0.00  0.00    +0.000 A 
ATOM     21  C   UNL     1       1.650   9.104  18.777  0.00  0.00    +0.000 A 
ATOM     22  C   UNL     1       1.533   8.396  19.973  0.00  0.00    +0.000 A 
ATOM     23  C   UNL     1       1.135   9.051  21.138  0.00  0.00    +0.000 A 
ATOM     24  C   UNL     1       0.865  10.420  21.111  0.00  0.00    +0.000 A 
BRANCH  22  25
ATOM     25  C   UNL     1       1.857   7.007  20.033  0.00  0.00    +0.000 C 
ATOM     26  C   UNL     1       2.094   5.728  20.102  0.00  0.00    +0.000 C 
BRANCH  26  27
ATOM     27  C   UNL     1       2.371   4.235  20.183  0.00  0.00    +0.000 C 
ATOM     28  C   UNL     1       3.801   3.970  19.596  0.00  0.00    +0.000 C 
ATOM     29  N   UNL     1       3.778   3.074  18.405  0.00  0.00    +0.000 NA
ATOM     30  C   UNL     1       3.229   1.771  18.830  0.00  0.00    +0.000 C 
ATOM     31  C   UNL     1       1.816   1.913  19.426  0.00  0.00    +0.000 C 
ATOM     32  C   UNL     1       1.367   3.391  19.364  0.00  0.00    +0.000 C 
ATOM     33  C   UNL     1       1.438   3.796  17.880  0.00  0.00    +0.000 C 
ATOM     34  C   UNL     1       2.887   3.667  17.383  0.00  0.00    +0.000 C 
BRANCH  27  35
ATOM     35  O   UNL     1       2.307   3.841  21.552  0.00  0.00    +0.000 OA
ATOM     36  H   UNL     1       3.168   4.057  21.948  0.00  0.00    +0.000 HD
ENDBRANCH  27  35
ENDBRANCH  26  27
ENDBRANCH  22  25
ENDBRANCH   1  19
TORSDOF 8
ENDMDL
MODEL 2
REMARK VINA RESULT:      -8.1      0.303      1.448
REMARK  Name = 
REMARK  8 active torsions:
REMARK  status: ('A' for Active; 'I' for Inactive)
REMARK    1  A    between atoms: C_2  and  C_11
REMARK    2  A    between atoms: N_3  and  C_4
REMARK    3  A    between atoms: C_4  and  C_5
REMARK    4  A    between atoms: C_14  and  O_15
REMARK    5  A    between atoms: O_15  and  C_16
REMARK    6  A    between atoms: C_19  and  C_20
REMARK    7  A    between atoms: C_21  and  C_22
REMARK    8  A    between atoms: C_22  and  O_23
REMARK                            x       y       z     vdW  Elec       q    Type
REMARK                         _______ _______ _______ _____ _____    ______ ____
ROOT
ATOM      1  O   UNL     1       0.840  12.415  19.669  0.00  0.00    +0.000 OA
ENDROOT
BRANCH   1   5
ATOM      2  C   UNL     1       3.904  15.206  19.064  0.00  0.00    +0.000 A 
ATOM      3  C   UNL     1       3.088  14.771  18.012  0.00  0.00    +0.000 A 
ATOM      4  C   UNL     1       2.076  13.831  18.247  0.00  0.00    +0.000 A 
ATOM      5  C   UNL     1       1.865  13.323  19.529  0.00  0.00    +0.000 A 
ATOM      6  C   UNL     1       2.631  13.805  20.593  0.00  0.00    +0.000 A 
ATOM      7  C   UNL     1       3.660  14.718  20.357  0.00  0.00    +0.000 A 
BRANCH   2   9
ATOM      8  O   UNL     1       4.732  17.402  18.895  0.00  0.00    +0.000 OA
ATOM      9  C   UNL     1       5.004  16.204  18.903  0.00  0.00    +0.000 C 
ATOM     10  N   UNL     1       6.298  15.735  18.805  0.00  0.00    +0.000 N 
ATOM     11  H   UNL     1       6.513  14.754  18.856  0.00  0.00    +0.000 HD
BRANCH  10  12
ATOM     12  C   UNL     1       7.411  16.646  18.654  0.00  0.00    +0.000 C 
BRANCH  12  13
ATOM     13  C   UNL     1       8.640  15.934  18.159  0.00  0.00    +0.000 A 
ATOM     14  C   UNL     1       9.670  16.643  17.534  0.00  0.00    +0.000 A 
ATOM     15  C   UNL     1      10.782  15.947  17.087  0.00  0.00    +0.000 A 
ATOM     16  N   UNL     1      10.934  14.611  17.215  0.00  0.00    +0.000 NA
ATOM     17  C   UNL     1       9.923  13.943  17.809  0.00  0.00    +0.000 A 
ATOM     18  C   UNL     1       8.771  14.549  18.288  0.00  0.00    +0.000 A 
ENDBRANCH  12  13
ENDBRANCH  10  12
ENDBRANCH   2   9
ENDBRANCH   1   5
BRANCH   1  19
ATOM     19  C   UNL     1       1.116  11.067  19.700  0.00  0.00    +0.000 A 
ATOM     20  C   UNL     1       0.938  10.436  20.934  0.00  0.00    +0.000 A 
ATOM     21  C   UNL     1       1.167   9.062  21.063  0.00  0.00    +0.000 A 
ATOM     22  C   UNL     1       1.578   8.321  19.954  0.00  0.00    +0.000 A 
ATOM     23  C   UNL     1       1.743   8.944  18.718  0.00  0.00    +0.000 A 
ATOM     24  C   UNL     1       1.484  10.308  18.584  0.00  0.00    +0.000 A 
BRANCH  22  25
ATOM     25  C   UNL     1       1.796   6.914  20.059  0.00  0.00    +0.000 C 
ATOM     26  C   UNL     1       2.028   5.632  20.103  0.00  0.00    +0.000 C 
BRANCH  26  27
ATOM     27  C   UNL     1       2.298   4.137  20.153  0.00  0.00    +0.000 C 
ATOM     28  C   UNL     1       3.769   3.890  19.668  0.00  0.00    +0.000 C 
ATOM     29  N   UNL     1       3.837   3.035  18.449  0.00  0.00    +0.000 NA
ATOM     30  C   UNL     1       3.257   1.720  18.786  0.00  0.00    +0.000 C 
ATOM     31  C   UNL     1       1.803   1.844  19.277  0.00  0.00    +0.000 C 
ATOM     32  C   UNL     1       1.360   3.324  19.232  0.00  0.00    +0.000 C 
ATOM     33  C   UNL     1       1.543   3.779  17.772  0.00  0.00    +0.000 C 
ATOM     34  C   UNL     1       3.026   3.665  17.383  0.00  0.00    +0.000 C 
BRANCH  27  35
ATOM     35  O   UNL     1       2.131   3.697  21.499  0.00  0.00    +0.000 OA
ATOM     36  H   UNL     1       3.011   3.709  21.911  0.00  0.00    +0.000 HD
ENDBRANCH  27  35
ENDBRANCH  26  27
ENDBRANCH  22  25
ENDBRANCH   1  19
TORSDOF 8
ENDMDL
MODEL 3
REMARK VINA RESULT:      -7.8      1.003      1.429
REMARK  Name = 
REMARK  8 active torsions:
REMARK  status: ('A' for Active; 'I' for Inactive)
REMARK    1  A    between atoms: C_2  and  C_11
REMARK    2  A    between atoms: N_3  and  C_4
REMARK    3  A    between atoms: C_4  and  C_5
REMARK    4  A    between atoms: C_14  and  O_15
REMARK    5  A    between atoms: O_15  and  C_16
REMARK    6  A    between atoms: C_19  and  C_20
REMARK    7  A    between atoms: C_21  and  C_22
REMARK    8  A    between atoms: C_22  and  O_23
REMARK                            x       y       z     vdW  Elec       q    Type
REMARK                         _______ _______ _______ _____ _____    ______ ____
ROOT
ATOM      1  O   UNL     1       0.304  12.438  20.807  0.00  0.00    +0.000 OA
ENDROOT
BRANCH   1   5
ATOM      2  C   UNL     1       3.012  15.243  19.278  0.00  0.00    +0.000 A 
ATOM      3  C   UNL     1       1.698  15.155  18.802  0.00  0.00    +0.000 A 
ATOM      4  C   UNL     1       0.819  14.200  19.330  0.00  0.00    +0.000 A 
ATOM      5  C   UNL     1       1.239  13.333  20.339  0.00  0.00    +0.000 A 
ATOM      6  C   UNL     1       2.526  13.463  20.864  0.00  0.00    +0.000 A 
ATOM      7  C   UNL     1       3.414  14.392  20.318  0.00  0.00    +0.000 A 
BRANCH   2   9
ATOM      8  O   UNL     1       3.686  17.020  17.891  0.00  0.00    +0.000 OA
ATOM      9  C   UNL     1       4.013  16.230  18.772  0.00  0.00    +0.000 C 
ATOM     10  N   UNL     1       5.267  16.236  19.348  0.00  0.00    +0.000 N 
ATOM     11  H   UNL     1       5.511  15.612  20.098  0.00  0.00    +0.000 HD
BRANCH  10  12
ATOM     12  C   UNL     1       6.283  17.169  18.911  0.00  0.00    +0.000 C 
BRANCH  12  13
ATOM     13  C   UNL     1       7.646  16.534  18.906  0.00  0.00    +0.000 A 
ATOM     14  C   UNL     1       7.981  15.576  17.944  0.00  0.00    +0.000 A 
ATOM     15  C   UNL     1       9.246  15.011  17.979  0.00  0.00    +0.000 A 
ATOM     16  N   UNL     1      10.185  15.326  18.897  0.00  0.00    +0.000 NA
ATOM     17  C   UNL     1       9.838  16.242  19.826  0.00  0.00    +0.000 A 
ATOM     18  C   UNL     1       8.599  16.862  19.875  0.00  0.00    +0.000 A 
ENDBRANCH  12  13
ENDBRANCH  10  12
ENDBRANCH   2   9
ENDBRANCH   1   5
BRANCH   1  19
ATOM     19  C   UNL     1       0.576  11.088  20.791  0.00  0.00    +0.000 A 
ATOM     20  C   UNL     1       0.860  10.538  19.538  0.00  0.00    +0.000 A 
ATOM     21  C   UNL     1       1.175   9.181  19.419  0.00  0.00    +0.000 A 
ATOM     22  C   UNL     1       1.201   8.373  20.556  0.00  0.00    +0.000 A 
ATOM     23  C   UNL     1       0.933   8.921  21.810  0.00  0.00    +0.000 A 
ATOM     24  C   UNL     1       0.649  10.282  21.931  0.00  0.00    +0.000 A 
BRANCH  22  25
ATOM     25  C   UNL     1       1.541   6.990  20.460  0.00  0.00    +0.000 C 
ATOM     26  C   UNL     1       1.884   5.733  20.424  0.00  0.00    +0.000 C 
BRANCH  26  27
ATOM     27  C   UNL     1       2.285   4.267  20.383  0.00  0.00    +0.000 C 
ATOM     28  C   UNL     1       3.739   4.175  19.803  0.00  0.00    +0.000 C 
ATOM     29  N   UNL     1       3.806   3.386  18.539  0.00  0.00    +0.000 NA
ATOM     30  C   UNL     1       3.363   2.010  18.841  0.00  0.00    +0.000 C 
ATOM     31  C   UNL     1       1.937   1.981  19.420  0.00  0.00    +0.000 C 
ATOM     32  C   UNL     1       1.366   3.417  19.476  0.00  0.00    +0.000 C 
ATOM     33  C   UNL     1       1.419   3.953  18.033  0.00  0.00    +0.000 C 
ATOM     34  C   UNL     1       2.879   3.990  17.555  0.00  0.00    +0.000 C 
BRANCH  27  35
ATOM     35  O   UNL     1       2.239   3.752  21.712  0.00  0.00    +0.000 OA
ATOM     36  H   UNL     1       2.840   4.298  22.247  0.00  0.00    +0.000 HD
ENDBRANCH  27  35
ENDBRANCH  26  27
ENDBRANCH  22  25
ENDBRANCH   1  19
TORSDOF 8
ENDMDL
MODEL 4
REMARK VINA RESULT:      -7.8      0.566      1.221
REMARK  Name = 
REMARK  8 active torsions:
REMARK  status: ('A' for Active; 'I' for Inactive)
REMARK    1  A    between atoms: C_2  and  C_11
REMARK    2  A    between atoms: N_3  and  C_4
REMARK    3  A    between atoms: C_4  and  C_5
REMARK    4  A    between atoms: C_14  and  O_15
REMARK    5  A    between atoms: O_15  and  C_16
REMARK    6  A    between atoms: C_19  and  C_20
REMARK    7  A    between atoms: C_21  and  C_22
REMARK    8  A    between atoms: C_22  and  O_23
REMARK                            x       y       z     vdW  Elec       q    Type
REMARK                         _______ _______ _______ _____ _____    ______ ____
ROOT
ATOM      1  O   UNL     1       0.905  12.561  19.617  0.00  0.00    +0.000 OA
ENDROOT
BRANCH   1   5
ATOM      2  C   UNL     1       4.204  15.049  18.934  0.00  0.00    +0.000 A 
ATOM      3  C   UNL     1       3.335  14.682  17.900  0.00  0.00    +0.000 A 
ATOM      4  C   UNL     1       2.244  13.842  18.161  0.00  0.00    +0.000 A 
ATOM      5  C   UNL     1       2.008  13.369  19.451  0.00  0.00    +0.000 A 
ATOM      6  C   UNL     1       2.832  13.788  20.498  0.00  0.00    +0.000 A 
ATOM      7  C   UNL     1       3.938  14.598  20.236  0.00  0.00    +0.000 A 
BRANCH   2   9
ATOM      8  O   UNL     1       5.273  17.145  18.945  0.00  0.00    +0.000 OA
ATOM      9  C   UNL     1       5.389  15.939  18.745  0.00  0.00    +0.000 C 
ATOM     10  N   UNL     1       6.587  15.358  18.385  0.00  0.00    +0.000 N 
ATOM     11  H   UNL     1       6.682  14.364  18.265  0.00  0.00    +0.000 HD
BRANCH  10  12
ATOM     12  C   UNL     1       7.776  16.160  18.191  0.00  0.00    +0.000 C 
BRANCH  12  13
ATOM     13  C   UNL     1       9.025  15.342  18.375  0.00  0.00    +0.000 A 
ATOM     14  C   UNL     1      10.130  15.873  19.048  0.00  0.00    +0.000 A 
ATOM     15  C   UNL     1      11.263  15.087  19.190  0.00  0.00    +0.000 A 
ATOM     16  N   UNL     1      11.371  13.830  18.710  0.00  0.00    +0.000 NA
ATOM     17  C   UNL     1      10.299  13.341  18.052  0.00  0.00    +0.000 A 
ATOM     18  C   UNL     1       9.123  14.048  17.857  0.00  0.00    +0.000 A 
ENDBRANCH  12  13
ENDBRANCH  10  12
ENDBRANCH   2   9
ENDBRANCH   1   5
BRANCH   1  19
ATOM     19  C   UNL     1       1.065  11.202  19.765  0.00  0.00    +0.000 A 
ATOM     20  C   UNL     1       1.447  10.504  18.617  0.00  0.00    +0.000 A 
ATOM     21  C   UNL     1       1.660   9.123  18.670  0.00  0.00    +0.000 A 
ATOM     22  C   UNL     1       1.485   8.440  19.875  0.00  0.00    +0.000 A 
ATOM     23  C   UNL     1       1.119   9.135  21.026  0.00  0.00    +0.000 A 
ATOM     24  C   UNL     1       0.937  10.518  20.979  0.00  0.00    +0.000 A 
BRANCH  22  25
ATOM     25  C   UNL     1       1.719   7.034  19.956  0.00  0.00    +0.000 C 
ATOM     26  C   UNL     1       1.982   5.762  20.064  0.00  0.00    +0.000 C 
BRANCH  26  27
ATOM     27  C   UNL     1       2.290   4.279  20.190  0.00  0.00    +0.000 C 
ATOM     28  C   UNL     1       3.754   4.039  19.682  0.00  0.00    +0.000 C 
ATOM     29  N   UNL     1       3.813   3.119  18.511  0.00  0.00    +0.000 NA
ATOM     30  C   UNL     1       3.274   1.811  18.935  0.00  0.00    +0.000 C 
ATOM     31  C   UNL     1       1.830   1.929  19.457  0.00  0.00    +0.000 C 
ATOM     32  C   UNL     1       1.350   3.394  19.341  0.00  0.00    +0.000 C 
ATOM     33  C   UNL     1       1.485   3.771  17.854  0.00  0.00    +0.000 C 
ATOM     34  C   UNL     1       2.960   3.669  17.433  0.00  0.00    +0.000 C 
BRANCH  27  35
ATOM     35  O   UNL     1       2.167   3.911  21.563  0.00  0.00    +0.000 OA
ATOM     36  H   UNL     1       3.051   3.993  21.957  0.00  0.00    +0.000 HD
ENDBRANCH  27  35
ENDBRANCH  26  27
ENDBRANCH  22  25
ENDBRANCH   1  19
TORSDOF 8
ENDMDL
MODEL 5
REMARK VINA RESULT:      -7.8      6.190      9.357
REMARK  Name = 
REMARK  8 active torsions:
REMARK  status: ('A' for Active; 'I' for Inactive)
REMARK    1  A    between atoms: C_2  and  C_11
REMARK    2  A    between atoms: N_3  and  C_4
REMARK    3  A    between atoms: C_4  and  C_5
REMARK    4  A    between atoms: C_14  and  O_15
REMARK    5  A    between atoms: O_15  and  C_16
REMARK    6  A    between atoms: C_19  and  C_20
REMARK    7  A    between atoms: C_21  and  C_22
REMARK    8  A    between atoms: C_22  and  O_23
REMARK                            x       y       z     vdW  Elec       q    Type
REMARK                         _______ _______ _______ _____ _____    ______ ____
ROOT
ATOM      1  O   UNL     1      -1.037  11.971  22.919  0.00  0.00    +0.000 OA
ENDROOT
BRANCH   1   5
ATOM      2  C   UNL     1      -4.906  13.170  21.857  0.00  0.00    +0.000 A 
ATOM      3  C   UNL     1      -4.550  12.937  23.191  0.00  0.00    +0.000 A 
ATOM      4  C   UNL     1      -3.248  12.529  23.512  0.00  0.00    +0.000 A 
ATOM      5  C   UNL     1      -2.293  12.359  22.510  0.00  0.00    +0.000 A 
ATOM      6  C   UNL     1      -2.625  12.658  21.187  0.00  0.00    +0.000 A 
ATOM      7  C   UNL     1      -3.929  13.033  20.861  0.00  0.00    +0.000 A 
BRANCH   2   9
ATOM      8  O   UNL     1      -7.199  13.551  22.227  0.00  0.00    +0.000 OA
ATOM      9  C   UNL     1      -6.269  13.607  21.427  0.00  0.00    +0.000 C 
ATOM     10  N   UNL     1      -6.421  14.093  20.145  0.00  0.00    +0.000 N 
ATOM     11  H   UNL     1      -5.644  14.174  19.511  0.00  0.00    +0.000 HD
BRANCH  10  12
ATOM     12  C   UNL     1      -7.711  14.539  19.664  0.00  0.00    +0.000 C 
BRANCH  12  13
ATOM     13  C   UNL     1      -7.617  15.085  18.266  0.00  0.00    +0.000 A 
ATOM     14  C   UNL     1      -7.485  16.460  18.047  0.00  0.00    +0.000 A 
ATOM     15  C   UNL     1      -7.408  16.921  16.742  0.00  0.00    +0.000 A 
ATOM     16  N   UNL     1      -7.457  16.119  15.656  0.00  0.00    +0.000 NA
ATOM     17  C   UNL     1      -7.597  14.797  15.889  0.00  0.00    +0.000 A 
ATOM     18  C   UNL     1      -7.684  14.239  17.155  0.00  0.00    +0.000 A 
ENDBRANCH  12  13
ENDBRANCH  10  12
ENDBRANCH   2   9
ENDBRANCH   1   5
BRANCH   1  19
ATOM     19  C   UNL     1      -0.464  10.834  22.395  0.00  0.00    +0.000 A 
ATOM     20  C   UNL     1       0.424  11.032  21.335  0.00  0.00    +0.000 A 
ATOM     21  C   UNL     1       1.078   9.943  20.750  0.00  0.00    +0.000 A 
ATOM     22  C   UNL     1       0.838   8.654  21.227  0.00  0.00    +0.000 A 
ATOM     23  C   UNL     1      -0.035   8.453  22.295  0.00  0.00    +0.000 A 
ATOM     24  C   UNL     1      -0.663   9.544  22.897  0.00  0.00    +0.000 A 
BRANCH  22  25
ATOM     25  C   UNL     1       1.512   7.531  20.659  0.00  0.00    +0.000 C 
ATOM     26  C   UNL     1       2.106   6.522  20.086  0.00  0.00    +0.000 C 
BRANCH  26  27
ATOM     27  C   UNL     1       2.798   5.345  19.417  0.00  0.00    +0.000 C 
ATOM     28  C   UNL     1       1.897   4.860  18.228  0.00  0.00    +0.000 C 
ATOM     29  N   UNL     1       1.440   3.451  18.389  0.00  0.00    +0.000 NA
ATOM     30  C   UNL     1       2.638   2.587  18.415  0.00  0.00    +0.000 C 
ATOM     31  C   UNL     1       3.600   2.976  19.553  0.00  0.00    +0.000 C 
ATOM     32  C   UNL     1       3.000   4.144  20.369  0.00  0.00    +0.000 C 
ATOM     33  C   UNL     1       1.633   3.650  20.879  0.00  0.00    +0.000 C 
ATOM     34  C   UNL     1       0.726   3.329  19.680  0.00  0.00    +0.000 C 
BRANCH  27  35
ATOM     35  O   UNL     1       4.068   5.784  18.940  0.00  0.00    +0.000 OA
ATOM     36  H   UNL     1       4.695   5.687  19.675  0.00  0.00    +0.000 HD
ENDBRANCH  27  35
ENDBRANCH  26  27
ENDBRANCH  22  25
ENDBRANCH   1  19
TORSDOF 8
ENDMDL
MODEL 6
REMARK VINA RESULT:      -7.7      6.097      9.237
REMARK  Name = 
REMARK  8 active torsions:
REMARK  status: ('A' for Active; 'I' for Inactive)
REMARK    1  A    between atoms: C_2  and  C_11
REMARK    2  A    between atoms: N_3  and  C_4
REMARK    3  A    between atoms: C_4  and  C_5
REMARK    4  A    between atoms: C_14  and  O_15
REMARK    5  A    between atoms: O_15  and  C_16
REMARK    6  A    between atoms: C_19  and  C_20
REMARK    7  A    between atoms: C_21  and  C_22
REMARK    8  A    between atoms: C_22  and  O_23
REMARK                            x       y       z     vdW  Elec       q    Type
REMARK                         _______ _______ _______ _____ _____    ______ ____
ROOT
ATOM      1  O   UNL     1      -0.291  11.824  22.373  0.00  0.00    +0.000 OA
ENDROOT
BRANCH   1   5
ATOM      2  C   UNL     1      -4.262  12.819  21.490  0.00  0.00    +0.000 A 
ATOM      3  C   UNL     1      -3.281  12.761  20.493  0.00  0.00    +0.000 A 
ATOM      4  C   UNL     1      -1.959  12.431  20.823  0.00  0.00    +0.000 A 
ATOM      5  C   UNL     1      -1.608  12.152  22.144  0.00  0.00    +0.000 A 
ATOM      6  C   UNL     1      -2.597  12.142  23.129  0.00  0.00    +0.000 A 
ATOM      7  C   UNL     1      -3.908  12.501  22.809  0.00  0.00    +0.000 A 
BRANCH   2   9
ATOM      8  O   UNL     1      -6.481  13.216  22.167  0.00  0.00    +0.000 OA
ATOM      9  C   UNL     1      -5.692  13.161  21.227  0.00  0.00    +0.000 C 
ATOM     10  N   UNL     1      -6.066  13.438  19.928  0.00  0.00    +0.000 N 
ATOM     11  H   UNL     1      -5.404  13.431  19.171  0.00  0.00    +0.000 HD
BRANCH  10  12
ATOM     12  C   UNL     1      -7.433  13.782  19.602  0.00  0.00    +0.000 C 
BRANCH  12  13
ATOM     13  C   UNL     1      -7.501  14.675  18.394  0.00  0.00    +0.000 A 
ATOM     14  C   UNL     1      -7.700  16.052  18.537  0.00  0.00    +0.000 A 
ATOM     15  C   UNL     1      -7.763  16.838  17.397  0.00  0.00    +0.000 A 
ATOM     16  N   UNL     1      -7.647  16.352  16.142  0.00  0.00    +0.000 NA
ATOM     17  C   UNL     1      -7.469  15.020  16.025  0.00  0.00    +0.000 A 
ATOM     18  C   UNL     1      -7.394  14.151  17.103  0.00  0.00    +0.000 A 
ENDBRANCH  12  13
ENDBRANCH  10  12
ENDBRANCH   2   9
ENDBRANCH   1   5
BRANCH   1  19
ATOM     19  C   UNL     1       0.267  10.735  21.741  0.00  0.00    +0.000 A 
ATOM     20  C   UNL     1       0.510   9.621  22.548  0.00  0.00    +0.000 A 
ATOM     21  C   UNL     1       1.051   8.455  21.996  0.00  0.00    +0.000 A 
ATOM     22  C   UNL     1       1.352   8.409  20.634  0.00  0.00    +0.000 A 
ATOM     23  C   UNL     1       1.097   9.513  19.823  0.00  0.00    +0.000 A 
ATOM     24  C   UNL     1       0.528  10.664  20.369  0.00  0.00    +0.000 A 
BRANCH  22  25
ATOM     25  C   UNL     1       1.883   7.222  20.046  0.00  0.00    +0.000 C 
ATOM     26  C   UNL     1       2.402   6.129  19.561  0.00  0.00    +0.000 C 
BRANCH  26  27
ATOM     27  C   UNL     1       3.007   4.854  18.995  0.00  0.00    +0.000 C 
ATOM     28  C   UNL     1       2.117   4.383  17.792  0.00  0.00    +0.000 C 
ATOM     29  N   UNL     1       1.522   3.034  18.010  0.00  0.00    +0.000 NA
ATOM     30  C   UNL     1       2.629   2.067  18.144  0.00  0.00    +0.000 C 
ATOM     31  C   UNL     1       3.573   2.434  19.304  0.00  0.00    +0.000 C 
ATOM     32  C   UNL     1       3.052   3.700  20.022  0.00  0.00    +0.000 C 
ATOM     33  C   UNL     1       1.624   3.367  20.491  0.00  0.00    +0.000 C 
ATOM     34  C   UNL     1       0.743   3.058  19.269  0.00  0.00    +0.000 C 
BRANCH  27  35
ATOM     35  O   UNL     1       4.333   5.144  18.556  0.00  0.00    +0.000 OA
ATOM     36  H   UNL     1       4.879   5.243  19.354  0.00  0.00    +0.000 HD
ENDBRANCH  27  35
ENDBRANCH  26  27
ENDBRANCH  22  25
ENDBRANCH   1  19
TORSDOF 8
ENDMDL
MODEL 7
REMARK VINA RESULT:      -7.7      1.415      2.144
REMARK  Name = 
REMARK  8 active torsions:
REMARK  status: ('A' for Active; 'I' for Inactive)
REMARK    1  A    between atoms: C_2  and  C_11
REMARK    2  A    between atoms: N_3  and  C_4
REMARK    3  A    between atoms: C_4  and  C_5
REMARK    4  A    between atoms: C_14  and  O_15
REMARK    5  A    between atoms: O_15  and  C_16
REMARK    6  A    between atoms: C_19  and  C_20
REMARK    7  A    between atoms: C_21  and  C_22
REMARK    8  A    between atoms: C_22  and  O_23
REMARK                            x       y       z     vdW  Elec       q    Type
REMARK                         _______ _______ _______ _____ _____    ______ ____
ROOT
ATOM      1  O   UNL     1       0.630  11.586  19.074  0.00  0.00    +0.000 OA
ENDROOT
BRANCH   1   5
ATOM      2  C   UNL     1       3.165  14.891  19.508  0.00  0.00    +0.000 A 
ATOM      3  C   UNL     1       2.677  14.499  18.255  0.00  0.00    +0.000 A 
ATOM      4  C   UNL     1       1.836  13.384  18.143  0.00  0.00    +0.000 A 
ATOM      5  C   UNL     1       1.470  12.657  19.277  0.00  0.00    +0.000 A 
ATOM      6  C   UNL     1       1.898  13.086  20.535  0.00  0.00    +0.000 A 
ATOM      7  C   UNL     1       2.762  14.177  20.645  0.00  0.00    +0.000 A 
BRANCH   2   9
ATOM      8  O   UNL     1       3.779  16.896  20.576  0.00  0.00    +0.000 OA
ATOM      9  C   UNL     1       4.065  16.065  19.717  0.00  0.00    +0.000 C 
ATOM     10  N   UNL     1       5.210  16.151  18.953  0.00  0.00    +0.000 N 
ATOM     11  H   UNL     1       5.456  15.443  18.281  0.00  0.00    +0.000 HD
BRANCH  10  12
ATOM     12  C   UNL     1       6.129  17.258  19.108  0.00  0.00    +0.000 C 
BRANCH  12  13
ATOM     13  C   UNL     1       7.512  16.892  18.644  0.00  0.00    +0.000 A 
ATOM     14  C   UNL     1       8.469  17.884  18.410  0.00  0.00    +0.000 A 
ATOM     15  C   UNL     1       9.730  17.504  17.977  0.00  0.00    +0.000 A 
ATOM     16  N   UNL     1      10.095  16.222  17.760  0.00  0.00    +0.000 NA
ATOM     17  C   UNL     1       9.153  15.281  17.979  0.00  0.00    +0.000 A 
ATOM     18  C   UNL     1       7.866  15.560  18.410  0.00  0.00    +0.000 A 
ENDBRANCH  12  13
ENDBRANCH  10  12
ENDBRANCH   2   9
ENDBRANCH   1   5
BRANCH   1  19
ATOM     19  C   UNL     1       1.128  10.303  19.121  0.00  0.00    +0.000 A 
ATOM     20  C   UNL     1       1.793   9.865  17.974  0.00  0.00    +0.000 A 
ATOM     21  C   UNL     1       2.357   8.586  17.931  0.00  0.00    +0.000 A 
ATOM     22  C   UNL     1       2.250   7.744  19.039  0.00  0.00    +0.000 A 
ATOM     23  C   UNL     1       1.601   8.183  20.192  0.00  0.00    +0.000 A 
ATOM     24  C   UNL     1       1.065   9.471  20.244  0.00  0.00    +0.000 A 
BRANCH  22  25
ATOM     25  C   UNL     1       2.838   6.444  19.025  0.00  0.00    +0.000 C 
ATOM     26  C   UNL     1       3.427   5.281  18.992  0.00  0.00    +0.000 C 
BRANCH  26  27
ATOM     27  C   UNL     1       4.114   3.926  18.953  0.00  0.00    +0.000 C 
ATOM     28  C   UNL     1       3.721   3.217  17.610  0.00  0.00    +0.000 C 
ATOM     29  N   UNL     1       2.997   1.932  17.828  0.00  0.00    +0.000 NA
ATOM     30  C   UNL     1       3.901   1.022  18.559  0.00  0.00    +0.000 C 
ATOM     31  C   UNL     1       4.354   1.621  19.903  0.00  0.00    +0.000 C 
ATOM     32  C   UNL     1       3.685   2.999  20.113  0.00  0.00    +0.000 C 
ATOM     33  C   UNL     1       2.167   2.751  20.046  0.00  0.00    +0.000 C 
ATOM     34  C   UNL     1       1.800   2.198  18.659  0.00  0.00    +0.000 C 
BRANCH  27  35
ATOM     35  O   UNL     1       5.524   4.136  19.017  0.00  0.00    +0.000 OA
ATOM     36  H   UNL     1       5.816   4.362  18.119  0.00  0.00    +0.000 HD
ENDBRANCH  27  35
ENDBRANCH  26  27
ENDBRANCH  22  25
ENDBRANCH   1  19
TORSDOF 8
ENDMDL
MODEL 8
REMARK VINA RESULT:      -7.7      5.455     10.508
REMARK  Name = 
REMARK  8 active torsions:
REMARK  status: ('A' for Active; 'I' for Inactive)
REMARK    1  A    between atoms: C_2  and  C_11
REMARK    2  A    between atoms: N_3  and  C_4
REMARK    3  A    between atoms: C_4  and  C_5
REMARK    4  A    between atoms: C_14  and  O_15
REMARK    5  A    between atoms: O_15  and  C_16
REMARK    6  A    between atoms: C_19  and  C_20
REMARK    7  A    between atoms: C_21  and  C_22
REMARK    8  A    between atoms: C_22  and  O_23
REMARK                            x       y       z     vdW  Elec       q    Type
REMARK                         _______ _______ _______ _____ _____    ______ ____
ROOT
ATOM      1  O   UNL     1       2.945   5.927  19.727  0.00  0.00    +0.000 OA
ENDROOT
BRANCH   1   5
ATOM      2  C   UNL     1       5.787   5.194  16.740  0.00  0.00    +0.000 A 
ATOM      3  C   UNL     1       6.136   5.802  17.952  0.00  0.00    +0.000 A 
ATOM      4  C   UNL     1       5.159   6.040  18.929  0.00  0.00    +0.000 A 
ATOM      5  C   UNL     1       3.833   5.668  18.708  0.00  0.00    +0.000 A 
ATOM      6  C   UNL     1       3.494   5.000  17.530  0.00  0.00    +0.000 A 
ATOM      7  C   UNL     1       4.458   4.791  16.542  0.00  0.00    +0.000 A 
BRANCH   2   9
ATOM      8  O   UNL     1       7.870   4.456  15.932  0.00  0.00    +0.000 OA
ATOM      9  C   UNL     1       6.763   4.904  15.647  0.00  0.00    +0.000 C 
ATOM     10  N   UNL     1       6.362   5.120  14.344  0.00  0.00    +0.000 N 
ATOM     11  H   UNL     1       5.438   5.447  14.119  0.00  0.00    +0.000 HD
BRANCH  10  12
ATOM     12  C   UNL     1       7.254   4.854  13.236  0.00  0.00    +0.000 C 
BRANCH  12  13
ATOM     13  C   UNL     1       6.778   3.685  12.417  0.00  0.00    +0.000 A 
ATOM     14  C   UNL     1       5.413   3.402  12.309  0.00  0.00    +0.000 A 
ATOM     15  C   UNL     1       5.018   2.312  11.549  0.00  0.00    +0.000 A 
ATOM     16  N   UNL     1       5.877   1.495  10.903  0.00  0.00    +0.000 NA
ATOM     17  C   UNL     1       7.191   1.777  11.031  0.00  0.00    +0.000 A 
ATOM     18  C   UNL     1       7.684   2.842  11.769  0.00  0.00    +0.000 A 
ENDBRANCH  12  13
ENDBRANCH  10  12
ENDBRANCH   2   9
ENDBRANCH   1   5
BRANCH   1  19
ATOM     19  C   UNL     1       2.237   7.108  19.739  0.00  0.00    +0.000 A 
ATOM     20  C   UNL     1       1.592   7.420  20.938  0.00  0.00    +0.000 A 
ATOM     21  C   UNL     1       0.867   8.610  21.061  0.00  0.00    +0.000 A 
ATOM     22  C   UNL     1       0.788   9.486  19.978  0.00  0.00    +0.000 A 
ATOM     23  C   UNL     1       1.443   9.186  18.784  0.00  0.00    +0.000 A 
ATOM     24  C   UNL     1       2.191   8.013  18.674  0.00  0.00    +0.000 A 
BRANCH  22  25
ATOM     25  C   UNL     1       0.072  10.717  20.088  0.00  0.00    +0.000 C 
ATOM     26  C   UNL     1      -0.535  11.862  20.224  0.00  0.00    +0.000 C 
BRANCH  26  27
ATOM     27  C   UNL     1      -1.243  13.197  20.384  0.00  0.00    +0.000 C 
ATOM     28  C   UNL     1      -0.349  14.121  21.283  0.00  0.00    +0.000 C 
ATOM     29  N   UNL     1      -1.032  14.533  22.542  0.00  0.00    +0.000 NA
ATOM     30  C   UNL     1      -2.233  15.308  22.173  0.00  0.00    +0.000 C 
ATOM     31  C   UNL     1      -3.189  14.493  21.283  0.00  0.00    +0.000 C 
ATOM     32  C   UNL     1      -2.622  13.070  21.072  0.00  0.00    +0.000 C 
ATOM     33  C   UNL     1      -2.447  12.467  22.478  0.00  0.00    +0.000 C 
ATOM     34  C   UNL     1      -1.445  13.316  23.277  0.00  0.00    +0.000 C 
BRANCH  27  35
ATOM     35  O   UNL     1      -1.416  13.771  19.089  0.00  0.00    +0.000 OA
ATOM     36  H   UNL     1      -2.315  13.542  18.797  0.00  0.00    +0.000 HD
ENDBRANCH  27  35
ENDBRANCH  26  27
ENDBRANCH  22  25
ENDBRANCH   1  19
TORSDOF 8
ENDMDL
MODEL 9
REMARK VINA RESULT:      -7.6      0.917      1.396
REMARK  Name = 
REMARK  8 active torsions:
REMARK  status: ('A' for Active; 'I' for Inactive)
REMARK    1  A    between atoms: C_2  and  C_11
REMARK    2  A    between atoms: N_3  and  C_4
REMARK    3  A    between atoms: C_4  and  C_5
REMARK    4  A    between atoms: C_14  and  O_15
REMARK    5  A    between atoms: O_15  and  C_16
REMARK    6  A    between atoms: C_19  and  C_20
REMARK    7  A    between atoms: C_21  and  C_22
REMARK    8  A    between atoms: C_22  and  O_23
REMARK                            x       y       z     vdW  Elec       q    Type
REMARK                         _______ _______ _______ _____ _____    ______ ____
ROOT
ATOM      1  O   UNL     1       0.622  12.426  19.036  0.00  0.00    +0.000 OA
ENDROOT
BRANCH   1   5
ATOM      2  C   UNL     1       3.512  15.449  19.253  0.00  0.00    +0.000 A 
ATOM      3  C   UNL     1       2.585  15.244  20.282  0.00  0.00    +0.000 A 
ATOM      4  C   UNL     1       1.626  14.228  20.175  0.00  0.00    +0.000 A 
ATOM      5  C   UNL     1       1.589  13.406  19.048  0.00  0.00    +0.000 A 
ATOM      6  C   UNL     1       2.554  13.563  18.052  0.00  0.00    +0.000 A 
ATOM      7  C   UNL     1       3.490  14.595  18.141  0.00  0.00    +0.000 A 
BRANCH   2   9
ATOM      8  O   UNL     1       4.257  17.656  19.587  0.00  0.00    +0.000 OA
ATOM      9  C   UNL     1       4.566  16.507  19.285  0.00  0.00    +0.000 C 
ATOM     10  N   UNL     1       5.866  16.138  19.004  0.00  0.00    +0.000 N 
ATOM     11  H   UNL     1       6.116  15.185  18.799  0.00  0.00    +0.000 HD
BRANCH  10  12
ATOM     12  C   UNL     1       6.938  17.110  19.024  0.00  0.00    +0.000 C 
BRANCH  12  13
ATOM     13  C   UNL     1       8.285  16.442  18.962  0.00  0.00    +0.000 A 
ATOM     14  C   UNL     1       9.229  16.651  19.972  0.00  0.00    +0.000 A 
ATOM     15  C   UNL     1      10.460  16.022  19.873  0.00  0.00    +0.000 A 
ATOM     16  N   UNL     1      10.811  15.214  18.849  0.00  0.00    +0.000 NA
ATOM     17  C   UNL     1       9.891  15.036  17.878  0.00  0.00    +0.000 A 
ATOM     18  C   UNL     1       8.634  15.622  17.886  0.00  0.00    +0.000 A 
ENDBRANCH  12  13
ENDBRANCH  10  12
ENDBRANCH   2   9
ENDBRANCH   1   5
BRANCH   1  19
ATOM     19  C   UNL     1       0.983  11.103  19.163  0.00  0.00    +0.000 A 
ATOM     20  C   UNL     1       0.748  10.525  20.412  0.00  0.00    +0.000 A 
ATOM     21  C   UNL     1       1.055   9.179  20.635  0.00  0.00    +0.000 A 
ATOM     22  C   UNL     1       1.603   8.413  19.605  0.00  0.00    +0.000 A 
ATOM     23  C   UNL     1       1.825   8.983  18.352  0.00  0.00    +0.000 A 
ATOM     24  C   UNL     1       1.489  10.318  18.122  0.00  0.00    +0.000 A 
BRANCH  22  25
ATOM     25  C   UNL     1       1.903   7.032  19.804  0.00  0.00    +0.000 C 
ATOM     26  C   UNL     1       2.200   5.769  19.928  0.00  0.00    +0.000 C 
BRANCH  26  27
ATOM     27  C   UNL     1       2.545   4.296  20.073  0.00  0.00    +0.000 C 
ATOM     28  C   UNL     1       3.995   4.076  19.516  0.00  0.00    +0.000 C 
ATOM     29  N   UNL     1       4.032   3.134  18.362  0.00  0.00    +0.000 NA
ATOM     30  C   UNL     1       3.538   1.824  18.832  0.00  0.00    +0.000 C 
ATOM     31  C   UNL     1       2.111   1.922  19.403  0.00  0.00    +0.000 C 
ATOM     32  C   UNL     1       1.595   3.373  19.275  0.00  0.00    +0.000 C 
ATOM     33  C   UNL     1       1.668   3.722  17.777  0.00  0.00    +0.000 C 
ATOM     34  C   UNL     1       3.129   3.644  17.305  0.00  0.00    +0.000 C 
BRANCH  27  35
ATOM     35  O   UNL     1       2.479   3.953  21.456  0.00  0.00    +0.000 OA
ATOM     36  H   UNL     1       2.958   4.646  21.941  0.00  0.00    +0.000 HD
ENDBRANCH  27  35
ENDBRANCH  26  27
ENDBRANCH  22  25
ENDBRANCH   1  19
TORSDOF 8
ENDMDL
