MODEL 1
REMARK VINA RESULT:      -8.3      0.000      0.000
REMARK  Name = 
REMARK  7 active torsions:
REMARK  status: ('A' for Active; 'I' for Inactive)
REMARK    1  A    between atoms: N_1  and  S_2
REMARK    2  A    between atoms: S_2  and  C_5
REMARK    3  A    between atoms: C_5  and  C_8
REMARK    4  A    between atoms: C_8  and  C_11
REMARK    5  A    between atoms: C_11  and  C_14
REMARK    6  A    between atoms: C_14  and  C_17
REMARK    7  A    between atoms: C_17  and  C_20
REMARK                            x       y       z     vdW  Elec       q    Type
REMARK                         _______ _______ _______ _____ _____    ______ ____
ROOT
ATOM      1  C   UNL     1       3.409   3.679  17.506  0.00  0.00    +0.000 C 
ATOM      2  F   UNL     1       2.785   3.432  16.311  0.00  0.00    +0.000 F 
ATOM      3  F   UNL     1       4.005   2.490  17.840  0.00  0.00    +0.000 F 
ENDROOT
BRANCH   1   4
ATOM      4  C   UNL     1       4.513   4.711  17.265  0.00  0.00    +0.000 C 
ATOM      5  F   UNL     1       5.249   4.817  18.415  0.00  0.00    +0.000 F 
ATOM      6  F   UNL     1       3.955   5.938  17.098  0.00  0.00    +0.000 F 
BRANCH   4   7
ATOM      7  C   UNL     1       5.419   4.343  16.114  0.00  0.00    +0.000 C 
ATOM      8  F   UNL     1       4.862   4.710  14.923  0.00  0.00    +0.000 F 
ATOM      9  F   UNL     1       5.577   2.990  16.039  0.00  0.00    +0.000 F 
BRANCH   7  10
ATOM     10  S   UNL     1       7.012   5.216  16.291  0.00  0.00    +0.000 S 
ATOM     11  O   UNL     1       7.981   4.444  17.027  0.00  0.00    +0.000 OA
ATOM     12  O   UNL     1       6.788   6.618  16.583  0.00  0.00    +0.000 OA
BRANCH  10  13
ATOM     13  N   UNL     1       7.599   5.240  14.695  0.00  0.00    +0.000 NA
ATOM     14  H   UNL     1       7.006   4.658  14.096  0.00  0.00    +0.000 HD
ATOM     15  H   UNL     1       8.584   4.968  14.661  0.00  0.00    +0.000 HD
ENDBRANCH  10  13
ENDBRANCH   7  10
ENDBRANCH   4   7
ENDBRANCH   1   4
BRANCH   1  16
ATOM     16  C   UNL     1       2.325   3.974  18.545  0.00  0.00    +0.000 C 
ATOM     17  F   UNL     1       2.391   5.290  18.893  0.00  0.00    +0.000 F 
ATOM     18  F   UNL     1       1.098   3.830  17.961  0.00  0.00    +0.000 F 
BRANCH  16  19
ATOM     19  C   UNL     1       2.399   3.100  19.774  0.00  0.00    +0.000 C 
ATOM     20  F   UNL     1       1.988   1.834  19.490  0.00  0.00    +0.000 F 
ATOM     21  F   UNL     1       3.705   2.980  20.149  0.00  0.00    +0.000 F 
BRANCH  19  22
ATOM     22  C   UNL     1       1.602   3.690  20.929  0.00  0.00    +0.000 C 
ATOM     23  F   UNL     1       2.279   4.606  21.654  0.00  0.00    +0.000 F 
ATOM     24  F   UNL     1       0.459   4.282  20.506  0.00  0.00    +0.000 F 
ATOM     25  F   UNL     1       1.224   2.714  21.797  0.00  0.00    +0.000 F 
ENDBRANCH  19  22
ENDBRANCH  16  19
ENDBRANCH   1  16
TORSDOF 7
ENDMDL
MODEL 2
REMARK VINA RESULT:      -8.2      0.979      1.760
REMARK  Name = 
REMARK  7 active torsions:
REMARK  status: ('A' for Active; 'I' for Inactive)
REMARK    1  A    between atoms: N_1  and  S_2
REMARK    2  A    between atoms: S_2  and  C_5
REMARK    3  A    between atoms: C_5  and  C_8
REMARK    4  A    between atoms: C_8  and  C_11
REMARK    5  A    between atoms: C_11  and  C_14
REMARK    6  A    between atoms: C_14  and  C_17
REMARK    7  A    between atoms: C_17  and  C_20
REMARK                            x       y       z     vdW  Elec       q    Type
REMARK                         _______ _______ _______ _____ _____    ______ ____
ROOT
ATOM      1  C   UNL     1       3.505   5.147  18.353  0.00  0.00    +0.000 C 
ATOM      2  F   UNL     1       3.387   5.637  19.628  0.00  0.00    +0.000 F 
ATOM      3  F   UNL     1       3.018   6.147  17.550  0.00  0.00    +0.000 F 
ENDROOT
BRANCH   1   4
ATOM      4  C   UNL     1       4.993   4.972  18.043  0.00  0.00    +0.000 C 
ATOM      5  F   UNL     1       5.316   3.658  18.256  0.00  0.00    +0.000 F 
ATOM      6  F   UNL     1       5.727   5.661  18.955  0.00  0.00    +0.000 F 
BRANCH   4   7
ATOM      7  C   UNL     1       5.346   5.359  16.626  0.00  0.00    +0.000 C 
ATOM      8  F   UNL     1       4.803   6.569  16.305  0.00  0.00    +0.000 F 
ATOM      9  F   UNL     1       4.811   4.473  15.737  0.00  0.00    +0.000 F 
BRANCH   7  10
ATOM     10  S   UNL     1       7.159   5.488  16.466  0.00  0.00    +0.000 S 
ATOM     11  O   UNL     1       7.843   4.360  17.048  0.00  0.00    +0.000 OA
ATOM     12  O   UNL     1       7.592   6.846  16.727  0.00  0.00    +0.000 OA
BRANCH  10  13
ATOM     13  N   UNL     1       7.395   5.321  14.790  0.00  0.00    +0.000 NA
ATOM     14  H   UNL     1       7.925   4.466  14.597  0.00  0.00    +0.000 HD
ATOM     15  H   UNL     1       7.833   6.155  14.395  0.00  0.00    +0.000 HD
ENDBRANCH  10  13
ENDBRANCH   7  10
ENDBRANCH   4   7
ENDBRANCH   1   4
BRANCH   1  16
ATOM     16  C   UNL     1       2.569   3.943  18.229  0.00  0.00    +0.000 C 
ATOM     17  F   UNL     1       1.332   4.380  17.860  0.00  0.00    +0.000 F 
ATOM     18  F   UNL     1       2.985   3.161  17.188  0.00  0.00    +0.000 F 
BRANCH  16  19
ATOM     19  C   UNL     1       2.478   3.103  19.480  0.00  0.00    +0.000 C 
ATOM     20  F   UNL     1       2.774   1.802  19.208  0.00  0.00    +0.000 F 
ATOM     21  F   UNL     1       3.439   3.516  20.356  0.00  0.00    +0.000 F 
BRANCH  19  22
ATOM     22  C   UNL     1       1.113   3.229  20.142  0.00  0.00    +0.000 C 
ATOM     23  F   UNL     1       0.732   4.502  20.378  0.00  0.00    +0.000 F 
ATOM     24  F   UNL     1       0.136   2.651  19.402  0.00  0.00    +0.000 F 
ATOM     25  F   UNL     1       1.104   2.594  21.344  0.00  0.00    +0.000 F 
ENDBRANCH  19  22
ENDBRANCH  16  19
ENDBRANCH   1  16
TORSDOF 7
ENDMDL
MODEL 3
REMARK VINA RESULT:      -8.1      0.954      1.349
REMARK  Name = 
REMARK  7 active torsions:
REMARK  status: ('A' for Active; 'I' for Inactive)
REMARK    1  A    between atoms: N_1  and  S_2
REMARK    2  A    between atoms: S_2  and  C_5
REMARK    3  A    between atoms: C_5  and  C_8
REMARK    4  A    between atoms: C_8  and  C_11
REMARK    5  A    between atoms: C_11  and  C_14
REMARK    6  A    between atoms: C_14  and  C_17
REMARK    7  A    between atoms: C_17  and  C_20
REMARK                            x       y       z     vdW  Elec       q    Type
REMARK                         _______ _______ _______ _____ _____    ______ ____
ROOT
ATOM      1  C   UNL     1       3.931   4.434  17.915  0.00  0.00    +0.000 C 
ATOM      2  F   UNL     1       3.085   4.014  16.921  0.00  0.00    +0.000 F 
ATOM      3  F   UNL     1       4.853   3.425  18.037  0.00  0.00    +0.000 F 
ENDROOT
BRANCH   1   4
ATOM      4  C   UNL     1       4.662   5.686  17.424  0.00  0.00    +0.000 C 
ATOM      5  F   UNL     1       5.617   6.008  18.351  0.00  0.00    +0.000 F 
ATOM      6  F   UNL     1       3.804   6.740  17.431  0.00  0.00    +0.000 F 
BRANCH   4   7
ATOM      7  C   UNL     1       5.309   5.495  16.073  0.00  0.00    +0.000 C 
ATOM      8  F   UNL     1       4.948   6.495  15.217  0.00  0.00    +0.000 F 
ATOM      9  F   UNL     1       4.875   4.341  15.488  0.00  0.00    +0.000 F 
BRANCH   7  10
ATOM     10  S   UNL     1       7.125   5.534  16.258  0.00  0.00    +0.000 S 
ATOM     11  O   UNL     1       7.625   4.401  16.996  0.00  0.00    +0.000 OA
ATOM     12  O   UNL     1       7.572   6.880  16.554  0.00  0.00    +0.000 OA
BRANCH  10  13
ATOM     13  N   UNL     1       7.665   5.286  14.665  0.00  0.00    +0.000 NA
ATOM     14  H   UNL     1       7.870   4.293  14.517  0.00  0.00    +0.000 HD
ATOM     15  H   UNL     1       8.459   5.891  14.447  0.00  0.00    +0.000 HD
ENDBRANCH  10  13
ENDBRANCH   7  10
ENDBRANCH   4   7
ENDBRANCH   1   4
BRANCH   1  16
ATOM     16  C   UNL     1       3.127   4.500  19.214  0.00  0.00    +0.000 C 
ATOM     17  F   UNL     1       3.763   5.330  20.088  0.00  0.00    +0.000 F 
ATOM     18  F   UNL     1       1.929   5.110  18.966  0.00  0.00    +0.000 F 
BRANCH  16  19
ATOM     19  C   UNL     1       2.879   3.154  19.853  0.00  0.00    +0.000 C 
ATOM     20  F   UNL     1       2.576   2.222  18.908  0.00  0.00    +0.000 F 
ATOM     21  F   UNL     1       4.039   2.722  20.428  0.00  0.00    +0.000 F 
BRANCH  19  22
ATOM     22  C   UNL     1       1.794   3.230  20.917  0.00  0.00    +0.000 C 
ATOM     23  F   UNL     1       0.541   3.311  20.420  0.00  0.00    +0.000 F 
ATOM     24  F   UNL     1       1.825   2.161  21.749  0.00  0.00    +0.000 F 
ATOM     25  F   UNL     1       1.970   4.326  21.702  0.00  0.00    +0.000 F 
ENDBRANCH  19  22
ENDBRANCH  16  19
ENDBRANCH   1  16
TORSDOF 7
ENDMDL
MODEL 4
REMARK VINA RESULT:      -8.1      1.234      2.362
REMARK  Name = 
REMARK  7 active torsions:
REMARK  status: ('A' for Active; 'I' for Inactive)
REMARK    1  A    between atoms: N_1  and  S_2
REMARK    2  A    between atoms: S_2  and  C_5
REMARK    3  A    between atoms: C_5  and  C_8
REMARK    4  A    between atoms: C_8  and  C_11
REMARK    5  A    between atoms: C_11  and  C_14
REMARK    6  A    between atoms: C_14  and  C_17
REMARK    7  A    between atoms: C_17  and  C_20
REMARK                            x       y       z     vdW  Elec       q    Type
REMARK                         _______ _______ _______ _____ _____    ______ ____
ROOT
ATOM      1  C   UNL     1       3.535   5.541  18.489  0.00  0.00    +0.000 C 
ATOM      2  F   UNL     1       3.563   6.701  19.219  0.00  0.00    +0.000 F 
ATOM      3  F   UNL     1       2.894   5.879  17.324  0.00  0.00    +0.000 F 
ENDROOT
BRANCH   1   4
ATOM      4  C   UNL     1       4.975   5.158  18.143  0.00  0.00    +0.000 C 
ATOM      5  F   UNL     1       5.117   3.813  18.357  0.00  0.00    +0.000 F 
ATOM      6  F   UNL     1       5.822   5.740  19.032  0.00  0.00    +0.000 F 
BRANCH   4   7
ATOM      7  C   UNL     1       5.343   5.488  16.716  0.00  0.00    +0.000 C 
ATOM      8  F   UNL     1       4.846   6.707  16.357  0.00  0.00    +0.000 F 
ATOM      9  F   UNL     1       4.776   4.595  15.854  0.00  0.00    +0.000 F 
BRANCH   7  10
ATOM     10  S   UNL     1       7.160   5.544  16.554  0.00  0.00    +0.000 S 
ATOM     11  O   UNL     1       7.803   4.425  17.196  0.00  0.00    +0.000 OA
ATOM     12  O   UNL     1       7.640   6.898  16.746  0.00  0.00    +0.000 OA
BRANCH  10  13
ATOM     13  N   UNL     1       7.392   5.282  14.890  0.00  0.00    +0.000 NA
ATOM     14  H   UNL     1       8.318   5.616  14.610  0.00  0.00    +0.000 HD
ATOM     15  H   UNL     1       6.638   5.701  14.342  0.00  0.00    +0.000 HD
ENDBRANCH  10  13
ENDBRANCH   7  10
ENDBRANCH   4   7
ENDBRANCH   1   4
BRANCH   1  16
ATOM     16  C   UNL     1       2.655   4.540  19.240  0.00  0.00    +0.000 C 
ATOM     17  F   UNL     1       3.439   3.800  20.074  0.00  0.00    +0.000 F 
ATOM     18  F   UNL     1       1.812   5.224  20.072  0.00  0.00    +0.000 F 
BRANCH  16  19
ATOM     19  C   UNL     1       1.845   3.637  18.340  0.00  0.00    +0.000 C 
ATOM     20  F   UNL     1       0.931   4.357  17.635  0.00  0.00    +0.000 F 
ATOM     21  F   UNL     1       2.676   3.092  17.405  0.00  0.00    +0.000 F 
BRANCH  19  22
ATOM     22  C   UNL     1       1.176   2.518  19.125  0.00  0.00    +0.000 C 
ATOM     23  F   UNL     1       1.985   1.467  19.383  0.00  0.00    +0.000 F 
ATOM     24  F   UNL     1       0.695   2.951  20.315  0.00  0.00    +0.000 F 
ATOM     25  F   UNL     1       0.110   2.025  18.441  0.00  0.00    +0.000 F 
ENDBRANCH  19  22
ENDBRANCH  16  19
ENDBRANCH   1  16
TORSDOF 7
ENDMDL
MODEL 5
REMARK VINA RESULT:      -8.1      1.455      2.679
REMARK  Name = 
REMARK  7 active torsions:
REMARK  status: ('A' for Active; 'I' for Inactive)
REMARK    1  A    between atoms: N_1  and  S_2
REMARK    2  A    between atoms: S_2  and  C_5
REMARK    3  A    between atoms: C_5  and  C_8
REMARK    4  A    between atoms: C_8  and  C_11
REMARK    5  A    between atoms: C_11  and  C_14
REMARK    6  A    between atoms: C_14  and  C_17
REMARK    7  A    between atoms: C_17  and  C_20
REMARK                            x       y       z     vdW  Elec       q    Type
REMARK                         _______ _______ _______ _____ _____    ______ ____
ROOT
ATOM      1  C   UNL     1       3.156   5.606  18.349  0.00  0.00    +0.000 C 
ATOM      2  F   UNL     1       3.636   6.007  19.568  0.00  0.00    +0.000 F 
ATOM      3  F   UNL     1       2.329   6.624  17.948  0.00  0.00    +0.000 F 
ENDROOT
BRANCH   1   4
ATOM      4  C   UNL     1       4.331   5.538  17.370  0.00  0.00    +0.000 C 
ATOM      5  F   UNL     1       4.471   6.772  16.794  0.00  0.00    +0.000 F 
ATOM      6  F   UNL     1       4.013   4.710  16.341  0.00  0.00    +0.000 F 
BRANCH   4   7
ATOM      7  C   UNL     1       5.626   5.138  18.036  0.00  0.00    +0.000 C 
ATOM      8  F   UNL     1       5.476   3.968  18.723  0.00  0.00    +0.000 F 
ATOM      9  F   UNL     1       5.995   6.063  18.969  0.00  0.00    +0.000 F 
BRANCH   7  10
ATOM     10  S   UNL     1       6.912   4.889  16.764  0.00  0.00    +0.000 S 
ATOM     11  O   UNL     1       7.489   6.132  16.318  0.00  0.00    +0.000 OA
ATOM     12  O   UNL     1       6.495   3.872  15.820  0.00  0.00    +0.000 OA
BRANCH  10  13
ATOM     13  N   UNL     1       8.153   4.123  17.638  0.00  0.00    +0.000 NA
ATOM     14  H   UNL     1       8.793   3.651  16.993  0.00  0.00    +0.000 HD
ATOM     15  H   UNL     1       7.771   3.494  18.347  0.00  0.00    +0.000 HD
ENDBRANCH  10  13
ENDBRANCH   7  10
ENDBRANCH   4   7
ENDBRANCH   1   4
BRANCH   1  16
ATOM     16  C   UNL     1       2.298   4.359  18.574  0.00  0.00    +0.000 C 
ATOM     17  F   UNL     1       1.171   4.454  17.813  0.00  0.00    +0.000 F 
ATOM     18  F   UNL     1       2.959   3.269  18.081  0.00  0.00    +0.000 F 
BRANCH  16  19
ATOM     19  C   UNL     1       1.937   4.114  20.019  0.00  0.00    +0.000 C 
ATOM     20  F   UNL     1       3.047   4.159  20.806  0.00  0.00    +0.000 F 
ATOM     21  F   UNL     1       1.145   5.137  20.453  0.00  0.00    +0.000 F 
BRANCH  19  22
ATOM     22  C   UNL     1       1.192   2.798  20.195  0.00  0.00    +0.000 C 
ATOM     23  F   UNL     1       0.079   2.691  19.438  0.00  0.00    +0.000 F 
ATOM     24  F   UNL     1       1.975   1.731  19.908  0.00  0.00    +0.000 F 
ATOM     25  F   UNL     1       0.798   2.642  21.487  0.00  0.00    +0.000 F 
ENDBRANCH  19  22
ENDBRANCH  16  19
ENDBRANCH   1  16
TORSDOF 7
ENDMDL
MODEL 6
REMARK VINA RESULT:      -8.1      1.114      2.245
REMARK  Name = 
REMARK  7 active torsions:
REMARK  status: ('A' for Active; 'I' for Inactive)
REMARK    1  A    between atoms: N_1  and  S_2
REMARK    2  A    between atoms: S_2  and  C_5
REMARK    3  A    between atoms: C_5  and  C_8
REMARK    4  A    between atoms: C_8  and  C_11
REMARK    5  A    between atoms: C_11  and  C_14
REMARK    6  A    between atoms: C_14  and  C_17
REMARK    7  A    between atoms: C_17  and  C_20
REMARK                            x       y       z     vdW  Elec       q    Type
REMARK                         _______ _______ _______ _____ _____    ______ ____
ROOT
ATOM      1  C   UNL     1       3.536   5.597  18.241  0.00  0.00    +0.000 C 
ATOM      2  F   UNL     1       3.470   6.232  19.454  0.00  0.00    +0.000 F 
ATOM      3  F   UNL     1       3.158   6.549  17.329  0.00  0.00    +0.000 F 
ENDROOT
BRANCH   1   4
ATOM      4  C   UNL     1       4.998   5.235  17.969  0.00  0.00    +0.000 C 
ATOM      5  F   UNL     1       5.174   3.917  18.297  0.00  0.00    +0.000 F 
ATOM      6  F   UNL     1       5.798   5.915  18.830  0.00  0.00    +0.000 F 
BRANCH   4   7
ATOM      7  C   UNL     1       5.399   5.458  16.530  0.00  0.00    +0.000 C 
ATOM      8  F   UNL     1       4.902   6.641  16.067  0.00  0.00    +0.000 F 
ATOM      9  F   UNL     1       4.861   4.497  15.725  0.00  0.00    +0.000 F 
BRANCH   7  10
ATOM     10  S   UNL     1       7.219   5.521  16.410  0.00  0.00    +0.000 S 
ATOM     11  O   UNL     1       7.850   4.393  17.049  0.00  0.00    +0.000 OA
ATOM     12  O   UNL     1       7.692   6.872  16.632  0.00  0.00    +0.000 OA
BRANCH  10  13
ATOM     13  N   UNL     1       7.488   5.283  14.748  0.00  0.00    +0.000 NA
ATOM     14  H   UNL     1       7.062   6.045  14.213  0.00  0.00    +0.000 HD
ATOM     15  H   UNL     1       7.163   4.361  14.450  0.00  0.00    +0.000 HD
ENDBRANCH  10  13
ENDBRANCH   7  10
ENDBRANCH   4   7
ENDBRANCH   1   4
BRANCH   1  16
ATOM     16  C   UNL     1       2.479   4.491  18.237  0.00  0.00    +0.000 C 
ATOM     17  F   UNL     1       1.366   4.945  17.595  0.00  0.00    +0.000 F 
ATOM     18  F   UNL     1       2.924   3.453  17.468  0.00  0.00    +0.000 F 
BRANCH  16  19
ATOM     19  C   UNL     1       2.120   3.978  19.611  0.00  0.00    +0.000 C 
ATOM     20  F   UNL     1       3.220   3.944  20.413  0.00  0.00    +0.000 F 
ATOM     21  F   UNL     1       1.269   4.866  20.202  0.00  0.00    +0.000 F 
BRANCH  19  22
ATOM     22  C   UNL     1       1.448   2.614  19.543  0.00  0.00    +0.000 C 
ATOM     23  F   UNL     1       0.428   2.548  18.660  0.00  0.00    +0.000 F 
ATOM     24  F   UNL     1       2.324   1.634  19.215  0.00  0.00    +0.000 F 
ATOM     25  F   UNL     1       0.933   2.274  20.754  0.00  0.00    +0.000 F 
ENDBRANCH  19  22
ENDBRANCH  16  19
ENDBRANCH   1  16
TORSDOF 7
ENDMDL
MODEL 7
REMARK VINA RESULT:      -8.0      0.897      1.568
REMARK  Name = 
REMARK  7 active torsions:
REMARK  status: ('A' for Active; 'I' for Inactive)
REMARK    1  A    between atoms: N_1  and  S_2
REMARK    2  A    between atoms: S_2  and  C_5
REMARK    3  A    between atoms: C_5  and  C_8
REMARK    4  A    between atoms: C_8  and  C_11
REMARK    5  A    between atoms: C_11  and  C_14
REMARK    6  A    between atoms: C_14  and  C_17
REMARK    7  A    between atoms: C_17  and  C_20
REMARK                            x       y       z     vdW  Elec       q    Type
REMARK                         _______ _______ _______ _____ _____    ______ ____
ROOT
ATOM      1  C   UNL     1       3.354   4.767  17.861  0.00  0.00    +0.000 C 
ATOM      2  F   UNL     1       2.284   5.624  17.878  0.00  0.00    +0.000 F 
ATOM      3  F   UNL     1       3.016   3.808  16.941  0.00  0.00    +0.000 F 
ENDROOT
BRANCH   1   4
ATOM      4  C   UNL     1       4.570   5.528  17.328  0.00  0.00    +0.000 C 
ATOM      5  F   UNL     1       5.374   5.836  18.393  0.00  0.00    +0.000 F 
ATOM      6  F   UNL     1       4.169   6.730  16.838  0.00  0.00    +0.000 F 
BRANCH   4   7
ATOM      7  C   UNL     1       5.356   4.737  16.310  0.00  0.00    +0.000 C 
ATOM      8  F   UNL     1       4.843   4.914  15.058  0.00  0.00    +0.000 F 
ATOM      9  F   UNL     1       5.258   3.399  16.557  0.00  0.00    +0.000 F 
BRANCH   7  10
ATOM     10  S   UNL     1       7.088   5.312  16.300  0.00  0.00    +0.000 S 
ATOM     11  O   UNL     1       7.968   4.414  17.006  0.00  0.00    +0.000 OA
ATOM     12  O   UNL     1       7.144   6.744  16.516  0.00  0.00    +0.000 OA
BRANCH  10  13
ATOM     13  N   UNL     1       7.523   5.149  14.665  0.00  0.00    +0.000 NA
ATOM     14  H   UNL     1       8.525   5.329  14.550  0.00  0.00    +0.000 HD
ATOM     15  H   UNL     1       6.944   5.743  14.068  0.00  0.00    +0.000 HD
ENDBRANCH  10  13
ENDBRANCH   7  10
ENDBRANCH   4   7
ENDBRANCH   1   4
BRANCH   1  16
ATOM     16  C   UNL     1       3.434   4.097  19.234  0.00  0.00    +0.000 C 
ATOM     17  F   UNL     1       4.537   3.297  19.273  0.00  0.00    +0.000 F 
ATOM     18  F   UNL     1       3.667   5.053  20.183  0.00  0.00    +0.000 F 
BRANCH  16  19
ATOM     19  C   UNL     1       2.201   3.311  19.608  0.00  0.00    +0.000 C 
ATOM     20  F   UNL     1       1.092   3.857  19.038  0.00  0.00    +0.000 F 
ATOM     21  F   UNL     1       2.301   2.059  19.076  0.00  0.00    +0.000 F 
BRANCH  19  22
ATOM     22  C   UNL     1       2.043   3.200  21.118  0.00  0.00    +0.000 C 
ATOM     23  F   UNL     1       2.043   4.388  21.760  0.00  0.00    +0.000 F 
ATOM     24  F   UNL     1       0.900   2.560  21.462  0.00  0.00    +0.000 F 
ATOM     25  F   UNL     1       3.060   2.472  21.652  0.00  0.00    +0.000 F 
ENDBRANCH  19  22
ENDBRANCH  16  19
ENDBRANCH   1  16
TORSDOF 7
ENDMDL
MODEL 8
REMARK VINA RESULT:      -8.0      1.247      2.247
REMARK  Name = 
REMARK  7 active torsions:
REMARK  status: ('A' for Active; 'I' for Inactive)
REMARK    1  A    between atoms: N_1  and  S_2
REMARK    2  A    between atoms: S_2  and  C_5
REMARK    3  A    between atoms: C_5  and  C_8
REMARK    4  A    between atoms: C_8  and  C_11
REMARK    5  A    between atoms: C_11  and  C_14
REMARK    6  A    between atoms: C_14  and  C_17
REMARK    7  A    between atoms: C_17  and  C_20
REMARK                            x       y       z     vdW  Elec       q    Type
REMARK                         _______ _______ _______ _____ _____    ______ ____
ROOT
ATOM      1  C   UNL     1       3.838   5.594  18.378  0.00  0.00    +0.000 C 
ATOM      2  F   UNL     1       4.668   5.836  19.441  0.00  0.00    +0.000 F 
ATOM      3  F   UNL     1       3.590   6.831  17.841  0.00  0.00    +0.000 F 
ENDROOT
BRANCH   1   4
ATOM      4  C   UNL     1       4.613   4.775  17.342  0.00  0.00    +0.000 C 
ATOM      5  F   UNL     1       3.704   4.180  16.509  0.00  0.00    +0.000 F 
ATOM      6  F   UNL     1       5.241   3.742  17.963  0.00  0.00    +0.000 F 
BRANCH   4   7
ATOM      7  C   UNL     1       5.573   5.613  16.532  0.00  0.00    +0.000 C 
ATOM      8  F   UNL     1       6.176   6.553  17.316  0.00  0.00    +0.000 F 
ATOM      9  F   UNL     1       4.907   6.315  15.570  0.00  0.00    +0.000 F 
BRANCH   7  10
ATOM     10  S   UNL     1       6.872   4.540  15.829  0.00  0.00    +0.000 S 
ATOM     11  O   UNL     1       6.325   3.418  15.108  0.00  0.00    +0.000 OA
ATOM     12  O   UNL     1       7.952   4.369  16.780  0.00  0.00    +0.000 OA
BRANCH  10  13
ATOM     13  N   UNL     1       7.562   5.531  14.632  0.00  0.00    +0.000 NA
ATOM     14  H   UNL     1       7.908   6.397  15.053  0.00  0.00    +0.000 HD
ATOM     15  H   UNL     1       6.904   5.698  13.867  0.00  0.00    +0.000 HD
ENDBRANCH  10  13
ENDBRANCH   7  10
ENDBRANCH   4   7
ENDBRANCH   1   4
BRANCH   1  16
ATOM     16  C   UNL     1       2.521   5.045  18.930  0.00  0.00    +0.000 C 
ATOM     17  F   UNL     1       1.998   5.949  19.806  0.00  0.00    +0.000 F 
ATOM     18  F   UNL     1       1.608   4.975  17.916  0.00  0.00    +0.000 F 
BRANCH  16  19
ATOM     19  C   UNL     1       2.646   3.690  19.585  0.00  0.00    +0.000 C 
ATOM     20  F   UNL     1       2.545   2.698  18.659  0.00  0.00    +0.000 F 
ATOM     21  F   UNL     1       3.900   3.570  20.108  0.00  0.00    +0.000 F 
BRANCH  19  22
ATOM     22  C   UNL     1       1.623   3.509  20.698  0.00  0.00    +0.000 C 
ATOM     23  F   UNL     1       0.403   4.012  20.410  0.00  0.00    +0.000 F 
ATOM     24  F   UNL     1       1.451   2.205  21.019  0.00  0.00    +0.000 F 
ATOM     25  F   UNL     1       2.038   4.128  21.834  0.00  0.00    +0.000 F 
ENDBRANCH  19  22
ENDBRANCH  16  19
ENDBRANCH   1  16
TORSDOF 7
ENDMDL
MODEL 9
REMARK VINA RESULT:      -8.0      1.290      2.213
REMARK  Name = 
REMARK  7 active torsions:
REMARK  status: ('A' for Active; 'I' for Inactive)
REMARK    1  A    between atoms: N_1  and  S_2
REMARK    2  A    between atoms: S_2  and  C_5
REMARK    3  A    between atoms: C_5  and  C_8
REMARK    4  A    between atoms: C_8  and  C_11
REMARK    5  A    between atoms: C_11  and  C_14
REMARK    6  A    between atoms: C_14  and  C_17
REMARK    7  A    between atoms: C_17  and  C_20
REMARK                            x       y       z     vdW  Elec       q    Type
REMARK                         _______ _______ _______ _____ _____    ______ ____
ROOT
ATOM      1  C   UNL     1       3.695   5.233  18.767  0.00  0.00    +0.000 C 
ATOM      2  F   UNL     1       3.573   5.459  20.113  0.00  0.00    +0.000 F 
ATOM      3  F   UNL     1       3.285   6.402  18.179  0.00  0.00    +0.000 F 
ENDROOT
BRANCH   1   4
ATOM      4  C   UNL     1       5.179   5.037  18.447  0.00  0.00    +0.000 C 
ATOM      5  F   UNL     1       5.427   3.691  18.408  0.00  0.00    +0.000 F 
ATOM      6  F   UNL     1       5.928   5.497  19.482  0.00  0.00    +0.000 F 
BRANCH   4   7
ATOM      7  C   UNL     1       5.584   5.666  17.135  0.00  0.00    +0.000 C 
ATOM      8  F   UNL     1       6.140   6.895  17.339  0.00  0.00    +0.000 F 
ATOM      9  F   UNL     1       4.491   5.887  16.348  0.00  0.00    +0.000 F 
BRANCH   7  10
ATOM     10  S   UNL     1       6.825   4.610  16.312  0.00  0.00    +0.000 S 
ATOM     11  O   UNL     1       6.222   3.529  15.574  0.00  0.00    +0.000 OA
ATOM     12  O   UNL     1       7.954   4.381  17.192  0.00  0.00    +0.000 OA
BRANCH  10  13
ATOM     13  N   UNL     1       7.462   5.645  15.123  0.00  0.00    +0.000 NA
ATOM     14  H   UNL     1       6.756   5.824  14.403  0.00  0.00    +0.000 HD
ATOM     15  H   UNL     1       8.333   5.274  14.740  0.00  0.00    +0.000 HD
ENDBRANCH  10  13
ENDBRANCH   7  10
ENDBRANCH   4   7
ENDBRANCH   1   4
BRANCH   1  16
ATOM     16  C   UNL     1       2.698   4.137  18.386  0.00  0.00    +0.000 C 
ATOM     17  F   UNL     1       1.507   4.715  18.062  0.00  0.00    +0.000 F 
ATOM     18  F   UNL     1       3.116   3.534  17.233  0.00  0.00    +0.000 F 
BRANCH  16  19
ATOM     19  C   UNL     1       2.499   3.089  19.455  0.00  0.00    +0.000 C 
ATOM     20  F   UNL     1       2.675   1.840  18.942  0.00  0.00    +0.000 F 
ATOM     21  F   UNL     1       3.475   3.232  20.397  0.00  0.00    +0.000 F 
BRANCH  19  22
ATOM     22  C   UNL     1       1.138   3.221  20.124  0.00  0.00    +0.000 C 
ATOM     23  F   UNL     1       1.037   2.565  21.300  0.00  0.00    +0.000 F 
ATOM     24  F   UNL     1       0.813   4.515  20.360  0.00  0.00    +0.000 F 
ATOM     25  F   UNL     1       0.160   2.725  19.320  0.00  0.00    +0.000 F 
ENDBRANCH  19  22
ENDBRANCH  16  19
ENDBRANCH   1  16
TORSDOF 7
ENDMDL
