MODEL 1
REMARK VINA RESULT:      -7.1      0.000      0.000
REMARK  Name = 
REMARK  8 active torsions:
REMARK  status: ('A' for Active; 'I' for Inactive)
REMARK    1  A    between atoms: C_1  and  O_2
REMARK    2  A    between atoms: O_2  and  C_3
REMARK    3  A    between atoms: C_4  and  O_5
REMARK    4  A    between atoms: O_5  and  C_6
REMARK    5  A    between atoms: N_17  and  C_18
REMARK    6  A    between atoms: C_19  and  C_20
REMARK    7  A    between atoms: C_23  and  O_24
REMARK    8  A    between atoms: O_24  and  C_25
REMARK                            x       y       z     vdW  Elec       q    Type
REMARK                         _______ _______ _______ _____ _____    ______ ____
ROOT
ATOM      1  C   UNL     1       2.862   3.258  18.743  0.00  0.00    +0.000 C 
ATOM      2  C   UNL     1       3.466   4.278  19.388  0.00  0.00    +0.000 C 
ATOM      3  C   UNL     1       4.178   5.300  18.572  0.00  0.00    +0.000 C 
ATOM      4  O   UNL     1       4.150   6.482  18.883  0.00  0.00    +0.000 OA
ATOM      5  C   UNL     1       4.853   4.858  17.340  0.00  0.00    +0.000 A 
ATOM      6  C   UNL     1       4.268   3.782  16.659  0.00  0.00    +0.000 A 
ATOM      7  C   UNL     1       4.722   3.395  15.386  0.00  0.00    +0.000 A 
ATOM      8  C   UNL     1       5.769   4.135  14.829  0.00  0.00    +0.000 A 
ATOM      9  C   UNL     1       6.397   5.177  15.515  0.00  0.00    +0.000 A 
ATOM     10  N   UNL     1       7.405   5.706  14.741  0.00  0.00    +0.000 NA
ATOM     11  C   UNL     1       7.368   5.083  13.597  0.00  0.00    +0.000 A 
ATOM     12  N   UNL     1       8.130   5.396  12.541  0.00  0.00    +0.000 N 
ATOM     13  N   UNL     1       6.425   4.087  13.612  0.00  0.00    +0.000 N 
ATOM     14  C   UNL     1       6.109   3.179  12.538  0.00  0.00    +0.000 C 
ATOM     15  C   UNL     1       5.973   5.557  16.817  0.00  0.00    +0.000 A 
ATOM     16  C   UNL     1       3.152   3.036  17.284  0.00  0.00    +0.000 C 
ATOM     17  O   UNL     1       2.528   2.217  16.618  0.00  0.00    +0.000 OA
ATOM     18  H   UNL     1       8.869   6.069  12.728  0.00  0.00    +0.000 HD
ATOM     19  H   UNL     1       8.370   4.728  11.820  0.00  0.00    +0.000 HD
ENDROOT
BRANCH  15  20
ATOM     20  C   UNL     1       6.763   6.586  17.529  0.00  0.00    +0.000 A 
ATOM     21  C   UNL     1       6.710   7.939  17.158  0.00  0.00    +0.000 A 
ATOM     22  C   UNL     1       7.574   8.885  17.715  0.00  0.00    +0.000 A 
ATOM     23  C   UNL     1       8.473   8.523  18.711  0.00  0.00    +0.000 A 
ATOM     24  C   UNL     1       8.500   7.204  19.151  0.00  0.00    +0.000 A 
ATOM     25  C   UNL     1       7.673   6.245  18.548  0.00  0.00    +0.000 A 
BRANCH  23  26
ATOM     26  O   UNL     1       9.319   9.515  19.114  0.00  0.00    +0.000 OA
ATOM     27  C   UNL     1       9.294  10.717  18.355  0.00  0.00    +0.000 C 
ENDBRANCH  23  26
ENDBRANCH  15  20
BRANCH   1  29
ATOM     28  C   UNL     1       0.573   2.615  19.196  0.00  0.00    +0.000 C 
ATOM     29  O   UNL     1       1.970   2.353  19.290  0.00  0.00    +0.000 OA
ENDBRANCH   1  29
BRANCH   2  30
ATOM     30  O   UNL     1       3.304   4.478  20.755  0.00  0.00    +0.000 OA
ATOM     31  C   UNL     1       2.092   5.121  21.144  0.00  0.00    +0.000 C 
ENDBRANCH   2  30
TORSDOF 4
ENDMDL
MODEL 2
REMARK VINA RESULT:      -6.4      0.594      1.068
REMARK  Name = 
REMARK  8 active torsions:
REMARK  status: ('A' for Active; 'I' for Inactive)
REMARK    1  A    between atoms: C_1  and  O_2
REMARK    2  A    between atoms: O_2  and  C_3
REMARK    3  A    between atoms: C_4  and  O_5
REMARK    4  A    between atoms: O_5  and  C_6
REMARK    5  A    between atoms: N_17  and  C_18
REMARK    6  A    between atoms: C_19  and  C_20
REMARK    7  A    between atoms: C_23  and  O_24
REMARK    8  A    between atoms: O_24  and  C_25
REMARK                            x       y       z     vdW  Elec       q    Type
REMARK                         _______ _______ _______ _____ _____    ______ ____
ROOT
ATOM      1  C   UNL     1       2.605   3.994  18.599  0.00  0.00    +0.000 C 
ATOM      2  C   UNL     1       3.328   4.967  19.194  0.00  0.00    +0.000 C 
ATOM      3  C   UNL     1       4.182   5.832  18.334  0.00  0.00    +0.000 C 
ATOM      4  O   UNL     1       4.304   7.026  18.571  0.00  0.00    +0.000 OA
ATOM      5  C   UNL     1       4.812   5.227  17.149  0.00  0.00    +0.000 A 
ATOM      6  C   UNL     1       4.102   4.195  16.522  0.00  0.00    +0.000 A 
ATOM      7  C   UNL     1       4.522   3.670  15.287  0.00  0.00    +0.000 A 
ATOM      8  C   UNL     1       5.667   4.230  14.711  0.00  0.00    +0.000 A 
ATOM      9  C   UNL     1       6.415   5.224  15.347  0.00  0.00    +0.000 A 
ATOM     10  N   UNL     1       7.497   5.566  14.566  0.00  0.00    +0.000 NA
ATOM     11  C   UNL     1       7.396   4.880  13.463  0.00  0.00    +0.000 A 
ATOM     12  N   UNL     1       8.210   5.023  12.408  0.00  0.00    +0.000 N 
ATOM     13  N   UNL     1       6.330   4.018  13.515  0.00  0.00    +0.000 N 
ATOM     14  C   UNL     1       5.915   3.092  12.493  0.00  0.00    +0.000 C 
ATOM     15  C   UNL     1       6.023   5.739  16.611  0.00  0.00    +0.000 A 
ATOM     16  C   UNL     1       2.888   3.643  17.163  0.00  0.00    +0.000 C 
ATOM     17  O   UNL     1       2.172   2.871  16.534  0.00  0.00    +0.000 OA
ATOM     18  H   UNL     1       9.029   5.604  12.572  0.00  0.00    +0.000 HD
ATOM     19  H   UNL     1       8.372   4.284  11.736  0.00  0.00    +0.000 HD
ENDROOT
BRANCH  15  20
ATOM     20  C   UNL     1       6.930   6.700  17.278  0.00  0.00    +0.000 A 
ATOM     21  C   UNL     1       7.749   6.313  18.352  0.00  0.00    +0.000 A 
ATOM     22  C   UNL     1       8.480   7.248  19.089  0.00  0.00    +0.000 A 
ATOM     23  C   UNL     1       8.470   8.592  18.734  0.00  0.00    +0.000 A 
ATOM     24  C   UNL     1       7.725   8.996  17.631  0.00  0.00    +0.000 A 
ATOM     25  C   UNL     1       6.947   8.063  16.931  0.00  0.00    +0.000 A 
BRANCH  23  26
ATOM     26  O   UNL     1       9.154   9.417  19.580  0.00  0.00    +0.000 OA
ATOM     27  C   UNL     1       9.422  10.730  19.107  0.00  0.00    +0.000 C 
ENDBRANCH  23  26
ENDBRANCH  15  20
BRANCH   1  29
ATOM     28  C   UNL     1       1.934   2.102  19.950  0.00  0.00    +0.000 C 
ATOM     29  O   UNL     1       1.593   3.250  19.178  0.00  0.00    +0.000 OA
ENDBRANCH   1  29
BRANCH   2  30
ATOM     30  O   UNL     1       3.171   5.274  20.541  0.00  0.00    +0.000 OA
ATOM     31  C   UNL     1       1.962   5.949  20.883  0.00  0.00    +0.000 C 
ENDBRANCH   2  30
TORSDOF 4
ENDMDL
MODEL 3
REMARK VINA RESULT:      -6.3     10.317     12.866
REMARK  Name = 
REMARK  8 active torsions:
REMARK  status: ('A' for Active; 'I' for Inactive)
REMARK    1  A    between atoms: C_1  and  O_2
REMARK    2  A    between atoms: O_2  and  C_3
REMARK    3  A    between atoms: C_4  and  O_5
REMARK    4  A    between atoms: O_5  and  C_6
REMARK    5  A    between atoms: N_17  and  C_18
REMARK    6  A    between atoms: C_19  and  C_20
REMARK    7  A    between atoms: C_23  and  O_24
REMARK    8  A    between atoms: O_24  and  C_25
REMARK                            x       y       z     vdW  Elec       q    Type
REMARK                         _______ _______ _______ _____ _____    ______ ____
ROOT
ATOM      1  C   UNL     1       1.523  13.274  20.511  0.00  0.00    +0.000 C 
ATOM      2  C   UNL     1       0.779  13.769  21.523  0.00  0.00    +0.000 C 
ATOM      3  C   UNL     1      -0.601  13.238  21.702  0.00  0.00    +0.000 C 
ATOM      4  O   UNL     1      -1.065  13.064  22.821  0.00  0.00    +0.000 OA
ATOM      5  C   UNL     1      -1.362  12.858  20.501  0.00  0.00    +0.000 A 
ATOM      6  C   UNL     1      -0.617  12.366  19.421  0.00  0.00    +0.000 A 
ATOM      7  C   UNL     1      -1.251  11.809  18.295  0.00  0.00    +0.000 A 
ATOM      8  C   UNL     1      -2.648  11.759  18.309  0.00  0.00    +0.000 A 
ATOM      9  C   UNL     1      -3.406  12.291  19.355  0.00  0.00    +0.000 A 
ATOM     10  N   UNL     1      -4.748  12.126  19.090  0.00  0.00    +0.000 NA
ATOM     11  C   UNL     1      -4.832  11.458  17.975  0.00  0.00    +0.000 A 
ATOM     12  N   UNL     1      -5.979  11.011  17.447  0.00  0.00    +0.000 N 
ATOM     13  N   UNL     1      -3.589  11.249  17.432  0.00  0.00    +0.000 N 
ATOM     14  C   UNL     1      -3.287  10.566  16.200  0.00  0.00    +0.000 C 
ATOM     15  C   UNL     1      -2.781  12.889  20.481  0.00  0.00    +0.000 A 
ATOM     16  C   UNL     1       0.861  12.429  19.457  0.00  0.00    +0.000 C 
ATOM     17  O   UNL     1       1.511  11.840  18.600  0.00  0.00    +0.000 OA
ATOM     18  H   UNL     1      -6.823  11.358  17.895  0.00  0.00    +0.000 HD
ATOM     19  H   UNL     1      -6.096  10.834  16.458  0.00  0.00    +0.000 HD
ENDROOT
BRANCH  15  20
ATOM     20  C   UNL     1      -3.649  13.540  21.490  0.00  0.00    +0.000 A 
ATOM     21  C   UNL     1      -4.310  12.794  22.478  0.00  0.00    +0.000 A 
ATOM     22  C   UNL     1      -5.255  13.378  23.325  0.00  0.00    +0.000 A 
ATOM     23  C   UNL     1      -5.520  14.742  23.257  0.00  0.00    +0.000 A 
ATOM     24  C   UNL     1      -4.828  15.520  22.335  0.00  0.00    +0.000 A 
ATOM     25  C   UNL     1      -3.924  14.919  21.448  0.00  0.00    +0.000 A 
BRANCH  23  26
ATOM     26  O   UNL     1      -6.522  15.177  24.076  0.00  0.00    +0.000 OA
ATOM     27  C   UNL     1      -7.703  14.386  24.108  0.00  0.00    +0.000 C 
ENDBRANCH  23  26
ENDBRANCH  15  20
BRANCH   1  29
ATOM     28  C   UNL     1       3.326  14.613  19.611  0.00  0.00    +0.000 C 
ATOM     29  O   UNL     1       2.880  13.462  20.321  0.00  0.00    +0.000 OA
ENDBRANCH   1  29
BRANCH   2  30
ATOM     30  O   UNL     1       1.317  14.626  22.476  0.00  0.00    +0.000 OA
ATOM     31  C   UNL     1       1.028  16.011  22.294  0.00  0.00    +0.000 C 
ENDBRANCH   2  30
TORSDOF 4
ENDMDL
MODEL 4
REMARK VINA RESULT:      -6.3     10.188     13.116
REMARK  Name = 
REMARK  8 active torsions:
REMARK  status: ('A' for Active; 'I' for Inactive)
REMARK    1  A    between atoms: C_1  and  O_2
REMARK    2  A    between atoms: O_2  and  C_3
REMARK    3  A    between atoms: C_4  and  O_5
REMARK    4  A    between atoms: O_5  and  C_6
REMARK    5  A    between atoms: N_17  and  C_18
REMARK    6  A    between atoms: C_19  and  C_20
REMARK    7  A    between atoms: C_23  and  O_24
REMARK    8  A    between atoms: O_24  and  C_25
REMARK                            x       y       z     vdW  Elec       q    Type
REMARK                         _______ _______ _______ _____ _____    ______ ____
ROOT
ATOM      1  C   UNL     1       0.700  13.827  21.390  0.00  0.00    +0.000 C 
ATOM      2  C   UNL     1       0.662  13.222  20.184  0.00  0.00    +0.000 C 
ATOM      3  C   UNL     1      -0.649  13.140  19.482  0.00  0.00    +0.000 C 
ATOM      4  O   UNL     1      -0.718  13.268  18.267  0.00  0.00    +0.000 OA
ATOM      5  C   UNL     1      -1.864  12.977  20.296  0.00  0.00    +0.000 A 
ATOM      6  C   UNL     1      -1.849  13.569  21.566  0.00  0.00    +0.000 A 
ATOM      7  C   UNL     1      -3.012  13.629  22.353  0.00  0.00    +0.000 A 
ATOM      8  C   UNL     1      -4.180  13.085  21.809  0.00  0.00    +0.000 A 
ATOM      9  C   UNL     1      -4.201  12.447  20.567  0.00  0.00    +0.000 A 
ATOM     10  N   UNL     1      -5.471  11.987  20.299  0.00  0.00    +0.000 NA
ATOM     11  C   UNL     1      -6.229  12.381  21.283  0.00  0.00    +0.000 A 
ATOM     12  N   UNL     1      -7.558  12.216  21.326  0.00  0.00    +0.000 N 
ATOM     13  N   UNL     1      -5.489  13.011  22.251  0.00  0.00    +0.000 N 
ATOM     14  C   UNL     1      -5.976  13.564  23.490  0.00  0.00    +0.000 C 
ATOM     15  C   UNL     1      -3.026  12.346  19.776  0.00  0.00    +0.000 A 
ATOM     16  C   UNL     1      -0.591  14.143  22.094  0.00  0.00    +0.000 C 
ATOM     17  O   UNL     1      -0.619  14.814  23.120  0.00  0.00    +0.000 OA
ATOM     18  H   UNL     1      -7.941  11.616  20.599  0.00  0.00    +0.000 HD
ATOM     19  H   UNL     1      -8.078  12.176  22.193  0.00  0.00    +0.000 HD
ENDROOT
BRANCH  15  20
ATOM     20  C   UNL     1      -3.096  11.550  18.530  0.00  0.00    +0.000 A 
ATOM     21  C   UNL     1      -2.207  10.492  18.284  0.00  0.00    +0.000 A 
ATOM     22  C   UNL     1      -2.161   9.847  17.046  0.00  0.00    +0.000 A 
ATOM     23  C   UNL     1      -3.049  10.194  16.034  0.00  0.00    +0.000 A 
ATOM     24  C   UNL     1      -3.990  11.191  16.272  0.00  0.00    +0.000 A 
ATOM     25  C   UNL     1      -3.993  11.875  17.496  0.00  0.00    +0.000 A 
BRANCH  23  26
ATOM     26  O   UNL     1      -2.849   9.553  14.845  0.00  0.00    +0.000 OA
ATOM     27  C   UNL     1      -3.627  10.002  13.744  0.00  0.00    +0.000 C 
ENDBRANCH  23  26
ENDBRANCH  15  20
BRANCH   1  29
ATOM     28  C   UNL     1       2.405  15.486  21.834  0.00  0.00    +0.000 C 
ATOM     29  O   UNL     1       1.835  14.204  22.085  0.00  0.00    +0.000 OA
ENDBRANCH   1  29
BRANCH   2  30
ATOM     30  O   UNL     1       1.822  12.827  19.526  0.00  0.00    +0.000 OA
ATOM     31  C   UNL     1       2.394  13.795  18.649  0.00  0.00    +0.000 C 
ENDBRANCH   2  30
TORSDOF 4
ENDMDL
MODEL 5
REMARK VINA RESULT:      -6.2     10.319     12.574
REMARK  Name = 
REMARK  8 active torsions:
REMARK  status: ('A' for Active; 'I' for Inactive)
REMARK    1  A    between atoms: C_1  and  O_2
REMARK    2  A    between atoms: O_2  and  C_3
REMARK    3  A    between atoms: C_4  and  O_5
REMARK    4  A    between atoms: O_5  and  C_6
REMARK    5  A    between atoms: N_17  and  C_18
REMARK    6  A    between atoms: C_19  and  C_20
REMARK    7  A    between atoms: C_23  and  O_24
REMARK    8  A    between atoms: O_24  and  C_25
REMARK                            x       y       z     vdW  Elec       q    Type
REMARK                         _______ _______ _______ _____ _____    ______ ____
ROOT
ATOM      1  C   UNL     1       0.145  11.035  19.108  0.00  0.00    +0.000 C 
ATOM      2  C   UNL     1       0.258  11.588  20.335  0.00  0.00    +0.000 C 
ATOM      3  C   UNL     1      -0.984  11.775  21.136  0.00  0.00    +0.000 C 
ATOM      4  O   UNL     1      -0.979  11.602  22.347  0.00  0.00    +0.000 OA
ATOM      5  C   UNL     1      -2.230  12.097  20.422  0.00  0.00    +0.000 A 
ATOM      6  C   UNL     1      -2.368  11.562  19.135  0.00  0.00    +0.000 A 
ATOM      7  C   UNL     1      -3.585  11.657  18.436  0.00  0.00    +0.000 A 
ATOM      8  C   UNL     1      -4.647  12.294  19.086  0.00  0.00    +0.000 A 
ATOM      9  C   UNL     1      -4.511  12.877  20.348  0.00  0.00    +0.000 A 
ATOM     10  N   UNL     1      -5.703  13.453  20.727  0.00  0.00    +0.000 NA
ATOM     11  C   UNL     1      -6.566  13.183  19.790  0.00  0.00    +0.000 A 
ATOM     12  N   UNL     1      -7.870  13.485  19.854  0.00  0.00    +0.000 N 
ATOM     13  N   UNL     1      -5.969  12.522  18.747  0.00  0.00    +0.000 N 
ATOM     14  C   UNL     1      -6.599  12.076  17.530  0.00  0.00    +0.000 C 
ATOM     15  C   UNL     1      -3.278  12.822  21.050  0.00  0.00    +0.000 A 
ATOM     16  C   UNL     1      -1.220  10.885  18.493  0.00  0.00    +0.000 C 
ATOM     17  O   UNL     1      -1.392  10.264  17.449  0.00  0.00    +0.000 OA
ATOM     18  H   UNL     1      -8.134  14.090  20.628  0.00  0.00    +0.000 HD
ATOM     19  H   UNL     1      -8.444  13.617  19.031  0.00  0.00    +0.000 HD
ENDROOT
BRANCH  15  20
ATOM     20  C   UNL     1      -3.174  13.566  22.326  0.00  0.00    +0.000 A 
ATOM     21  C   UNL     1      -2.456  14.770  22.417  0.00  0.00    +0.000 A 
ATOM     22  C   UNL     1      -2.216  15.388  23.646  0.00  0.00    +0.000 A 
ATOM     23  C   UNL     1      -2.745  14.859  24.819  0.00  0.00    +0.000 A 
ATOM     24  C   UNL     1      -3.521  13.707  24.752  0.00  0.00    +0.000 A 
ATOM     25  C   UNL     1      -3.709  13.058  23.524  0.00  0.00    +0.000 A 
BRANCH  23  26
ATOM     26  O   UNL     1      -2.371  15.505  25.962  0.00  0.00    +0.000 OA
ATOM     27  C   UNL     1      -0.993  15.829  26.085  0.00  0.00    +0.000 C 
ENDBRANCH  23  26
ENDBRANCH  15  20
BRANCH   1  29
ATOM     28  C   UNL     1       1.642   9.236  18.493  0.00  0.00    +0.000 C 
ATOM     29  O   UNL     1       1.181  10.573  18.317  0.00  0.00    +0.000 OA
ENDBRANCH   1  29
BRANCH   2  30
ATOM     30  O   UNL     1       1.497  11.833  20.916  0.00  0.00    +0.000 OA
ATOM     31  C   UNL     1       2.058  13.117  20.654  0.00  0.00    +0.000 C 
ENDBRANCH   2  30
TORSDOF 4
ENDMDL
MODEL 6
REMARK VINA RESULT:      -6.2      9.793     12.951
REMARK  Name = 
REMARK  8 active torsions:
REMARK  status: ('A' for Active; 'I' for Inactive)
REMARK    1  A    between atoms: C_1  and  O_2
REMARK    2  A    between atoms: O_2  and  C_3
REMARK    3  A    between atoms: C_4  and  O_5
REMARK    4  A    between atoms: O_5  and  C_6
REMARK    5  A    between atoms: N_17  and  C_18
REMARK    6  A    between atoms: C_19  and  C_20
REMARK    7  A    between atoms: C_23  and  O_24
REMARK    8  A    between atoms: O_24  and  C_25
REMARK                            x       y       z     vdW  Elec       q    Type
REMARK                         _______ _______ _______ _____ _____    ______ ____
ROOT
ATOM      1  C   UNL     1       2.098  14.724  20.619  0.00  0.00    +0.000 C 
ATOM      2  C   UNL     1       1.666  14.025  19.548  0.00  0.00    +0.000 C 
ATOM      3  C   UNL     1       0.204  13.780  19.413  0.00  0.00    +0.000 C 
ATOM      4  O   UNL     1      -0.337  13.807  18.316  0.00  0.00    +0.000 OA
ATOM      5  C   UNL     1      -0.584  13.582  20.641  0.00  0.00    +0.000 A 
ATOM      6  C   UNL     1      -0.148  14.271  21.780  0.00  0.00    +0.000 A 
ATOM      7  C   UNL     1      -0.921  14.296  22.954  0.00  0.00    +0.000 A 
ATOM      8  C   UNL     1      -2.143  13.617  22.928  0.00  0.00    +0.000 A 
ATOM      9  C   UNL     1      -2.569  12.883  21.818  0.00  0.00    +0.000 A 
ATOM     10  N   UNL     1      -3.788  12.301  22.083  0.00  0.00    +0.000 NA
ATOM     11  C   UNL     1      -4.150  12.706  23.267  0.00  0.00    +0.000 A 
ATOM     12  N   UNL     1      -5.336  12.436  23.828  0.00  0.00    +0.000 N 
ATOM     13  N   UNL     1      -3.168  13.469  23.846  0.00  0.00    +0.000 N 
ATOM     14  C   UNL     1      -3.201  14.075  25.153  0.00  0.00    +0.000 C 
ATOM     15  C   UNL     1      -1.781  12.818  20.638  0.00  0.00    +0.000 A 
ATOM     16  C   UNL     1       1.148  14.987  21.756  0.00  0.00    +0.000 C 
ATOM     17  O   UNL     1       1.442  15.732  22.684  0.00  0.00    +0.000 OA
ATOM     18  H   UNL     1      -5.901  11.751  23.332  0.00  0.00    +0.000 HD
ATOM     19  H   UNL     1      -5.479  12.421  24.830  0.00  0.00    +0.000 HD
ENDROOT
BRANCH  15  20
ATOM     20  C   UNL     1      -2.237  11.924  19.550  0.00  0.00    +0.000 A 
ATOM     21  C   UNL     1      -1.479  10.813  19.148  0.00  0.00    +0.000 A 
ATOM     22  C   UNL     1      -1.820  10.065  18.018  0.00  0.00    +0.000 A 
ATOM     23  C   UNL     1      -2.968  10.363  17.292  0.00  0.00    +0.000 A 
ATOM     24  C   UNL     1      -3.778  11.413  17.708  0.00  0.00    +0.000 A 
ATOM     25  C   UNL     1      -3.401  12.198  18.808  0.00  0.00    +0.000 A 
BRANCH  23  26
ATOM     26  O   UNL     1      -3.146   9.616  16.163  0.00  0.00    +0.000 OA
ATOM     27  C   UNL     1      -3.222  10.329  14.936  0.00  0.00    +0.000 C 
ENDBRANCH  23  26
ENDBRANCH  15  20
BRANCH   1  29
ATOM     28  C   UNL     1       4.364  14.439  21.419  0.00  0.00    +0.000 C 
ATOM     29  O   UNL     1       3.365  15.247  20.804  0.00  0.00    +0.000 OA
ENDBRANCH   1  29
BRANCH   2  30
ATOM     30  O   UNL     1       2.522  13.677  18.509  0.00  0.00    +0.000 OA
ATOM     31  C   UNL     1       2.556  12.291  18.175  0.00  0.00    +0.000 C 
ENDBRANCH   2  30
TORSDOF 4
ENDMDL
MODEL 7
REMARK VINA RESULT:      -6.2      3.886      6.169
REMARK  Name = 
REMARK  8 active torsions:
REMARK  status: ('A' for Active; 'I' for Inactive)
REMARK    1  A    between atoms: C_1  and  O_2
REMARK    2  A    between atoms: O_2  and  C_3
REMARK    3  A    between atoms: C_4  and  O_5
REMARK    4  A    between atoms: O_5  and  C_6
REMARK    5  A    between atoms: N_17  and  C_18
REMARK    6  A    between atoms: C_19  and  C_20
REMARK    7  A    between atoms: C_23  and  O_24
REMARK    8  A    between atoms: O_24  and  C_25
REMARK                            x       y       z     vdW  Elec       q    Type
REMARK                         _______ _______ _______ _____ _____    ______ ____
ROOT
ATOM      1  C   UNL     1       1.311   9.389  19.531  0.00  0.00    +0.000 C 
ATOM      2  C   UNL     1       2.176   9.420  18.495  0.00  0.00    +0.000 C 
ATOM      3  C   UNL     1       2.611   8.123  17.906  0.00  0.00    +0.000 C 
ATOM      4  O   UNL     1       2.778   8.007  16.700  0.00  0.00    +0.000 OA
ATOM      5  C   UNL     1       2.762   6.967  18.805  0.00  0.00    +0.000 A 
ATOM      6  C   UNL     1       1.899   6.917  19.908  0.00  0.00    +0.000 A 
ATOM      7  C   UNL     1       1.833   5.777  20.728  0.00  0.00    +0.000 A 
ATOM      8  C   UNL     1       2.655   4.698  20.388  0.00  0.00    +0.000 A 
ATOM      9  C   UNL     1       3.558   4.751  19.323  0.00  0.00    +0.000 A 
ATOM     10  N   UNL     1       4.251   3.563  19.239  0.00  0.00    +0.000 NA
ATOM     11  C   UNL     1       3.759   2.775  20.152  0.00  0.00    +0.000 A 
ATOM     12  N   UNL     1       4.106   1.490  20.308  0.00  0.00    +0.000 N 
ATOM     13  N   UNL     1       2.820   3.427  20.911  0.00  0.00    +0.000 N 
ATOM     14  C   UNL     1       2.076   2.887  22.020  0.00  0.00    +0.000 C 
ATOM     15  C   UNL     1       3.661   5.909  18.508  0.00  0.00    +0.000 A 
ATOM     16  C   UNL     1       1.038   8.080  20.221  0.00  0.00    +0.000 C 
ATOM     17  O   UNL     1       0.160   7.968  21.070  0.00  0.00    +0.000 OA
ATOM     18  H   UNL     1       4.907   1.191  19.757  0.00  0.00    +0.000 HD
ATOM     19  H   UNL     1       4.023   1.003  21.190  0.00  0.00    +0.000 HD
ENDROOT
BRANCH  15  20
ATOM     20  C   UNL     1       4.724   5.937  17.478  0.00  0.00    +0.000 A 
ATOM     21  C   UNL     1       4.572   5.276  16.248  0.00  0.00    +0.000 A 
ATOM     22  C   UNL     1       5.629   5.161  15.343  0.00  0.00    +0.000 A 
ATOM     23  C   UNL     1       6.856   5.761  15.608  0.00  0.00    +0.000 A 
ATOM     24  C   UNL     1       7.015   6.484  16.785  0.00  0.00    +0.000 A 
ATOM     25  C   UNL     1       5.969   6.547  17.717  0.00  0.00    +0.000 A 
BRANCH  23  26
ATOM     26  O   UNL     1       7.833   5.506  14.689  0.00  0.00    +0.000 OA
ATOM     27  C   UNL     1       7.447   4.758  13.544  0.00  0.00    +0.000 C 
ENDBRANCH  23  26
ENDBRANCH  15  20
BRANCH   1  29
ATOM     28  C   UNL     1      -0.737  10.670  19.672  0.00  0.00    +0.000 C 
ATOM     29  O   UNL     1       0.620  10.465  20.057  0.00  0.00    +0.000 OA
ENDBRANCH   1  29
BRANCH   2  30
ATOM     30  O   UNL     1       2.534  10.613  17.876  0.00  0.00    +0.000 OA
ATOM     31  C   UNL     1       2.208  11.801  18.594  0.00  0.00    +0.000 C 
ENDBRANCH   2  30
TORSDOF 4
ENDMDL
MODEL 8
REMARK VINA RESULT:      -6.1      9.319     11.788
REMARK  Name = 
REMARK  8 active torsions:
REMARK  status: ('A' for Active; 'I' for Inactive)
REMARK    1  A    between atoms: C_1  and  O_2
REMARK    2  A    between atoms: O_2  and  C_3
REMARK    3  A    between atoms: C_4  and  O_5
REMARK    4  A    between atoms: O_5  and  C_6
REMARK    5  A    between atoms: N_17  and  C_18
REMARK    6  A    between atoms: C_19  and  C_20
REMARK    7  A    between atoms: C_23  and  O_24
REMARK    8  A    between atoms: O_24  and  C_25
REMARK                            x       y       z     vdW  Elec       q    Type
REMARK                         _______ _______ _______ _____ _____    ______ ____
ROOT
ATOM      1  C   UNL     1      -1.729  14.243  23.646  0.00  0.00    +0.000 C 
ATOM      2  C   UNL     1      -2.192  13.232  22.881  0.00  0.00    +0.000 C 
ATOM      3  C   UNL     1      -1.271  12.635  21.874  0.00  0.00    +0.000 C 
ATOM      4  O   UNL     1      -1.280  11.432  21.652  0.00  0.00    +0.000 OA
ATOM      5  C   UNL     1      -0.298  13.520  21.212  0.00  0.00    +0.000 A 
ATOM      6  C   UNL     1       0.183  14.596  21.968  0.00  0.00    +0.000 A 
ATOM      7  C   UNL     1       1.241  15.396  21.502  0.00  0.00    +0.000 A 
ATOM      8  C   UNL     1       1.796  15.062  20.263  0.00  0.00    +0.000 A 
ATOM      9  C   UNL     1       1.295  14.025  19.473  0.00  0.00    +0.000 A 
ATOM     10  N   UNL     1       2.012  13.941  18.301  0.00  0.00    +0.000 NA
ATOM     11  C   UNL     1       2.964  14.827  18.378  0.00  0.00    +0.000 A 
ATOM     12  N   UNL     1       3.937  14.972  17.469  0.00  0.00    +0.000 N 
ATOM     13  N   UNL     1       2.852  15.569  19.527  0.00  0.00    +0.000 N 
ATOM     14  C   UNL     1       3.710  16.648  19.947  0.00  0.00    +0.000 C 
ATOM     15  C   UNL     1       0.202  13.231  19.914  0.00  0.00    +0.000 A 
ATOM     16  C   UNL     1      -0.427  14.903  23.282  0.00  0.00    +0.000 C 
ATOM     17  O   UNL     1       0.108  15.725  24.017  0.00  0.00    +0.000 OA
ATOM     18  H   UNL     1       3.808  14.439  16.612  0.00  0.00    +0.000 HD
ATOM     19  H   UNL     1       4.431  15.844  17.327  0.00  0.00    +0.000 HD
ENDROOT
BRANCH  15  20
ATOM     20  C   UNL     1      -0.352  12.232  18.973  0.00  0.00    +0.000 A 
ATOM     21  C   UNL     1      -1.506  12.496  18.218  0.00  0.00    +0.000 A 
ATOM     22  C   UNL     1      -2.126  11.503  17.456  0.00  0.00    +0.000 A 
ATOM     23  C   UNL     1      -1.574  10.229  17.371  0.00  0.00    +0.000 A 
ATOM     24  C   UNL     1      -0.391   9.957  18.051  0.00  0.00    +0.000 A 
ATOM     25  C   UNL     1       0.195  10.940  18.861  0.00  0.00    +0.000 A 
BRANCH  23  26
ATOM     26  O   UNL     1      -2.316   9.325  16.667  0.00  0.00    +0.000 OA
ATOM     27  C   UNL     1      -3.006   9.821  15.528  0.00  0.00    +0.000 C 
ENDBRANCH  23  26
ENDBRANCH  15  20
BRANCH   1  29
ATOM     28  C   UNL     1      -3.359  15.747  24.615  0.00  0.00    +0.000 C 
ATOM     29  O   UNL     1      -2.337  14.766  24.773  0.00  0.00    +0.000 OA
ENDBRANCH   1  29
BRANCH   2  30
ATOM     30  O   UNL     1      -3.430  12.643  23.117  0.00  0.00    +0.000 OA
ATOM     31  C   UNL     1      -4.444  12.931  22.157  0.00  0.00    +0.000 C 
ENDBRANCH   2  30
TORSDOF 4
ENDMDL
MODEL 9
REMARK VINA RESULT:      -6.1     10.176     12.567
REMARK  Name = 
REMARK  8 active torsions:
REMARK  status: ('A' for Active; 'I' for Inactive)
REMARK    1  A    between atoms: C_1  and  O_2
REMARK    2  A    between atoms: O_2  and  C_3
REMARK    3  A    between atoms: C_4  and  O_5
REMARK    4  A    between atoms: O_5  and  C_6
REMARK    5  A    between atoms: N_17  and  C_18
REMARK    6  A    between atoms: C_19  and  C_20
REMARK    7  A    between atoms: C_23  and  O_24
REMARK    8  A    between atoms: O_24  and  C_25
REMARK                            x       y       z     vdW  Elec       q    Type
REMARK                         _______ _______ _______ _____ _____    ______ ____
ROOT
ATOM      1  C   UNL     1       1.852  13.400  20.563  0.00  0.00    +0.000 C 
ATOM      2  C   UNL     1       1.075  13.917  21.537  0.00  0.00    +0.000 C 
ATOM      3  C   UNL     1      -0.303  13.375  21.696  0.00  0.00    +0.000 C 
ATOM      4  O   UNL     1      -0.796  13.230  22.807  0.00  0.00    +0.000 OA
ATOM      5  C   UNL     1      -1.026  12.948  20.487  0.00  0.00    +0.000 A 
ATOM      6  C   UNL     1      -0.246  12.431  19.444  0.00  0.00    +0.000 A 
ATOM      7  C   UNL     1      -0.842  11.832  18.320  0.00  0.00    +0.000 A 
ATOM      8  C   UNL     1      -2.238  11.765  18.297  0.00  0.00    +0.000 A 
ATOM      9  C   UNL     1      -3.031  12.320  19.304  0.00  0.00    +0.000 A 
ATOM     10  N   UNL     1      -4.363  12.130  19.008  0.00  0.00    +0.000 NA
ATOM     11  C   UNL     1      -4.408  11.426  17.913  0.00  0.00    +0.000 A 
ATOM     12  N   UNL     1      -5.535  10.948  17.368  0.00  0.00    +0.000 N 
ATOM     13  N   UNL     1      -3.149  11.216  17.411  0.00  0.00    +0.000 N 
ATOM     14  C   UNL     1      -2.804  10.498  16.210  0.00  0.00    +0.000 C 
ATOM     15  C   UNL     1      -2.445  12.961  20.427  0.00  0.00    +0.000 A 
ATOM     16  C   UNL     1       1.230  12.514  19.518  0.00  0.00    +0.000 C 
ATOM     17  O   UNL     1       1.910  11.907  18.698  0.00  0.00    +0.000 OA
ATOM     18  H   UNL     1      -6.395  11.299  17.782  0.00  0.00    +0.000 HD
ATOM     19  H   UNL     1      -5.622  10.739  16.382  0.00  0.00    +0.000 HD
ENDROOT
BRANCH  15  20
ATOM     20  C   UNL     1      -3.347  13.632  21.390  0.00  0.00    +0.000 A 
ATOM     21  C   UNL     1      -3.547  15.021  21.363  0.00  0.00    +0.000 A 
ATOM     22  C   UNL     1      -4.263  15.678  22.367  0.00  0.00    +0.000 A 
ATOM     23  C   UNL     1      -4.861  14.958  23.396  0.00  0.00    +0.000 A 
ATOM     24  C   UNL     1      -4.741  13.572  23.410  0.00  0.00    +0.000 A 
ATOM     25  C   UNL     1      -3.972  12.924  22.433  0.00  0.00    +0.000 A 
BRANCH  23  26
ATOM     26  O   UNL     1      -5.459  15.718  24.359  0.00  0.00    +0.000 OA
ATOM     27  C   UNL     1      -4.712  16.823  24.850  0.00  0.00    +0.000 C 
ENDBRANCH  23  26
ENDBRANCH  15  20
BRANCH   1  29
ATOM     28  C   UNL     1       3.664  14.735  19.673  0.00  0.00    +0.000 C 
ATOM     29  O   UNL     1       3.212  13.598  20.405  0.00  0.00    +0.000 OA
ENDBRANCH   1  29
BRANCH   2  30
ATOM     30  O   UNL     1       1.577  14.811  22.477  0.00  0.00    +0.000 OA
ATOM     31  C   UNL     1       1.263  16.183  22.252  0.00  0.00    +0.000 C 
ENDBRANCH   2  30
TORSDOF 4
ENDMDL
