MODEL 1
REMARK VINA RESULT:      -7.7      0.000      0.000
REMARK  Name = 
REMARK  3 active torsions:
REMARK  status: ('A' for Active; 'I' for Inactive)
REMARK    1  A    between atoms: C_1  and  C_2
REMARK    2  A    between atoms: C_8  and  C_9
REMARK    3  A    between atoms: C_12  and  C_13
REMARK                            x       y       z     vdW  Elec       q    Type
REMARK                         _______ _______ _______ _____ _____    ______ ____
ROOT
ATOM      1  C   UNL     1       4.920   2.890  11.649  0.00  0.00    +0.000 C 
ATOM      2  C   UNL     1       5.657   3.632  12.722  0.00  0.00    +0.000 A 
ATOM      3  C   UNL     1       6.967   4.197  12.409  0.00  0.00    +0.000 A 
ATOM      4  C   UNL     1       7.664   4.912  13.309  0.00  0.00    +0.000 A 
ATOM      5  C   UNL     1       7.122   5.141  14.602  0.00  0.00    +0.000 A 
ATOM      6  N   UNL     1       7.592   5.848  15.607  0.00  0.00    +0.000 NA
ATOM      7  C   UNL     1       6.624   5.780  16.571  0.00  0.00    +0.000 A 
ATOM      8  C   UNL     1       5.564   4.999  16.165  0.00  0.00    +0.000 A 
ATOM      9  N   UNL     1       5.874   4.579  14.892  0.00  0.00    +0.000 N 
ATOM     10  C   UNL     1       5.155   3.825  13.958  0.00  0.00    +0.000 A 
ENDROOT
BRANCH   8  11
ATOM     11  C   UNL     1       4.340   4.794  16.966  0.00  0.00    +0.000 A 
ATOM     12  N   UNL     1       3.534   5.763  17.417  0.00  0.00    +0.000 NA
ATOM     13  O   UNL     1       2.650   5.082  18.264  0.00  0.00    +0.000 OA
ATOM     14  C   UNL     1       3.025   3.770  18.233  0.00  0.00    +0.000 A 
ATOM     15  N   UNL     1       4.010   3.536  17.400  0.00  0.00    +0.000 NA
BRANCH  14  16
ATOM     16  C   UNL     1       2.455   2.871  19.258  0.00  0.00    +0.000 C 
ATOM     17  C   UNL     1       3.278   2.775  20.525  0.00  0.00    +0.000 C 
ATOM     18  C   UNL     1       2.242   2.491  21.594  0.00  0.00    +0.000 C 
ATOM     19  O   UNL     1       0.979   2.972  21.121  0.00  0.00    +0.000 OA
ATOM     20  C   UNL     1       1.144   3.441  19.778  0.00  0.00    +0.000 C 
ENDBRANCH  14  16
ENDBRANCH   8  11
TORSDOF 2
ENDMDL
MODEL 2
REMARK VINA RESULT:      -7.5      3.098      6.433
REMARK  Name = 
REMARK  3 active torsions:
REMARK  status: ('A' for Active; 'I' for Inactive)
REMARK    1  A    between atoms: C_1  and  C_2
REMARK    2  A    between atoms: C_8  and  C_9
REMARK    3  A    between atoms: C_12  and  C_13
REMARK                            x       y       z     vdW  Elec       q    Type
REMARK                         _______ _______ _______ _____ _____    ______ ____
ROOT
ATOM      1  C   UNL     1       1.718   3.501  17.439  0.00  0.00    +0.000 C 
ATOM      2  C   UNL     1       3.069   3.946  17.911  0.00  0.00    +0.000 A 
ATOM      3  C   UNL     1       3.301   4.074  19.347  0.00  0.00    +0.000 A 
ATOM      4  C   UNL     1       4.500   4.426  19.842  0.00  0.00    +0.000 A 
ATOM      5  C   UNL     1       5.584   4.675  18.958  0.00  0.00    +0.000 A 
ATOM      6  N   UNL     1       6.840   4.971  19.217  0.00  0.00    +0.000 NA
ATOM      7  C   UNL     1       7.449   5.027  17.994  0.00  0.00    +0.000 A 
ATOM      8  C   UNL     1       6.552   4.793  16.974  0.00  0.00    +0.000 A 
ATOM      9  N   UNL     1       5.341   4.564  17.585  0.00  0.00    +0.000 N 
ATOM     10  C   UNL     1       4.090   4.210  17.071  0.00  0.00    +0.000 A 
ENDROOT
BRANCH   8  11
ATOM     11  C   UNL     1       6.930   4.724  15.548  0.00  0.00    +0.000 A 
ATOM     12  N   UNL     1       7.691   5.613  14.899  0.00  0.00    +0.000 NA
ATOM     13  O   UNL     1       7.592   5.212  13.561  0.00  0.00    +0.000 OA
ATOM     14  C   UNL     1       6.774   4.119  13.549  0.00  0.00    +0.000 A 
ATOM     15  N   UNL     1       6.400   3.743  14.748  0.00  0.00    +0.000 NA
BRANCH  14  16
ATOM     16  C   UNL     1       6.259   3.664  12.241  0.00  0.00    +0.000 C 
ATOM     17  C   UNL     1       6.570   2.216  11.924  0.00  0.00    +0.000 C 
ATOM     18  C   UNL     1       5.410   1.795  11.043  0.00  0.00    +0.000 C 
ATOM     19  O   UNL     1       4.306   2.660  11.327  0.00  0.00    +0.000 OA
ATOM     20  C   UNL     1       4.738   3.662  12.253  0.00  0.00    +0.000 C 
ENDBRANCH  14  16
ENDBRANCH   8  11
TORSDOF 2
ENDMDL
MODEL 3
REMARK VINA RESULT:      -7.4      2.662      6.979
REMARK  Name = 
REMARK  3 active torsions:
REMARK  status: ('A' for Active; 'I' for Inactive)
REMARK    1  A    between atoms: C_1  and  C_2
REMARK    2  A    between atoms: C_8  and  C_9
REMARK    3  A    between atoms: C_12  and  C_13
REMARK                            x       y       z     vdW  Elec       q    Type
REMARK                         _______ _______ _______ _____ _____    ______ ____
ROOT
ATOM      1  C   UNL     1       3.201   2.505  20.824  0.00  0.00    +0.000 C 
ATOM      2  C   UNL     1       2.987   3.846  20.192  0.00  0.00    +0.000 A 
ATOM      3  C   UNL     1       1.926   4.704  20.713  0.00  0.00    +0.000 A 
ATOM      4  C   UNL     1       1.707   5.937  20.224  0.00  0.00    +0.000 A 
ATOM      5  C   UNL     1       2.526   6.437  19.176  0.00  0.00    +0.000 A 
ATOM      6  N   UNL     1       2.530   7.616  18.591  0.00  0.00    +0.000 NA
ATOM      7  C   UNL     1       3.574   7.568  17.709  0.00  0.00    +0.000 A 
ATOM      8  C   UNL     1       4.195   6.339  17.731  0.00  0.00    +0.000 A 
ATOM      9  N   UNL     1       3.526   5.597  18.677  0.00  0.00    +0.000 N 
ATOM     10  C   UNL     1       3.745   4.310  19.178  0.00  0.00    +0.000 A 
ENDROOT
BRANCH   8  11
ATOM     11  C   UNL     1       5.395   6.010  16.934  0.00  0.00    +0.000 A 
ATOM     12  N   UNL     1       6.442   6.819  16.734  0.00  0.00    +0.000 NA
ATOM     13  O   UNL     1       7.203   6.136  15.776  0.00  0.00    +0.000 OA
ATOM     14  C   UNL     1       6.525   4.985  15.500  0.00  0.00    +0.000 A 
ATOM     15  N   UNL     1       5.449   4.832  16.234  0.00  0.00    +0.000 NA
BRANCH  14  16
ATOM     16  C   UNL     1       6.944   4.211  14.313  0.00  0.00    +0.000 C 
ATOM     17  C   UNL     1       5.795   3.685  13.479  0.00  0.00    +0.000 C 
ATOM     18  C   UNL     1       6.372   3.638  12.078  0.00  0.00    +0.000 C 
ATOM     19  O   UNL     1       7.455   4.572  12.018  0.00  0.00    +0.000 OA
ATOM     20  C   UNL     1       7.658   5.120  13.325  0.00  0.00    +0.000 C 
ENDBRANCH  14  16
ENDBRANCH   8  11
TORSDOF 2
ENDMDL
MODEL 4
REMARK VINA RESULT:      -7.4      2.914      7.100
REMARK  Name = 
REMARK  3 active torsions:
REMARK  status: ('A' for Active; 'I' for Inactive)
REMARK    1  A    between atoms: C_1  and  C_2
REMARK    2  A    between atoms: C_8  and  C_9
REMARK    3  A    between atoms: C_12  and  C_13
REMARK                            x       y       z     vdW  Elec       q    Type
REMARK                         _______ _______ _______ _____ _____    ______ ____
ROOT
ATOM      1  C   UNL     1       1.962   8.201  19.108  0.00  0.00    +0.000 C 
ATOM      2  C   UNL     1       2.394   6.821  19.496  0.00  0.00    +0.000 A 
ATOM      3  C   UNL     1       1.654   6.125  20.545  0.00  0.00    +0.000 A 
ATOM      4  C   UNL     1       1.958   4.868  20.913  0.00  0.00    +0.000 A 
ATOM      5  C   UNL     1       3.021   4.181  20.268  0.00  0.00    +0.000 A 
ATOM      6  N   UNL     1       3.451   2.947  20.422  0.00  0.00    +0.000 NA
ATOM      7  C   UNL     1       4.445   2.801  19.493  0.00  0.00    +0.000 A 
ATOM      8  C   UNL     1       4.647   3.966  18.785  0.00  0.00    +0.000 A 
ATOM      9  N   UNL     1       3.731   4.867  19.276  0.00  0.00    +0.000 N 
ATOM     10  C   UNL     1       3.421   6.178  18.903  0.00  0.00    +0.000 A 
ENDROOT
BRANCH   8  11
ATOM     11  C   UNL     1       5.608   4.093  17.671  0.00  0.00    +0.000 A 
ATOM     12  N   UNL     1       6.907   4.389  17.793  0.00  0.00    +0.000 NA
ATOM     13  O   UNL     1       7.324   4.581  16.469  0.00  0.00    +0.000 OA
ATOM     14  C   UNL     1       6.222   4.381  15.690  0.00  0.00    +0.000 A 
ATOM     15  N   UNL     1       5.166   4.014  16.375  0.00  0.00    +0.000 NA
BRANCH  14  16
ATOM     16  C   UNL     1       6.298   4.804  14.276  0.00  0.00    +0.000 C 
ATOM     17  C   UNL     1       7.689   5.189  13.819  0.00  0.00    +0.000 C 
ATOM     18  C   UNL     1       7.680   4.845  12.343  0.00  0.00    +0.000 C 
ATOM     19  O   UNL     1       6.674   3.849  12.129  0.00  0.00    +0.000 OA
ATOM     20  C   UNL     1       5.982   3.629  13.363  0.00  0.00    +0.000 C 
ENDBRANCH  14  16
ENDBRANCH   8  11
TORSDOF 2
ENDMDL
MODEL 5
REMARK VINA RESULT:      -7.2      0.994      1.090
REMARK  Name = 
REMARK  3 active torsions:
REMARK  status: ('A' for Active; 'I' for Inactive)
REMARK    1  A    between atoms: C_1  and  C_2
REMARK    2  A    between atoms: C_8  and  C_9
REMARK    3  A    between atoms: C_12  and  C_13
REMARK                            x       y       z     vdW  Elec       q    Type
REMARK                         _______ _______ _______ _____ _____    ______ ____
ROOT
ATOM      1  C   UNL     1       4.288   2.944  11.308  0.00  0.00    +0.000 C 
ATOM      2  C   UNL     1       5.263   3.563  12.262  0.00  0.00    +0.000 A 
ATOM      3  C   UNL     1       6.609   3.870  11.785  0.00  0.00    +0.000 A 
ATOM      4  C   UNL     1       7.521   4.467  12.573  0.00  0.00    +0.000 A 
ATOM      5  C   UNL     1       7.179   4.822  13.906  0.00  0.00    +0.000 A 
ATOM      6  N   UNL     1       7.880   5.455  14.822  0.00  0.00    +0.000 NA
ATOM      7  C   UNL     1       7.031   5.589  15.886  0.00  0.00    +0.000 A 
ATOM      8  C   UNL     1       5.809   5.006  15.630  0.00  0.00    +0.000 A 
ATOM      9  N   UNL     1       5.891   4.506  14.351  0.00  0.00    +0.000 N 
ATOM     10  C   UNL     1       4.948   3.875  13.535  0.00  0.00    +0.000 A 
ENDROOT
BRANCH   8  11
ATOM     11  C   UNL     1       4.666   5.049  16.567  0.00  0.00    +0.000 A 
ATOM     12  N   UNL     1       4.187   6.148  17.160  0.00  0.00    +0.000 NA
ATOM     13  O   UNL     1       3.256   5.644  18.077  0.00  0.00    +0.000 OA
ATOM     14  C   UNL     1       3.279   4.286  17.936  0.00  0.00    +0.000 A 
ATOM     15  N   UNL     1       4.076   3.881  16.977  0.00  0.00    +0.000 NA
BRANCH  14  16
ATOM     16  C   UNL     1       2.612   3.479  18.979  0.00  0.00    +0.000 C 
ATOM     17  C   UNL     1       1.831   4.295  19.988  0.00  0.00    +0.000 C 
ATOM     18  C   UNL     1       0.719   3.355  20.412  0.00  0.00    +0.000 C 
ATOM     19  O   UNL     1       0.525   2.402  19.361  0.00  0.00    +0.000 OA
ATOM     20  C   UNL     1       1.519   2.624  18.356  0.00  0.00    +0.000 C 
ENDBRANCH  14  16
ENDBRANCH   8  11
TORSDOF 2
ENDMDL
MODEL 6
REMARK VINA RESULT:      -7.2      4.420      6.575
REMARK  Name = 
REMARK  3 active torsions:
REMARK  status: ('A' for Active; 'I' for Inactive)
REMARK    1  A    between atoms: C_1  and  C_2
REMARK    2  A    between atoms: C_8  and  C_9
REMARK    3  A    between atoms: C_12  and  C_13
REMARK                            x       y       z     vdW  Elec       q    Type
REMARK                         _______ _______ _______ _____ _____    ______ ____
ROOT
ATOM      1  C   UNL     1       1.789   2.696  21.666  0.00  0.00    +0.000 C 
ATOM      2  C   UNL     1       2.572   3.411  20.607  0.00  0.00    +0.000 A 
ATOM      3  C   UNL     1       3.565   2.659  19.845  0.00  0.00    +0.000 A 
ATOM      4  C   UNL     1       4.272   3.226  18.851  0.00  0.00    +0.000 A 
ATOM      5  C   UNL     1       4.053   4.589  18.516  0.00  0.00    +0.000 A 
ATOM      6  N   UNL     1       4.580   5.323  17.559  0.00  0.00    +0.000 NA
ATOM      7  C   UNL     1       3.952   6.533  17.657  0.00  0.00    +0.000 A 
ATOM      8  C   UNL     1       3.055   6.552  18.703  0.00  0.00    +0.000 A 
ATOM      9  N   UNL     1       3.111   5.299  19.267  0.00  0.00    +0.000 N 
ATOM     10  C   UNL     1       2.384   4.712  20.308  0.00  0.00    +0.000 A 
ENDROOT
BRANCH   8  11
ATOM     11  C   UNL     1       2.180   7.701  19.014  0.00  0.00    +0.000 A 
ATOM     12  N   UNL     1       1.805   8.651  18.150  0.00  0.00    +0.000 NA
ATOM     13  O   UNL     1       1.159   9.593  18.961  0.00  0.00    +0.000 OA
ATOM     14  C   UNL     1       1.219   9.105  20.234  0.00  0.00    +0.000 A 
ATOM     15  N   UNL     1       1.774   7.919  20.306  0.00  0.00    +0.000 NA
BRANCH  14  16
ATOM     16  C   UNL     1       0.876  10.027  21.337  0.00  0.00    +0.000 C 
ATOM     17  C   UNL     1      -0.572  10.469  21.346  0.00  0.00    +0.000 C 
ATOM     18  C   UNL     1      -0.855  10.713  22.815  0.00  0.00    +0.000 C 
ATOM     19  O   UNL     1       0.076   9.936  23.576  0.00  0.00    +0.000 OA
ATOM     20  C   UNL     1       0.991   9.307  22.672  0.00  0.00    +0.000 C 
ENDBRANCH  14  16
ENDBRANCH   8  11
TORSDOF 2
ENDMDL
MODEL 7
REMARK VINA RESULT:      -7.1      4.728      6.475
REMARK  Name = 
REMARK  3 active torsions:
REMARK  status: ('A' for Active; 'I' for Inactive)
REMARK    1  A    between atoms: C_1  and  C_2
REMARK    2  A    between atoms: C_8  and  C_9
REMARK    3  A    between atoms: C_12  and  C_13
REMARK                            x       y       z     vdW  Elec       q    Type
REMARK                         _______ _______ _______ _____ _____    ______ ____
ROOT
ATOM      1  C   UNL     1       0.714   2.460  18.857  0.00  0.00    +0.000 C 
ATOM      2  C   UNL     1       1.823   3.341  18.370  0.00  0.00    +0.000 A 
ATOM      3  C   UNL     1       2.890   2.744  17.571  0.00  0.00    +0.000 A 
ATOM      4  C   UNL     1       3.893   3.482  17.064  0.00  0.00    +0.000 A 
ATOM      5  C   UNL     1       3.926   4.883  17.295  0.00  0.00    +0.000 A 
ATOM      6  N   UNL     1       4.765   5.797  16.855  0.00  0.00    +0.000 NA
ATOM      7  C   UNL     1       4.275   6.982  17.327  0.00  0.00    +0.000 A 
ATOM      8  C   UNL     1       3.142   6.792  18.088  0.00  0.00    +0.000 A 
ATOM      9  N   UNL     1       2.906   5.437  18.075  0.00  0.00    +0.000 N 
ATOM     10  C   UNL     1       1.870   4.666  18.612  0.00  0.00    +0.000 A 
ENDROOT
BRANCH   8  11
ATOM     11  C   UNL     1       2.352   7.893  18.676  0.00  0.00    +0.000 A 
ATOM     12  N   UNL     1       1.901   7.942  19.934  0.00  0.00    +0.000 NA
ATOM     13  O   UNL     1       1.065   9.067  19.937  0.00  0.00    +0.000 OA
ATOM     14  C   UNL     1       1.103   9.573  18.670  0.00  0.00    +0.000 A 
ATOM     15  N   UNL     1       1.930   8.929  17.882  0.00  0.00    +0.000 NA
BRANCH  14  16
ATOM     16  C   UNL     1       0.089  10.585  18.308  0.00  0.00    +0.000 C 
ATOM     17  C   UNL     1      -1.324  10.219  18.711  0.00  0.00    +0.000 C 
ATOM     18  C   UNL     1      -1.979  11.565  18.949  0.00  0.00    +0.000 C 
ATOM     19  O   UNL     1      -0.947  12.511  19.246  0.00  0.00    +0.000 OA
ATOM     20  C   UNL     1       0.321  11.861  19.102  0.00  0.00    +0.000 C 
ENDBRANCH  14  16
ENDBRANCH   8  11
TORSDOF 2
ENDMDL
MODEL 8
REMARK VINA RESULT:      -7.1      3.315      7.052
REMARK  Name = 
REMARK  3 active torsions:
REMARK  status: ('A' for Active; 'I' for Inactive)
REMARK    1  A    between atoms: C_1  and  C_2
REMARK    2  A    between atoms: C_8  and  C_9
REMARK    3  A    between atoms: C_12  and  C_13
REMARK                            x       y       z     vdW  Elec       q    Type
REMARK                         _______ _______ _______ _____ _____    ______ ____
ROOT
ATOM      1  C   UNL     1       1.749  10.020  17.877  0.00  0.00    +0.000 C 
ATOM      2  C   UNL     1       1.821   8.827  18.779  0.00  0.00    +0.000 A 
ATOM      3  C   UNL     1       1.234   8.922  20.113  0.00  0.00    +0.000 A 
ATOM      4  C   UNL     1       1.223   7.877  20.959  0.00  0.00    +0.000 A 
ATOM      5  C   UNL     1       1.786   6.636  20.557  0.00  0.00    +0.000 A 
ATOM      6  N   UNL     1       1.835   5.482  21.187  0.00  0.00    +0.000 NA
ATOM      7  C   UNL     1       2.423   4.622  20.301  0.00  0.00    +0.000 A 
ATOM      8  C   UNL     1       2.767   5.261  19.130  0.00  0.00    +0.000 A 
ATOM      9  N   UNL     1       2.359   6.566  19.282  0.00  0.00    +0.000 N 
ATOM     10  C   UNL     1       2.381   7.658  18.408  0.00  0.00    +0.000 A 
ENDROOT
BRANCH   8  11
ATOM     11  C   UNL     1       3.358   4.576  17.962  0.00  0.00    +0.000 A 
ATOM     12  N   UNL     1       3.040   3.347  17.538  0.00  0.00    +0.000 NA
ATOM     13  O   UNL     1       3.994   3.090  16.544  0.00  0.00    +0.000 OA
ATOM     14  C   UNL     1       4.788   4.198  16.482  0.00  0.00    +0.000 A 
ATOM     15  N   UNL     1       4.396   5.159  17.282  0.00  0.00    +0.000 NA
BRANCH  14  16
ATOM     16  C   UNL     1       6.055   4.090  15.728  0.00  0.00    +0.000 C 
ATOM     17  C   UNL     1       5.886   4.145  14.224  0.00  0.00    +0.000 C 
ATOM     18  C   UNL     1       7.188   4.758  13.748  0.00  0.00    +0.000 C 
ATOM     19  O   UNL     1       7.744   5.507  14.834  0.00  0.00    +0.000 OA
ATOM     20  C   UNL     1       6.923   5.311  15.990  0.00  0.00    +0.000 C 
ENDBRANCH  14  16
ENDBRANCH   8  11
TORSDOF 2
ENDMDL
MODEL 9
REMARK VINA RESULT:      -7.1      3.338      6.962
REMARK  Name = 
REMARK  3 active torsions:
REMARK  status: ('A' for Active; 'I' for Inactive)
REMARK    1  A    between atoms: C_1  and  C_2
REMARK    2  A    between atoms: C_8  and  C_9
REMARK    3  A    between atoms: C_12  and  C_13
REMARK                            x       y       z     vdW  Elec       q    Type
REMARK                         _______ _______ _______ _____ _____    ______ ____
ROOT
ATOM      1  C   UNL     1       1.441   6.765  20.915  0.00  0.00    +0.000 C 
ATOM      2  C   UNL     1       1.758   5.422  20.331  0.00  0.00    +0.000 A 
ATOM      3  C   UNL     1       0.888   4.295  20.658  0.00  0.00    +0.000 A 
ATOM      4  C   UNL     1       1.087   3.072  20.135  0.00  0.00    +0.000 A 
ATOM      5  C   UNL     1       2.163   2.856  19.232  0.00  0.00    +0.000 A 
ATOM      6  N   UNL     1       2.507   1.775  18.565  0.00  0.00    +0.000 NA
ATOM      7  C   UNL     1       3.569   2.159  17.794  0.00  0.00    +0.000 A 
ATOM      8  C   UNL     1       3.899   3.479  18.014  0.00  0.00    +0.000 A 
ATOM      9  N   UNL     1       2.995   3.942  18.943  0.00  0.00    +0.000 N 
ATOM     10  C   UNL     1       2.795   5.210  19.497  0.00  0.00    +0.000 A 
ENDROOT
BRANCH   8  11
ATOM     11  C   UNL     1       4.961   4.194  17.277  0.00  0.00    +0.000 A 
ATOM     12  N   UNL     1       5.613   3.729  16.205  0.00  0.00    +0.000 NA
ATOM     13  O   UNL     1       6.629   4.674  16.007  0.00  0.00    +0.000 OA
ATOM     14  C   UNL     1       6.478   5.608  16.990  0.00  0.00    +0.000 A 
ATOM     15  N   UNL     1       5.431   5.393  17.749  0.00  0.00    +0.000 NA
BRANCH  14  16
ATOM     16  C   UNL     1       7.586   6.562  17.203  0.00  0.00    +0.000 C 
ATOM     17  C   UNL     1       7.179   8.017  17.099  0.00  0.00    +0.000 C 
ATOM     18  C   UNL     1       8.148   8.719  18.029  0.00  0.00    +0.000 C 
ATOM     19  O   UNL     1       8.615   7.759  18.983  0.00  0.00    +0.000 OA
ATOM     20  C   UNL     1       8.079   6.477  18.639  0.00  0.00    +0.000 C 
ENDBRANCH  14  16
ENDBRANCH   8  11
TORSDOF 2
ENDMDL
