MODEL 1
REMARK VINA RESULT:      -8.9      0.000      0.000
REMARK  Name = 
REMARK  9 active torsions:
REMARK  status: ('A' for Active; 'I' for Inactive)
REMARK    1  A    between atoms: C_1  and  C_2
REMARK    2  A    between atoms: N_5  and  N_6
REMARK    3  A    between atoms: N_6  and  S_7
REMARK    4  A    between atoms: S_7  and  C_10
REMARK    5  A    between atoms: C_18  and  C_19
REMARK    6  A    between atoms: C_19  and  C_20
REMARK    7  A    between atoms: N_22  and  C_23
REMARK    8  A    between atoms: C_23  and  C_24
REMARK    9  A    between atoms: C_27  and  C_28
REMARK                            x       y       z     vdW  Elec       q    Type
REMARK                         _______ _______ _______ _____ _____    ______ ____
ROOT
ATOM      1  C   UNL     1       0.833   3.251  19.411  0.00  0.00    +0.000 C 
ATOM      2  C   UNL     1       2.212   3.585  18.915  0.00  0.00    +0.000 A 
ATOM      3  C   UNL     1       2.823   2.690  18.027  0.00  0.00    +0.000 A 
ATOM      4  C   UNL     1       4.105   2.940  17.554  0.00  0.00    +0.000 A 
ATOM      5  N   UNL     1       4.775   4.061  17.935  0.00  0.00    +0.000 N 
ATOM      6  C   UNL     1       4.208   4.968  18.807  0.00  0.00    +0.000 A 
ATOM      7  O   UNL     1       4.846   5.956  19.147  0.00  0.00    +0.000 OA
ATOM      8  C   UNL     1       2.909   4.754  19.328  0.00  0.00    +0.000 A 
ENDROOT
BRANCH   5   9
ATOM      9  N   UNL     1       6.059   4.267  17.444  0.00  0.00    +0.000 N 
ATOM     10  H   UNL     1       6.620   3.420  17.266  0.00  0.00    +0.000 HD
BRANCH   9  11
ATOM     11  S   UNL     1       6.268   5.415  16.134  0.00  0.00    +0.000 S 
ATOM     12  O   UNL     1       5.116   6.419  16.277  0.00  0.00    +0.000 OA
ATOM     13  O   UNL     1       7.486   6.255  16.554  0.00  0.00    +0.000 OA
BRANCH  11  14
ATOM     14  C   UNL     1       6.446   4.752  14.473  0.00  0.00    +0.000 A 
ATOM     15  C   UNL     1       7.520   5.163  13.676  0.00  0.00    +0.000 A 
ATOM     16  C   UNL     1       7.669   4.658  12.381  0.00  0.00    +0.000 A 
ATOM     17  C   UNL     1       6.745   3.737  11.879  0.00  0.00    +0.000 A 
ATOM     18  C   UNL     1       5.672   3.320  12.673  0.00  0.00    +0.000 A 
ATOM     19  C   UNL     1       5.520   3.828  13.969  0.00  0.00    +0.000 A 
ENDBRANCH  11  14
ENDBRANCH   9  11
ENDBRANCH   5   9
BRANCH   8  20
ATOM     20  C   UNL     1       2.314   5.747  20.336  0.00  0.00    +0.000 C 
BRANCH  20  21
ATOM     21  C   UNL     1       2.030   7.130  19.776  0.00  0.00    +0.000 C 
ATOM     22  O   UNL     1       2.132   7.335  18.574  0.00  0.00    +0.000 OA
ATOM     23  N   UNL     1       1.644   8.141  20.612  0.00  0.00    +0.000 N 
ATOM     24  H   UNL     1       1.564   7.949  21.624  0.00  0.00    +0.000 HD
BRANCH  23  25
ATOM     25  C   UNL     1       1.332   9.472  20.107  0.00  0.00    +0.000 C 
BRANCH  25  26
ATOM     26  C   UNL     1       0.331  10.209  20.976  0.00  0.00    +0.000 A 
ATOM     27  C   UNL     1       0.098   9.807  22.298  0.00  0.00    +0.000 A 
ATOM     28  C   UNL     1      -0.814  10.496  23.108  0.00  0.00    +0.000 A 
ATOM     29  C   UNL     1      -1.533  11.614  22.619  0.00  0.00    +0.000 A 
ATOM     30  C   UNL     1      -1.274  12.014  21.286  0.00  0.00    +0.000 A 
ATOM     31  C   UNL     1      -0.358  11.325  20.483  0.00  0.00    +0.000 A 
BRANCH  29  32
ATOM     32  C   UNL     1      -2.543  12.351  23.480  0.00  0.00    +0.000 C 
ATOM     33  N   UNL     1      -3.702  11.850  23.751  0.00  0.00    +0.000 NA
ATOM     34  N   UNL     1      -2.266  13.641  24.015  0.00  0.00    +0.000 N 
ATOM     35  H   UNL     1      -4.044  10.938  23.432  0.00  0.00    +0.000 HD
ATOM     36  H   UNL     1      -1.385  14.142  23.862  0.00  0.00    +0.000 HD
ATOM     37  H   UNL     1      -2.985  14.127  24.573  0.00  0.00    +0.000 HD
ENDBRANCH  29  32
ENDBRANCH  25  26
ENDBRANCH  23  25
ENDBRANCH  20  21
ENDBRANCH   8  20
TORSDOF 8
ENDMDL
MODEL 2
REMARK VINA RESULT:      -8.6      2.011      2.467
REMARK  Name = 
REMARK  9 active torsions:
REMARK  status: ('A' for Active; 'I' for Inactive)
REMARK    1  A    between atoms: C_1  and  C_2
REMARK    2  A    between atoms: N_5  and  N_6
REMARK    3  A    between atoms: N_6  and  S_7
REMARK    4  A    between atoms: S_7  and  C_10
REMARK    5  A    between atoms: C_18  and  C_19
REMARK    6  A    between atoms: C_19  and  C_20
REMARK    7  A    between atoms: N_22  and  C_23
REMARK    8  A    between atoms: C_23  and  C_24
REMARK    9  A    between atoms: C_27  and  C_28
REMARK                            x       y       z     vdW  Elec       q    Type
REMARK                         _______ _______ _______ _____ _____    ______ ____
ROOT
ATOM      1  C   UNL     1       0.429   3.579  19.337  0.00  0.00    +0.000 C 
ATOM      2  C   UNL     1       1.832   3.845  18.869  0.00  0.00    +0.000 A 
ATOM      3  C   UNL     1       2.363   3.007  17.880  0.00  0.00    +0.000 A 
ATOM      4  C   UNL     1       3.661   3.196  17.426  0.00  0.00    +0.000 A 
ATOM      5  N   UNL     1       4.427   4.204  17.925  0.00  0.00    +0.000 N 
ATOM      6  C   UNL     1       3.942   5.051  18.899  0.00  0.00    +0.000 A 
ATOM      7  O   UNL     1       4.664   5.935  19.342  0.00  0.00    +0.000 OA
ATOM      8  C   UNL     1       2.629   4.895  19.405  0.00  0.00    +0.000 A 
ENDROOT
BRANCH   5   9
ATOM      9  N   UNL     1       5.725   4.351  17.448  0.00  0.00    +0.000 N 
ATOM     10  H   UNL     1       6.242   3.479  17.257  0.00  0.00    +0.000 HD
BRANCH   9  11
ATOM     11  S   UNL     1       6.006   5.513  16.163  0.00  0.00    +0.000 S 
ATOM     12  O   UNL     1       4.801   6.462  16.196  0.00  0.00    +0.000 OA
ATOM     13  O   UNL     1       7.138   6.405  16.698  0.00  0.00    +0.000 OA
BRANCH  11  14
ATOM     14  C   UNL     1       6.372   4.865  14.528  0.00  0.00    +0.000 A 
ATOM     15  C   UNL     1       7.489   5.339  13.831  0.00  0.00    +0.000 A 
ATOM     16  C   UNL     1       7.783   4.847  12.556  0.00  0.00    +0.000 A 
ATOM     17  C   UNL     1       6.963   3.875  11.974  0.00  0.00    +0.000 A 
ATOM     18  C   UNL     1       5.848   3.396  12.669  0.00  0.00    +0.000 A 
ATOM     19  C   UNL     1       5.550   3.890  13.943  0.00  0.00    +0.000 A 
ENDBRANCH  11  14
ENDBRANCH   9  11
ENDBRANCH   5   9
BRANCH   8  20
ATOM     20  C   UNL     1       2.123   5.815  20.524  0.00  0.00    +0.000 C 
BRANCH  20  21
ATOM     21  C   UNL     1       2.056   7.287  20.157  0.00  0.00    +0.000 C 
ATOM     22  O   UNL     1       1.930   8.130  21.034  0.00  0.00    +0.000 OA
ATOM     23  N   UNL     1       2.155   7.670  18.848  0.00  0.00    +0.000 N 
ATOM     24  H   UNL     1       2.261   6.944  18.121  0.00  0.00    +0.000 HD
BRANCH  23  25
ATOM     25  C   UNL     1       2.128   9.075  18.460  0.00  0.00    +0.000 C 
BRANCH  25  26
ATOM     26  C   UNL     1       0.723   9.648  18.430  0.00  0.00    +0.000 A 
ATOM     27  C   UNL     1       0.302  10.563  19.404  0.00  0.00    +0.000 A 
ATOM     28  C   UNL     1      -0.989  11.106  19.369  0.00  0.00    +0.000 A 
ATOM     29  C   UNL     1      -1.910  10.747  18.356  0.00  0.00    +0.000 A 
ATOM     30  C   UNL     1      -1.462   9.832  17.372  0.00  0.00    +0.000 A 
ATOM     31  C   UNL     1      -0.170   9.296  17.409  0.00  0.00    +0.000 A 
BRANCH  29  32
ATOM     32  C   UNL     1      -3.320  11.309  18.324  0.00  0.00    +0.000 C 
ATOM     33  N   UNL     1      -4.243  10.794  17.582  0.00  0.00    +0.000 NA
ATOM     34  N   UNL     1      -3.686  12.447  19.097  0.00  0.00    +0.000 N 
ATOM     35  H   UNL     1      -4.126   9.981  16.968  0.00  0.00    +0.000 HD
ATOM     36  H   UNL     1      -3.039  12.945  19.717  0.00  0.00    +0.000 HD
ATOM     37  H   UNL     1      -4.646  12.821  19.031  0.00  0.00    +0.000 HD
ENDBRANCH  29  32
ENDBRANCH  25  26
ENDBRANCH  23  25
ENDBRANCH  20  21
ENDBRANCH   8  20
TORSDOF 8
ENDMDL
MODEL 3
REMARK VINA RESULT:      -8.6      2.273      2.846
REMARK  Name = 
REMARK  9 active torsions:
REMARK  status: ('A' for Active; 'I' for Inactive)
REMARK    1  A    between atoms: C_1  and  C_2
REMARK    2  A    between atoms: N_5  and  N_6
REMARK    3  A    between atoms: N_6  and  S_7
REMARK    4  A    between atoms: S_7  and  C_10
REMARK    5  A    between atoms: C_18  and  C_19
REMARK    6  A    between atoms: C_19  and  C_20
REMARK    7  A    between atoms: N_22  and  C_23
REMARK    8  A    between atoms: C_23  and  C_24
REMARK    9  A    between atoms: C_27  and  C_28
REMARK                            x       y       z     vdW  Elec       q    Type
REMARK                         _______ _______ _______ _____ _____    ______ ____
ROOT
ATOM      1  C   UNL     1       0.995   2.904  19.109  0.00  0.00    +0.000 C 
ATOM      2  C   UNL     1       2.375   3.337  18.701  0.00  0.00    +0.000 A 
ATOM      3  C   UNL     1       2.886   2.843  17.493  0.00  0.00    +0.000 A 
ATOM      4  C   UNL     1       4.163   3.196  17.078  0.00  0.00    +0.000 A 
ATOM      5  N   UNL     1       4.926   4.035  17.831  0.00  0.00    +0.000 N 
ATOM      6  C   UNL     1       4.460   4.544  19.025  0.00  0.00    +0.000 A 
ATOM      7  O   UNL     1       5.179   5.280  19.688  0.00  0.00    +0.000 OA
ATOM      8  C   UNL     1       3.169   4.206  19.499  0.00  0.00    +0.000 A 
ENDROOT
BRANCH   5   9
ATOM      9  N   UNL     1       6.203   4.355  17.381  0.00  0.00    +0.000 N 
ATOM     10  H   UNL     1       6.841   3.561  17.218  0.00  0.00    +0.000 HD
BRANCH   9  11
ATOM     11  S   UNL     1       6.352   5.525  16.083  0.00  0.00    +0.000 S 
ATOM     12  O   UNL     1       5.150   6.466  16.235  0.00  0.00    +0.000 OA
ATOM     13  O   UNL     1       7.524   6.423  16.512  0.00  0.00    +0.000 OA
BRANCH  11  14
ATOM     14  C   UNL     1       6.565   4.888  14.416  0.00  0.00    +0.000 A 
ATOM     15  C   UNL     1       7.591   5.394  13.609  0.00  0.00    +0.000 A 
ATOM     16  C   UNL     1       7.765   4.910  12.309  0.00  0.00    +0.000 A 
ATOM     17  C   UNL     1       6.917   3.917  11.812  0.00  0.00    +0.000 A 
ATOM     18  C   UNL     1       5.893   3.406  12.616  0.00  0.00    +0.000 A 
ATOM     19  C   UNL     1       5.715   3.892  13.916  0.00  0.00    +0.000 A 
ENDBRANCH  11  14
ENDBRANCH   9  11
ENDBRANCH   5   9
BRANCH   8  20
ATOM     20  C   UNL     1       2.686   4.741  20.854  0.00  0.00    +0.000 C 
BRANCH  20  21
ATOM     21  C   UNL     1       1.497   5.683  20.780  0.00  0.00    +0.000 C 
ATOM     22  O   UNL     1       0.392   5.250  20.485  0.00  0.00    +0.000 OA
ATOM     23  N   UNL     1       1.658   7.011  21.061  0.00  0.00    +0.000 N 
ATOM     24  H   UNL     1       2.598   7.359  21.309  0.00  0.00    +0.000 HD
BRANCH  23  25
ATOM     25  C   UNL     1       0.534   7.939  21.032  0.00  0.00    +0.000 C 
BRANCH  25  26
ATOM     26  C   UNL     1       0.881   9.260  20.371  0.00  0.00    +0.000 A 
ATOM     27  C   UNL     1       0.852  10.455  21.103  0.00  0.00    +0.000 A 
ATOM     28  C   UNL     1       1.187  11.674  20.500  0.00  0.00    +0.000 A 
ATOM     29  C   UNL     1       1.560  11.741  19.136  0.00  0.00    +0.000 A 
ATOM     30  C   UNL     1       1.596  10.523  18.417  0.00  0.00    +0.000 A 
ATOM     31  C   UNL     1       1.265   9.307  19.025  0.00  0.00    +0.000 A 
BRANCH  29  32
ATOM     32  C   UNL     1       1.899  13.061  18.466  0.00  0.00    +0.000 C 
ATOM     33  N   UNL     1       1.160  14.109  18.612  0.00  0.00    +0.000 NA
ATOM     34  N   UNL     1       3.042  13.200  17.628  0.00  0.00    +0.000 N 
ATOM     35  H   UNL     1       0.305  14.160  19.176  0.00  0.00    +0.000 HD
ATOM     36  H   UNL     1       3.698  12.437  17.432  0.00  0.00    +0.000 HD
ATOM     37  H   UNL     1       3.229  14.103  17.166  0.00  0.00    +0.000 HD
ENDBRANCH  29  32
ENDBRANCH  25  26
ENDBRANCH  23  25
ENDBRANCH  20  21
ENDBRANCH   8  20
TORSDOF 8
ENDMDL
MODEL 4
REMARK VINA RESULT:      -8.5      3.858      5.489
REMARK  Name = 
REMARK  9 active torsions:
REMARK  status: ('A' for Active; 'I' for Inactive)
REMARK    1  A    between atoms: C_1  and  C_2
REMARK    2  A    between atoms: N_5  and  N_6
REMARK    3  A    between atoms: N_6  and  S_7
REMARK    4  A    between atoms: S_7  and  C_10
REMARK    5  A    between atoms: C_18  and  C_19
REMARK    6  A    between atoms: C_19  and  C_20
REMARK    7  A    between atoms: N_22  and  C_23
REMARK    8  A    between atoms: C_23  and  C_24
REMARK    9  A    between atoms: C_27  and  C_28
REMARK                            x       y       z     vdW  Elec       q    Type
REMARK                         _______ _______ _______ _____ _____    ______ ____
ROOT
ATOM      1  C   UNL     1       0.554   9.795  21.414  0.00  0.00    +0.000 C 
ATOM      2  C   UNL     1       1.207   8.869  20.426  0.00  0.00    +0.000 A 
ATOM      3  C   UNL     1       1.621   7.610  20.882  0.00  0.00    +0.000 A 
ATOM      4  C   UNL     1       2.248   6.724  20.016  0.00  0.00    +0.000 A 
ATOM      5  N   UNL     1       2.454   7.062  18.714  0.00  0.00    +0.000 N 
ATOM      6  C   UNL     1       2.061   8.290  18.225  0.00  0.00    +0.000 A 
ATOM      7  O   UNL     1       2.279   8.571  17.054  0.00  0.00    +0.000 OA
ATOM      8  C   UNL     1       1.428   9.235  19.070  0.00  0.00    +0.000 A 
ENDROOT
BRANCH   5   9
ATOM      9  N   UNL     1       3.093   6.147  17.884  0.00  0.00    +0.000 N 
ATOM     10  H   UNL     1       4.124   6.144  17.916  0.00  0.00    +0.000 HD
BRANCH   9  11
ATOM     11  S   UNL     1       2.487   4.501  17.847  0.00  0.00    +0.000 S 
ATOM     12  O   UNL     1       1.132   4.577  17.131  0.00  0.00    +0.000 OA
ATOM     13  O   UNL     1       3.368   3.794  16.803  0.00  0.00    +0.000 OA
BRANCH  11  14
ATOM     14  C   UNL     1       2.432   3.605  19.403  0.00  0.00    +0.000 A 
ATOM     15  C   UNL     1       3.596   3.004  19.896  0.00  0.00    +0.000 A 
ATOM     16  C   UNL     1       3.567   2.301  21.103  0.00  0.00    +0.000 A 
ATOM     17  C   UNL     1       2.375   2.198  21.825  0.00  0.00    +0.000 A 
ATOM     18  C   UNL     1       1.210   2.799  21.339  0.00  0.00    +0.000 A 
ATOM     19  C   UNL     1       1.236   3.500  20.128  0.00  0.00    +0.000 A 
ENDBRANCH  11  14
ENDBRANCH   9  11
ENDBRANCH   5   9
BRANCH   8  20
ATOM     20  C   UNL     1       1.043  10.616  18.522  0.00  0.00    +0.000 C 
BRANCH  20  21
ATOM     21  C   UNL     1      -0.441  10.932  18.578  0.00  0.00    +0.000 C 
ATOM     22  O   UNL     1      -1.262  10.051  18.365  0.00  0.00    +0.000 OA
ATOM     23  N   UNL     1      -0.860  12.197  18.885  0.00  0.00    +0.000 N 
ATOM     24  H   UNL     1      -0.152  12.929  19.062  0.00  0.00    +0.000 HD
BRANCH  23  25
ATOM     25  C   UNL     1      -2.276  12.531  18.981  0.00  0.00    +0.000 C 
BRANCH  25  26
ATOM     26  C   UNL     1      -2.759  12.634  20.415  0.00  0.00    +0.000 A 
ATOM     27  C   UNL     1      -4.063  13.058  20.702  0.00  0.00    +0.000 A 
ATOM     28  C   UNL     1      -4.517  13.140  22.024  0.00  0.00    +0.000 A 
ATOM     29  C   UNL     1      -3.676  12.802  23.112  0.00  0.00    +0.000 A 
ATOM     30  C   UNL     1      -2.367  12.363  22.802  0.00  0.00    +0.000 A 
ATOM     31  C   UNL     1      -1.920  12.278  21.479  0.00  0.00    +0.000 A 
BRANCH  29  32
ATOM     32  C   UNL     1      -4.150  12.912  24.551  0.00  0.00    +0.000 C 
ATOM     33  N   UNL     1      -4.930  12.029  25.080  0.00  0.00    +0.000 NA
ATOM     34  N   UNL     1      -3.772  14.006  25.379  0.00  0.00    +0.000 N 
ATOM     35  H   UNL     1      -5.291  11.194  24.606  0.00  0.00    +0.000 HD
ATOM     36  H   UNL     1      -3.163  14.769  25.068  0.00  0.00    +0.000 HD
ATOM     37  H   UNL     1      -4.134  14.064  26.344  0.00  0.00    +0.000 HD
ENDBRANCH  29  32
ENDBRANCH  25  26
ENDBRANCH  23  25
ENDBRANCH  20  21
ENDBRANCH   8  20
TORSDOF 8
ENDMDL
MODEL 5
REMARK VINA RESULT:      -8.3      2.260      2.783
REMARK  Name = 
REMARK  9 active torsions:
REMARK  status: ('A' for Active; 'I' for Inactive)
REMARK    1  A    between atoms: C_1  and  C_2
REMARK    2  A    between atoms: N_5  and  N_6
REMARK    3  A    between atoms: N_6  and  S_7
REMARK    4  A    between atoms: S_7  and  C_10
REMARK    5  A    between atoms: C_18  and  C_19
REMARK    6  A    between atoms: C_19  and  C_20
REMARK    7  A    between atoms: N_22  and  C_23
REMARK    8  A    between atoms: C_23  and  C_24
REMARK    9  A    between atoms: C_27  and  C_28
REMARK                            x       y       z     vdW  Elec       q    Type
REMARK                         _______ _______ _______ _____ _____    ______ ____
ROOT
ATOM      1  C   UNL     1       2.008   2.074  19.274  0.00  0.00    +0.000 C 
ATOM      2  C   UNL     1       2.820   3.139  18.593  0.00  0.00    +0.000 A 
ATOM      3  C   UNL     1       3.237   2.903  17.276  0.00  0.00    +0.000 A 
ATOM      4  C   UNL     1       4.006   3.846  16.607  0.00  0.00    +0.000 A 
ATOM      5  N   UNL     1       4.350   5.014  17.215  0.00  0.00    +0.000 N 
ATOM      6  C   UNL     1       3.958   5.285  18.509  0.00  0.00    +0.000 A 
ATOM      7  O   UNL     1       4.302   6.336  19.035  0.00  0.00    +0.000 OA
ATOM      8  C   UNL     1       3.183   4.352  19.240  0.00  0.00    +0.000 A 
ENDROOT
BRANCH   5   9
ATOM      9  N   UNL     1       5.129   5.926  16.511  0.00  0.00    +0.000 N 
ATOM     10  H   UNL     1       5.201   6.872  16.916  0.00  0.00    +0.000 HD
BRANCH   9  11
ATOM     11  S   UNL     1       6.697   5.398  15.929  0.00  0.00    +0.000 S 
ATOM     12  O   UNL     1       7.655   6.562  16.214  0.00  0.00    +0.000 OA
ATOM     13  O   UNL     1       7.149   4.345  16.954  0.00  0.00    +0.000 OA
BRANCH  11  14
ATOM     14  C   UNL     1       6.790   4.782  14.243  0.00  0.00    +0.000 A 
ATOM     15  C   UNL     1       7.692   5.363  13.344  0.00  0.00    +0.000 A 
ATOM     16  C   UNL     1       7.772   4.897  12.029  0.00  0.00    +0.000 A 
ATOM     17  C   UNL     1       6.952   3.846  11.607  0.00  0.00    +0.000 A 
ATOM     18  C   UNL     1       6.052   3.260  12.503  0.00  0.00    +0.000 A 
ATOM     19  C   UNL     1       5.968   3.728  13.819  0.00  0.00    +0.000 A 
ENDBRANCH  11  14
ENDBRANCH   9  11
ENDBRANCH   5   9
BRANCH   8  20
ATOM     20  C   UNL     1       2.798   4.649  20.696  0.00  0.00    +0.000 C 
BRANCH  20  21
ATOM     21  C   UNL     1       1.586   5.548  20.864  0.00  0.00    +0.000 C 
ATOM     22  O   UNL     1       0.464   5.106  20.658  0.00  0.00    +0.000 OA
ATOM     23  N   UNL     1       1.747   6.846  21.264  0.00  0.00    +0.000 N 
ATOM     24  H   UNL     1       2.701   7.202  21.433  0.00  0.00    +0.000 HD
BRANCH  23  25
ATOM     25  C   UNL     1       0.605   7.729  21.467  0.00  0.00    +0.000 C 
BRANCH  25  26
ATOM     26  C   UNL     1       0.740   9.044  20.723  0.00  0.00    +0.000 A 
ATOM     27  C   UNL     1       1.271   9.081  19.427  0.00  0.00    +0.000 A 
ATOM     28  C   UNL     1       1.382  10.292  18.732  0.00  0.00    +0.000 A 
ATOM     29  C   UNL     1       0.969  11.514  19.313  0.00  0.00    +0.000 A 
ATOM     30  C   UNL     1       0.422  11.455  20.617  0.00  0.00    +0.000 A 
ATOM     31  C   UNL     1       0.308  10.242  21.306  0.00  0.00    +0.000 A 
BRANCH  29  32
ATOM     32  C   UNL     1       1.109  12.835  18.577  0.00  0.00    +0.000 C 
ATOM     33  N   UNL     1       0.170  13.297  17.821  0.00  0.00    +0.000 NA
ATOM     34  N   UNL     1       2.294  13.619  18.672  0.00  0.00    +0.000 N 
ATOM     35  H   UNL     1      -0.733  12.843  17.650  0.00  0.00    +0.000 HD
ATOM     36  H   UNL     1       3.107  13.352  19.235  0.00  0.00    +0.000 HD
ATOM     37  H   UNL     1       2.367  14.499  18.137  0.00  0.00    +0.000 HD
ENDBRANCH  29  32
ENDBRANCH  25  26
ENDBRANCH  23  25
ENDBRANCH  20  21
ENDBRANCH   8  20
TORSDOF 8
ENDMDL
MODEL 6
REMARK VINA RESULT:      -8.3      2.302      2.909
REMARK  Name = 
REMARK  9 active torsions:
REMARK  status: ('A' for Active; 'I' for Inactive)
REMARK    1  A    between atoms: C_1  and  C_2
REMARK    2  A    between atoms: N_5  and  N_6
REMARK    3  A    between atoms: N_6  and  S_7
REMARK    4  A    between atoms: S_7  and  C_10
REMARK    5  A    between atoms: C_18  and  C_19
REMARK    6  A    between atoms: C_19  and  C_20
REMARK    7  A    between atoms: N_22  and  C_23
REMARK    8  A    between atoms: C_23  and  C_24
REMARK    9  A    between atoms: C_27  and  C_28
REMARK                            x       y       z     vdW  Elec       q    Type
REMARK                         _______ _______ _______ _____ _____    ______ ____
ROOT
ATOM      1  C   UNL     1       0.286   3.782  19.833  0.00  0.00    +0.000 C 
ATOM      2  C   UNL     1       1.728   3.805  19.407  0.00  0.00    +0.000 A 
ATOM      3  C   UNL     1       2.173   2.793  18.546  0.00  0.00    +0.000 A 
ATOM      4  C   UNL     1       3.499   2.756  18.138  0.00  0.00    +0.000 A 
ATOM      5  N   UNL     1       4.377   3.708  18.557  0.00  0.00    +0.000 N 
ATOM      6  C   UNL     1       3.979   4.722  19.403  0.00  0.00    +0.000 A 
ATOM      7  O   UNL     1       4.798   5.551  19.778  0.00  0.00    +0.000 OA
ATOM      8  C   UNL     1       2.640   4.799  19.858  0.00  0.00    +0.000 A 
ENDROOT
BRANCH   5   9
ATOM      9  N   UNL     1       5.698   3.628  18.130  0.00  0.00    +0.000 N 
ATOM     10  H   UNL     1       6.041   2.686  17.884  0.00  0.00    +0.000 HD
BRANCH   9  11
ATOM     11  S   UNL     1       6.259   4.800  16.952  0.00  0.00    +0.000 S 
ATOM     12  O   UNL     1       7.062   3.996  15.920  0.00  0.00    +0.000 OA
ATOM     13  O   UNL     1       4.997   5.178  16.159  0.00  0.00    +0.000 OA
BRANCH  11  14
ATOM     14  C   UNL     1       7.125   6.247  17.573  0.00  0.00    +0.000 A 
ATOM     15  C   UNL     1       7.869   6.152  18.754  0.00  0.00    +0.000 A 
ATOM     16  C   UNL     1       8.545   7.271  19.251  0.00  0.00    +0.000 A 
ATOM     17  C   UNL     1       8.482   8.488  18.566  0.00  0.00    +0.000 A 
ATOM     18  C   UNL     1       7.743   8.586  17.383  0.00  0.00    +0.000 A 
ATOM     19  C   UNL     1       7.063   7.468  16.886  0.00  0.00    +0.000 A 
ENDBRANCH  11  14
ENDBRANCH   9  11
ENDBRANCH   5   9
BRANCH   8  20
ATOM     20  C   UNL     1       2.226   5.904  20.839  0.00  0.00    +0.000 C 
BRANCH  20  21
ATOM     21  C   UNL     1       1.945   7.252  20.199  0.00  0.00    +0.000 C 
ATOM     22  O   UNL     1       2.345   7.486  19.067  0.00  0.00    +0.000 OA
ATOM     23  N   UNL     1       1.229   8.197  20.880  0.00  0.00    +0.000 N 
ATOM     24  H   UNL     1       0.900   7.982  21.835  0.00  0.00    +0.000 HD
BRANCH  23  25
ATOM     25  C   UNL     1       0.912   9.490  20.285  0.00  0.00    +0.000 C 
BRANCH  25  26
ATOM     26  C   UNL     1      -0.095  10.279  21.099  0.00  0.00    +0.000 A 
ATOM     27  C   UNL     1      -0.326   9.970  22.447  0.00  0.00    +0.000 A 
ATOM     28  C   UNL     1      -1.244  10.707  23.205  0.00  0.00    +0.000 A 
ATOM     29  C   UNL     1      -1.971  11.781  22.638  0.00  0.00    +0.000 A 
ATOM     30  C   UNL     1      -1.715  12.088  21.281  0.00  0.00    +0.000 A 
ATOM     31  C   UNL     1      -0.793  11.351  20.528  0.00  0.00    +0.000 A 
BRANCH  29  32
ATOM     32  C   UNL     1      -2.988  12.570  23.445  0.00  0.00    +0.000 C 
ATOM     33  N   UNL     1      -3.875  11.987  24.180  0.00  0.00    +0.000 NA
ATOM     34  N   UNL     1      -3.023  13.993  23.413  0.00  0.00    +0.000 N 
ATOM     35  H   UNL     1      -3.977  10.973  24.296  0.00  0.00    +0.000 HD
ATOM     36  H   UNL     1      -2.375  14.565  22.862  0.00  0.00    +0.000 HD
ATOM     37  H   UNL     1      -3.744  14.497  23.952  0.00  0.00    +0.000 HD
ENDBRANCH  29  32
ENDBRANCH  25  26
ENDBRANCH  23  25
ENDBRANCH  20  21
ENDBRANCH   8  20
TORSDOF 8
ENDMDL
MODEL 7
REMARK VINA RESULT:      -8.3      3.609      5.505
REMARK  Name = 
REMARK  9 active torsions:
REMARK  status: ('A' for Active; 'I' for Inactive)
REMARK    1  A    between atoms: C_1  and  C_2
REMARK    2  A    between atoms: N_5  and  N_6
REMARK    3  A    between atoms: N_6  and  S_7
REMARK    4  A    between atoms: S_7  and  C_10
REMARK    5  A    between atoms: C_18  and  C_19
REMARK    6  A    between atoms: C_19  and  C_20
REMARK    7  A    between atoms: N_22  and  C_23
REMARK    8  A    between atoms: C_23  and  C_24
REMARK    9  A    between atoms: C_27  and  C_28
REMARK                            x       y       z     vdW  Elec       q    Type
REMARK                         _______ _______ _______ _____ _____    ______ ____
ROOT
ATOM      1  C   UNL     1       0.352   9.112  21.787  0.00  0.00    +0.000 C 
ATOM      2  C   UNL     1       1.135   8.606  20.607  0.00  0.00    +0.000 A 
ATOM      3  C   UNL     1       1.845   7.408  20.757  0.00  0.00    +0.000 A 
ATOM      4  C   UNL     1       2.600   6.906  19.706  0.00  0.00    +0.000 A 
ATOM      5  N   UNL     1       2.648   7.564  18.515  0.00  0.00    +0.000 N 
ATOM      6  C   UNL     1       1.962   8.745  18.326  0.00  0.00    +0.000 A 
ATOM      7  O   UNL     1       2.043   9.323  17.250  0.00  0.00    +0.000 OA
ATOM      8  C   UNL     1       1.187   9.306  19.371  0.00  0.00    +0.000 A 
ENDROOT
BRANCH   5   9
ATOM      9  N   UNL     1       3.424   7.030  17.492  0.00  0.00    +0.000 N 
ATOM     10  H   UNL     1       4.106   7.670  17.056  0.00  0.00    +0.000 HD
BRANCH   9  11
ATOM     11  S   UNL     1       4.152   5.453  17.743  0.00  0.00    +0.000 S 
ATOM     12  O   UNL     1       4.727   5.044  16.380  0.00  0.00    +0.000 OA
ATOM     13  O   UNL     1       5.422   5.746  18.558  0.00  0.00    +0.000 OA
BRANCH  11  14
ATOM     14  C   UNL     1       3.134   4.185  18.508  0.00  0.00    +0.000 A 
ATOM     15  C   UNL     1       1.912   3.834  17.923  0.00  0.00    +0.000 A 
ATOM     16  C   UNL     1       1.109   2.852  18.509  0.00  0.00    +0.000 A 
ATOM     17  C   UNL     1       1.525   2.215  19.681  0.00  0.00    +0.000 A 
ATOM     18  C   UNL     1       2.747   2.560  20.268  0.00  0.00    +0.000 A 
ATOM     19  C   UNL     1       3.551   3.545  19.684  0.00  0.00    +0.000 A 
ENDBRANCH  11  14
ENDBRANCH   9  11
ENDBRANCH   5   9
BRANCH   8  20
ATOM     20  C   UNL     1       0.471  10.648  19.159  0.00  0.00    +0.000 C 
BRANCH  20  21
ATOM     21  C   UNL     1      -0.903  10.543  18.522  0.00  0.00    +0.000 C 
ATOM     22  O   UNL     1      -1.530   9.495  18.591  0.00  0.00    +0.000 OA
ATOM     23  N   UNL     1      -1.448  11.625  17.888  0.00  0.00    +0.000 N 
ATOM     24  H   UNL     1      -0.903  12.502  17.839  0.00  0.00    +0.000 HD
BRANCH  23  25
ATOM     25  C   UNL     1      -2.777  11.572  17.293  0.00  0.00    +0.000 C 
BRANCH  25  26
ATOM     26  C   UNL     1      -3.884  11.760  18.314  0.00  0.00    +0.000 A 
ATOM     27  C   UNL     1      -3.640  12.436  19.517  0.00  0.00    +0.000 A 
ATOM     28  C   UNL     1      -4.664  12.625  20.454  0.00  0.00    +0.000 A 
ATOM     29  C   UNL     1      -5.973  12.138  20.221  0.00  0.00    +0.000 A 
ATOM     30  C   UNL     1      -6.204  11.471  18.994  0.00  0.00    +0.000 A 
ATOM     31  C   UNL     1      -5.178  11.289  18.059  0.00  0.00    +0.000 A 
BRANCH  29  32
ATOM     32  C   UNL     1      -7.084  12.315  21.241  0.00  0.00    +0.000 C 
ATOM     33  N   UNL     1      -7.333  11.421  22.139  0.00  0.00    +0.000 NA
ATOM     34  N   UNL     1      -7.917  13.470  21.244  0.00  0.00    +0.000 N 
ATOM     35  H   UNL     1      -6.825  10.538  22.255  0.00  0.00    +0.000 HD
ATOM     36  H   UNL     1      -7.818  14.242  20.577  0.00  0.00    +0.000 HD
ATOM     37  H   UNL     1      -8.680  13.546  21.934  0.00  0.00    +0.000 HD
ENDBRANCH  29  32
ENDBRANCH  25  26
ENDBRANCH  23  25
ENDBRANCH  20  21
ENDBRANCH   8  20
TORSDOF 8
ENDMDL
MODEL 8
REMARK VINA RESULT:      -8.2      3.951      5.796
REMARK  Name = 
REMARK  9 active torsions:
REMARK  status: ('A' for Active; 'I' for Inactive)
REMARK    1  A    between atoms: C_1  and  C_2
REMARK    2  A    between atoms: N_5  and  N_6
REMARK    3  A    between atoms: N_6  and  S_7
REMARK    4  A    between atoms: S_7  and  C_10
REMARK    5  A    between atoms: C_18  and  C_19
REMARK    6  A    between atoms: C_19  and  C_20
REMARK    7  A    between atoms: N_22  and  C_23
REMARK    8  A    between atoms: C_23  and  C_24
REMARK    9  A    between atoms: C_27  and  C_28
REMARK                            x       y       z     vdW  Elec       q    Type
REMARK                         _______ _______ _______ _____ _____    ______ ____
ROOT
ATOM      1  C   UNL     1       0.300   9.859  21.570  0.00  0.00    +0.000 C 
ATOM      2  C   UNL     1       1.006   8.976  20.579  0.00  0.00    +0.000 A 
ATOM      3  C   UNL     1       1.458   7.726  21.022  0.00  0.00    +0.000 A 
ATOM      4  C   UNL     1       2.134   6.879  20.154  0.00  0.00    +0.000 A 
ATOM      5  N   UNL     1       2.352   7.247  18.862  0.00  0.00    +0.000 N 
ATOM      6  C   UNL     1       1.922   8.468  18.386  0.00  0.00    +0.000 A 
ATOM      7  O   UNL     1       2.152   8.777  17.224  0.00  0.00    +0.000 OA
ATOM      8  C   UNL     1       1.238   9.373  19.234  0.00  0.00    +0.000 A 
ENDROOT
BRANCH   5   9
ATOM      9  N   UNL     1       3.041   6.371  18.029  0.00  0.00    +0.000 N 
ATOM     10  H   UNL     1       4.069   6.388  18.101  0.00  0.00    +0.000 HD
BRANCH   9  11
ATOM     11  S   UNL     1       2.471   4.715  17.919  0.00  0.00    +0.000 S 
ATOM     12  O   UNL     1       1.128   4.790  17.182  0.00  0.00    +0.000 OA
ATOM     13  O   UNL     1       3.385   4.068  16.866  0.00  0.00    +0.000 OA
BRANCH  11  14
ATOM     14  C   UNL     1       2.409   3.760  19.439  0.00  0.00    +0.000 A 
ATOM     15  C   UNL     1       1.193   3.622  20.119  0.00  0.00    +0.000 A 
ATOM     16  C   UNL     1       1.131   2.885  21.305  0.00  0.00    +0.000 A 
ATOM     17  C   UNL     1       2.283   2.279  21.814  0.00  0.00    +0.000 A 
ATOM     18  C   UNL     1       3.499   2.410  21.136  0.00  0.00    +0.000 A 
ATOM     19  C   UNL     1       3.564   3.151  19.951  0.00  0.00    +0.000 A 
ENDBRANCH  11  14
ENDBRANCH   9  11
ENDBRANCH   5   9
BRANCH   8  20
ATOM     20  C   UNL     1       0.811  10.748  18.701  0.00  0.00    +0.000 C 
BRANCH  20  21
ATOM     21  C   UNL     1      -0.651  10.851  18.303  0.00  0.00    +0.000 C 
ATOM     22  O   UNL     1      -1.146  10.005  17.572  0.00  0.00    +0.000 OA
ATOM     23  N   UNL     1      -1.418  11.879  18.777  0.00  0.00    +0.000 N 
ATOM     24  H   UNL     1      -0.983  12.585  19.394  0.00  0.00    +0.000 HD
BRANCH  23  25
ATOM     25  C   UNL     1      -2.832  11.992  18.443  0.00  0.00    +0.000 C 
BRANCH  25  26
ATOM     26  C   UNL     1      -3.702  12.266  19.656  0.00  0.00    +0.000 A 
ATOM     27  C   UNL     1      -3.129  12.673  20.869  0.00  0.00    +0.000 A 
ATOM     28  C   UNL     1      -3.931  12.942  21.986  0.00  0.00    +0.000 A 
ATOM     29  C   UNL     1      -5.339  12.808  21.930  0.00  0.00    +0.000 A 
ATOM     30  C   UNL     1      -5.900  12.410  20.693  0.00  0.00    +0.000 A 
ATOM     31  C   UNL     1      -5.095  12.147  19.578  0.00  0.00    +0.000 A 
BRANCH  29  32
ATOM     32  C   UNL     1      -6.214  13.072  23.142  0.00  0.00    +0.000 C 
ATOM     33  N   UNL     1      -7.460  13.393  23.026  0.00  0.00    +0.000 NA
ATOM     34  N   UNL     1      -5.697  12.997  24.466  0.00  0.00    +0.000 N 
ATOM     35  H   UNL     1      -7.968  13.493  22.141  0.00  0.00    +0.000 HD
ATOM     36  H   UNL     1      -4.724  12.759  24.682  0.00  0.00    +0.000 HD
ATOM     37  H   UNL     1      -6.312  13.210  25.267  0.00  0.00    +0.000 HD
ENDBRANCH  29  32
ENDBRANCH  25  26
ENDBRANCH  23  25
ENDBRANCH  20  21
ENDBRANCH   8  20
TORSDOF 8
ENDMDL
MODEL 9
REMARK VINA RESULT:      -8.2      3.923      5.663
REMARK  Name = 
REMARK  9 active torsions:
REMARK  status: ('A' for Active; 'I' for Inactive)
REMARK    1  A    between atoms: C_1  and  C_2
REMARK    2  A    between atoms: N_5  and  N_6
REMARK    3  A    between atoms: N_6  and  S_7
REMARK    4  A    between atoms: S_7  and  C_10
REMARK    5  A    between atoms: C_18  and  C_19
REMARK    6  A    between atoms: C_19  and  C_20
REMARK    7  A    between atoms: N_22  and  C_23
REMARK    8  A    between atoms: C_23  and  C_24
REMARK    9  A    between atoms: C_27  and  C_28
REMARK                            x       y       z     vdW  Elec       q    Type
REMARK                         _______ _______ _______ _____ _____    ______ ____
ROOT
ATOM      1  C   UNL     1       0.621   9.647  21.617  0.00  0.00    +0.000 C 
ATOM      2  C   UNL     1       1.234   8.769  20.562  0.00  0.00    +0.000 A 
ATOM      3  C   UNL     1       1.657   7.488  20.940  0.00  0.00    +0.000 A 
ATOM      4  C   UNL     1       2.248   6.644  20.010  0.00  0.00    +0.000 A 
ATOM      5  N   UNL     1       2.409   7.044  18.719  0.00  0.00    +0.000 N 
ATOM      6  C   UNL     1       2.005   8.297  18.306  0.00  0.00    +0.000 A 
ATOM      7  O   UNL     1       2.184   8.634  17.143  0.00  0.00    +0.000 OA
ATOM      8  C   UNL     1       1.408   9.201  19.218  0.00  0.00    +0.000 A 
ENDROOT
BRANCH   5   9
ATOM      9  N   UNL     1       3.014   6.170  17.823  0.00  0.00    +0.000 N 
ATOM     10  H   UNL     1       4.043   6.212  17.768  0.00  0.00    +0.000 HD
BRANCH   9  11
ATOM     11  S   UNL     1       2.478   4.499  17.810  0.00  0.00    +0.000 S 
ATOM     12  O   UNL     1       1.150   4.499  17.042  0.00  0.00    +0.000 OA
ATOM     13  O   UNL     1       3.427   3.803  16.821  0.00  0.00    +0.000 OA
BRANCH  11  14
ATOM     14  C   UNL     1       2.400   3.643  19.388  0.00  0.00    +0.000 A 
ATOM     15  C   UNL     1       1.180   3.561  20.069  0.00  0.00    +0.000 A 
ATOM     16  C   UNL     1       1.106   2.901  21.300  0.00  0.00    +0.000 A 
ATOM     17  C   UNL     1       2.250   2.318  21.852  0.00  0.00    +0.000 A 
ATOM     18  C   UNL     1       3.470   2.395  21.173  0.00  0.00    +0.000 A 
ATOM     19  C   UNL     1       3.547   3.058  19.943  0.00  0.00    +0.000 A 
ENDBRANCH  11  14
ENDBRANCH   9  11
ENDBRANCH   5   9
BRANCH   8  20
ATOM     20  C   UNL     1       1.011  10.609  18.753  0.00  0.00    +0.000 C 
BRANCH  20  21
ATOM     21  C   UNL     1      -0.476  10.805  18.516  0.00  0.00    +0.000 C 
ATOM     22  O   UNL     1      -1.164   9.867  18.138  0.00  0.00    +0.000 OA
ATOM     23  N   UNL     1      -1.050  12.025  18.744  0.00  0.00    +0.000 N 
ATOM     24  H   UNL     1      -0.454  12.806  19.064  0.00  0.00    +0.000 HD
BRANCH  23  25
ATOM     25  C   UNL     1      -2.479  12.243  18.560  0.00  0.00    +0.000 C 
BRANCH  25  26
ATOM     26  C   UNL     1      -3.213  12.468  19.869  0.00  0.00    +0.000 A 
ATOM     27  C   UNL     1      -4.606  12.620  19.891  0.00  0.00    +0.000 A 
ATOM     28  C   UNL     1      -5.287  12.811  21.100  0.00  0.00    +0.000 A 
ATOM     29  C   UNL     1      -4.595  12.862  22.334  0.00  0.00    +0.000 A 
ATOM     30  C   UNL     1      -3.190  12.692  22.293  0.00  0.00    +0.000 A 
ATOM     31  C   UNL     1      -2.515  12.496  21.083  0.00  0.00    +0.000 A 
BRANCH  29  32
ATOM     32  C   UNL     1      -5.321  13.095  23.647  0.00  0.00    +0.000 C 
ATOM     33  N   UNL     1      -5.148  14.170  24.340  0.00  0.00    +0.000 NA
ATOM     34  N   UNL     1      -6.215  12.127  24.186  0.00  0.00    +0.000 N 
ATOM     35  H   UNL     1      -4.532  14.950  24.084  0.00  0.00    +0.000 HD
ATOM     36  H   UNL     1      -6.427  11.234  23.730  0.00  0.00    +0.000 HD
ATOM     37  H   UNL     1      -6.672  12.305  25.095  0.00  0.00    +0.000 HD
ENDBRANCH  29  32
ENDBRANCH  25  26
ENDBRANCH  23  25
ENDBRANCH  20  21
ENDBRANCH   8  20
TORSDOF 8
ENDMDL
