MODEL 1
REMARK VINA RESULT:      -6.8      0.000      0.000
REMARK  Name = 
REMARK  2 active torsions:
REMARK  status: ('A' for Active; 'I' for Inactive)
REMARK    1  A    between atoms: C_4  and  C_5
REMARK    2  A    between atoms: C_5  and  N_6
REMARK                            x       y       z     vdW  Elec       q    Type
REMARK                         _______ _______ _______ _____ _____    ______ ____
ROOT
ATOM      1  N   UNL     1       2.242   7.043  18.891  0.00  0.00    +0.000 NA
ATOM      2  C   UNL     1       2.709   8.166  18.037  0.00  0.00    +0.000 C 
ATOM      3  C   UNL     1       1.650   9.277  17.837  0.00  0.00    +0.000 C 
ATOM      4  C   UNL     1       1.050   9.644  19.140  0.00  0.00    +0.000 A 
ATOM      5  N   UNL     1       0.351  10.811  19.337  0.00  0.00    +0.000 NA
ATOM      6  C   UNL     1      -0.038  10.907  20.596  0.00  0.00    +0.000 A 
ATOM      7  N   UNL     1      -0.799  11.929  21.071  0.00  0.00    +0.000 N 
ATOM      8  C   UNL     1      -0.737  12.403  22.442  0.00  0.00    +0.000 C 
ATOM      9  C   UNL     1      -2.139  12.384  23.044  0.00  0.00    +0.000 C 
ATOM     10  C   UNL     1      -3.147  13.122  22.160  0.00  0.00    +0.000 C 
ATOM     11  C   UNL     1      -3.079  12.642  20.711  0.00  0.00    +0.000 C 
ATOM     12  C   UNL     1      -1.652  12.679  20.162  0.00  0.00    +0.000 C 
ATOM     13  S   UNL     1       0.443   9.554  21.584  0.00  0.00    +0.000 S 
ATOM     14  C   UNL     1       1.138   8.813  20.230  0.00  0.00    +0.000 A 
ATOM     15  C   UNL     1       1.801   7.480  20.244  0.00  0.00    +0.000 C 
ENDROOT
BRANCH   1  16
ATOM     16  C   UNL     1       3.279   6.000  19.037  0.00  0.00    +0.000 C 
BRANCH  16  20
ATOM     17  C   UNL     1       1.545   2.667  18.402  0.00  0.00    +0.000 A 
ATOM     18  C   UNL     1       2.732   2.298  17.809  0.00  0.00    +0.000 A 
ATOM     19  S   UNL     1       3.889   3.552  17.851  0.00  0.00    +0.000 S 
ATOM     20  C   UNL     1       2.808   4.618  18.660  0.00  0.00    +0.000 A 
ATOM     21  C   UNL     1       1.591   4.007  18.894  0.00  0.00    +0.000 A 
ENDBRANCH  16  20
ENDBRANCH   1  16
TORSDOF 2
ENDMDL
MODEL 2
REMARK VINA RESULT:      -6.5      2.491      3.559
REMARK  Name = 
REMARK  2 active torsions:
REMARK  status: ('A' for Active; 'I' for Inactive)
REMARK    1  A    between atoms: C_4  and  C_5
REMARK    2  A    between atoms: C_5  and  N_6
REMARK                            x       y       z     vdW  Elec       q    Type
REMARK                         _______ _______ _______ _____ _____    ______ ____
ROOT
ATOM      1  N   UNL     1       3.252   5.624  18.812  0.00  0.00    +0.000 NA
ATOM      2  C   UNL     1       2.219   5.356  19.846  0.00  0.00    +0.000 C 
ATOM      3  C   UNL     1       1.922   6.571  20.758  0.00  0.00    +0.000 C 
ATOM      4  C   UNL     1       1.733   7.788  19.935  0.00  0.00    +0.000 A 
ATOM      5  N   UNL     1       1.127   8.925  20.413  0.00  0.00    +0.000 NA
ATOM      6  C   UNL     1       1.052   9.840  19.463  0.00  0.00    +0.000 A 
ATOM      7  N   UNL     1       0.552  11.089  19.662  0.00  0.00    +0.000 N 
ATOM      8  C   UNL     1      -0.100  11.865  18.621  0.00  0.00    +0.000 C 
ATOM      9  C   UNL     1       0.584  13.223  18.506  0.00  0.00    +0.000 C 
ATOM     10  C   UNL     1       0.679  13.929  19.861  0.00  0.00    +0.000 C 
ATOM     11  C   UNL     1       1.278  13.014  20.928  0.00  0.00    +0.000 C 
ATOM     12  C   UNL     1       0.557  11.667  20.996  0.00  0.00    +0.000 C 
ATOM     13  S   UNL     1       1.730   9.329  17.942  0.00  0.00    +0.000 S 
ATOM     14  C   UNL     1       2.183   7.854  18.639  0.00  0.00    +0.000 A 
ATOM     15  C   UNL     1       2.910   6.769  17.924  0.00  0.00    +0.000 C 
ENDROOT
BRANCH   1  16
ATOM     16  C   UNL     1       3.514   4.432  17.979  0.00  0.00    +0.000 C 
BRANCH  16  20
ATOM     17  C   UNL     1       6.540   4.336  15.665  0.00  0.00    +0.000 A 
ATOM     18  C   UNL     1       7.266   4.625  16.799  0.00  0.00    +0.000 A 
ATOM     19  S   UNL     1       6.273   4.776  18.178  0.00  0.00    +0.000 S 
ATOM     20  C   UNL     1       4.845   4.465  17.271  0.00  0.00    +0.000 A 
ATOM     21  C   UNL     1       5.141   4.242  15.940  0.00  0.00    +0.000 A 
ENDBRANCH  16  20
ENDBRANCH   1  16
TORSDOF 2
ENDMDL
MODEL 3
REMARK VINA RESULT:      -6.5      2.717      4.020
REMARK  Name = 
REMARK  2 active torsions:
REMARK  status: ('A' for Active; 'I' for Inactive)
REMARK    1  A    between atoms: C_4  and  C_5
REMARK    2  A    between atoms: C_5  and  N_6
REMARK                            x       y       z     vdW  Elec       q    Type
REMARK                         _______ _______ _______ _____ _____    ______ ____
ROOT
ATOM      1  N   UNL     1       3.974   4.925  18.668  0.00  0.00    +0.000 NA
ATOM      2  C   UNL     1       2.937   4.513  19.649  0.00  0.00    +0.000 C 
ATOM      3  C   UNL     1       2.497   5.650  20.603  0.00  0.00    +0.000 C 
ATOM      4  C   UNL     1       2.222   6.882  19.828  0.00  0.00    +0.000 A 
ATOM      5  N   UNL     1       1.495   7.934  20.334  0.00  0.00    +0.000 NA
ATOM      6  C   UNL     1       1.366   8.882  19.424  0.00  0.00    +0.000 A 
ATOM      7  N   UNL     1       0.744  10.069  19.658  0.00  0.00    +0.000 N 
ATOM      8  C   UNL     1       0.057  10.830  18.630  0.00  0.00    +0.000 C 
ATOM      9  C   UNL     1       0.613  12.250  18.601  0.00  0.00    +0.000 C 
ATOM     10  C   UNL     1       0.596  12.896  19.989  0.00  0.00    +0.000 C 
ATOM     11  C   UNL     1       1.242  11.989  21.036  0.00  0.00    +0.000 C 
ATOM     12  C   UNL     1       0.650  10.580  21.017  0.00  0.00    +0.000 C 
ATOM     13  S   UNL     1       2.140   8.510  17.908  0.00  0.00    +0.000 S 
ATOM     14  C   UNL     1       2.707   7.052  18.555  0.00  0.00    +0.000 A 
ATOM     15  C   UNL     1       3.556   6.075  17.821  0.00  0.00    +0.000 C 
ENDROOT
BRANCH   1  16
ATOM     16  C   UNL     1       4.375   3.804  17.794  0.00  0.00    +0.000 C 
BRANCH  16  20
ATOM     17  C   UNL     1       6.292   4.622  14.604  0.00  0.00    +0.000 A 
ATOM     18  C   UNL     1       7.333   4.934  15.451  0.00  0.00    +0.000 A 
ATOM     19  S   UNL     1       6.916   4.712  17.090  0.00  0.00    +0.000 S 
ATOM     20  C   UNL     1       5.323   4.202  16.690  0.00  0.00    +0.000 A 
ATOM     21  C   UNL     1       5.132   4.198  15.321  0.00  0.00    +0.000 A 
ENDBRANCH  16  20
ENDBRANCH   1  16
TORSDOF 2
ENDMDL
MODEL 4
REMARK VINA RESULT:      -6.4      2.054      8.335
REMARK  Name = 
REMARK  2 active torsions:
REMARK  status: ('A' for Active; 'I' for Inactive)
REMARK    1  A    between atoms: C_4  and  C_5
REMARK    2  A    between atoms: C_5  and  N_6
REMARK                            x       y       z     vdW  Elec       q    Type
REMARK                         _______ _______ _______ _____ _____    ______ ____
ROOT
ATOM      1  N   UNL     1      -0.291  10.488  19.801  0.00  0.00    +0.000 NA
ATOM      2  C   UNL     1       0.253  10.116  21.133  0.00  0.00    +0.000 C 
ATOM      3  C   UNL     1       0.666   8.629  21.243  0.00  0.00    +0.000 C 
ATOM      4  C   UNL     1       1.478   8.241  20.066  0.00  0.00    +0.000 A 
ATOM      5  N   UNL     1       2.268   7.116  20.043  0.00  0.00    +0.000 NA
ATOM      6  C   UNL     1       2.912   7.030  18.893  0.00  0.00    +0.000 A 
ATOM      7  N   UNL     1       3.723   5.989  18.562  0.00  0.00    +0.000 N 
ATOM      8  C   UNL     1       4.864   6.116  17.673  0.00  0.00    +0.000 C 
ATOM      9  C   UNL     1       4.738   5.095  16.547  0.00  0.00    +0.000 C 
ATOM     10  C   UNL     1       4.503   3.681  17.084  0.00  0.00    +0.000 C 
ATOM     11  C   UNL     1       3.355   3.649  18.093  0.00  0.00    +0.000 C 
ATOM     12  C   UNL     1       3.532   4.694  19.195  0.00  0.00    +0.000 C 
ATOM     13  S   UNL     1       2.564   8.338  17.796  0.00  0.00    +0.000 S 
ATOM     14  C   UNL     1       1.465   8.982  18.910  0.00  0.00    +0.000 A 
ATOM     15  C   UNL     1       0.653  10.208  18.684  0.00  0.00    +0.000 C 
ENDROOT
BRANCH   1  16
ATOM     16  C   UNL     1      -0.688  11.910  19.750  0.00  0.00    +0.000 C 
BRANCH  16  20
ATOM     17  C   UNL     1      -4.390  12.713  20.155  0.00  0.00    +0.000 A 
ATOM     18  C   UNL     1      -4.541  12.066  18.949  0.00  0.00    +0.000 A 
ATOM     19  S   UNL     1      -3.054  11.498  18.334  0.00  0.00    +0.000 S 
ATOM     20  C   UNL     1      -2.179  12.123  19.677  0.00  0.00    +0.000 A 
ATOM     21  C   UNL     1      -3.026  12.744  20.576  0.00  0.00    +0.000 A 
ENDBRANCH  16  20
ENDBRANCH   1  16
TORSDOF 2
ENDMDL
MODEL 5
REMARK VINA RESULT:      -6.4      6.811      9.052
REMARK  Name = 
REMARK  2 active torsions:
REMARK  status: ('A' for Active; 'I' for Inactive)
REMARK    1  A    between atoms: C_4  and  C_5
REMARK    2  A    between atoms: C_5  and  N_6
REMARK                            x       y       z     vdW  Elec       q    Type
REMARK                         _______ _______ _______ _____ _____    ______ ____
ROOT
ATOM      1  N   UNL     1       7.419   7.907  18.261  0.00  0.00    +0.000 NA
ATOM      2  C   UNL     1       8.275   6.746  18.618  0.00  0.00    +0.000 C 
ATOM      3  C   UNL     1       7.558   5.691  19.494  0.00  0.00    +0.000 C 
ATOM      4  C   UNL     1       6.227   5.379  18.922  0.00  0.00    +0.000 A 
ATOM      5  N   UNL     1       5.514   4.254  19.263  0.00  0.00    +0.000 NA
ATOM      6  C   UNL     1       4.386   4.201  18.580  0.00  0.00    +0.000 A 
ATOM      7  N   UNL     1       3.449   3.229  18.750  0.00  0.00    +0.000 N 
ATOM      8  C   UNL     1       2.564   2.776  17.691  0.00  0.00    +0.000 C 
ATOM      9  C   UNL     1       1.118   2.881  18.167  0.00  0.00    +0.000 C 
ATOM     10  C   UNL     1       0.910   2.183  19.514  0.00  0.00    +0.000 C 
ATOM     11  C   UNL     1       1.945   2.634  20.544  0.00  0.00    +0.000 C 
ATOM     12  C   UNL     1       3.373   2.511  20.012  0.00  0.00    +0.000 C 
ATOM     13  S   UNL     1       4.162   5.542  17.490  0.00  0.00    +0.000 S 
ATOM     14  C   UNL     1       5.615   6.222  18.028  0.00  0.00    +0.000 A 
ATOM     15  C   UNL     1       6.171   7.517  17.549  0.00  0.00    +0.000 C 
ENDROOT
BRANCH   1  16
ATOM     16  C   UNL     1       8.151   8.895  17.442  0.00  0.00    +0.000 C 
BRANCH  16  20
ATOM     17  C   UNL     1       9.759  11.340  19.882  0.00  0.00    +0.000 A 
ATOM     18  C   UNL     1       9.309  12.313  19.018  0.00  0.00    +0.000 A 
ATOM     19  S   UNL     1       8.478  11.653  17.682  0.00  0.00    +0.000 S 
ATOM     20  C   UNL     1       8.719  10.043  18.238  0.00  0.00    +0.000 A 
ATOM     21  C   UNL     1       9.416  10.029  19.431  0.00  0.00    +0.000 A 
ENDBRANCH  16  20
ENDBRANCH   1  16
TORSDOF 2
ENDMDL
MODEL 6
REMARK VINA RESULT:      -6.4      1.587      1.825
REMARK  Name = 
REMARK  2 active torsions:
REMARK  status: ('A' for Active; 'I' for Inactive)
REMARK    1  A    between atoms: C_4  and  C_5
REMARK    2  A    between atoms: C_5  and  N_6
REMARK                            x       y       z     vdW  Elec       q    Type
REMARK                         _______ _______ _______ _____ _____    ______ ____
ROOT
ATOM      1  N   UNL     1       2.589   6.316  19.073  0.00  0.00    +0.000 NA
ATOM      2  C   UNL     1       3.186   7.356  18.195  0.00  0.00    +0.000 C 
ATOM      3  C   UNL     1       2.206   8.495  17.825  0.00  0.00    +0.000 C 
ATOM      4  C   UNL     1       1.510   8.977  19.040  0.00  0.00    +0.000 A 
ATOM      5  N   UNL     1       0.855  10.185  19.095  0.00  0.00    +0.000 NA
ATOM      6  C   UNL     1       0.359  10.385  20.302  0.00  0.00    +0.000 A 
ATOM      7  N   UNL     1      -0.390  11.470  20.637  0.00  0.00    +0.000 N 
ATOM      8  C   UNL     1      -0.427  12.035  21.975  0.00  0.00    +0.000 C 
ATOM      9  C   UNL     1      -1.876  12.119  22.443  0.00  0.00    +0.000 C 
ATOM     10  C   UNL     1      -2.764  12.837  21.423  0.00  0.00    +0.000 C 
ATOM     11  C   UNL     1      -2.589  12.255  20.021  0.00  0.00    +0.000 C 
ATOM     12  C   UNL     1      -1.119  12.191  19.606  0.00  0.00    +0.000 C 
ATOM     13  S   UNL     1       0.682   9.085  21.417  0.00  0.00    +0.000 S 
ATOM     14  C   UNL     1       1.458   8.222  20.185  0.00  0.00    +0.000 A 
ATOM     15  C   UNL     1       2.049   6.865  20.347  0.00  0.00    +0.000 C 
ENDROOT
BRANCH   1  16
ATOM     16  C   UNL     1       3.554   5.242  19.383  0.00  0.00    +0.000 C 
BRANCH  16  20
ATOM     17  C   UNL     1       5.213   4.005  16.183  0.00  0.00    +0.000 A 
ATOM     18  C   UNL     1       6.381   4.459  16.755  0.00  0.00    +0.000 A 
ATOM     19  S   UNL     1       6.120   5.145  18.295  0.00  0.00    +0.000 S 
ATOM     20  C   UNL     1       4.426   4.853  18.216  0.00  0.00    +0.000 A 
ATOM     21  C   UNL     1       4.085   4.231  17.029  0.00  0.00    +0.000 A 
ENDBRANCH  16  20
ENDBRANCH   1  16
TORSDOF 2
ENDMDL
MODEL 7
REMARK VINA RESULT:      -6.4      1.948      2.556
REMARK  Name = 
REMARK  2 active torsions:
REMARK  status: ('A' for Active; 'I' for Inactive)
REMARK    1  A    between atoms: C_4  and  C_5
REMARK    2  A    between atoms: C_5  and  N_6
REMARK                            x       y       z     vdW  Elec       q    Type
REMARK                         _______ _______ _______ _____ _____    ______ ____
ROOT
ATOM      1  N   UNL     1       2.940   5.822  18.842  0.00  0.00    +0.000 NA
ATOM      2  C   UNL     1       3.626   6.839  18.004  0.00  0.00    +0.000 C 
ATOM      3  C   UNL     1       2.713   8.016  17.583  0.00  0.00    +0.000 C 
ATOM      4  C   UNL     1       1.967   8.523  18.759  0.00  0.00    +0.000 A 
ATOM      5  N   UNL     1       1.357   9.755  18.781  0.00  0.00    +0.000 NA
ATOM      6  C   UNL     1       0.802   9.971  19.959  0.00  0.00    +0.000 A 
ATOM      7  N   UNL     1       0.077  11.084  20.255  0.00  0.00    +0.000 N 
ATOM      8  C   UNL     1      -0.016  11.647  21.591  0.00  0.00    +0.000 C 
ATOM      9  C   UNL     1      -1.485  11.785  21.976  0.00  0.00    +0.000 C 
ATOM     10  C   UNL     1      -2.284  12.539  20.910  0.00  0.00    +0.000 C 
ATOM     11  C   UNL     1      -2.052  11.954  19.518  0.00  0.00    +0.000 C 
ATOM     12  C   UNL     1      -0.564  11.834  19.187  0.00  0.00    +0.000 C 
ATOM     13  S   UNL     1       1.010   8.657  21.085  0.00  0.00    +0.000 S 
ATOM     14  C   UNL     1       1.821   7.767  19.896  0.00  0.00    +0.000 A 
ATOM     15  C   UNL     1       2.350   6.389  20.086  0.00  0.00    +0.000 C 
ENDROOT
BRANCH   1  16
ATOM     16  C   UNL     1       3.845   4.711  19.202  0.00  0.00    +0.000 C 
BRANCH  16  20
ATOM     17  C   UNL     1       7.471   5.313  18.201  0.00  0.00    +0.000 A 
ATOM     18  C   UNL     1       7.117   4.718  17.010  0.00  0.00    +0.000 A 
ATOM     19  S   UNL     1       5.478   4.243  16.992  0.00  0.00    +0.000 S 
ATOM     20  C   UNL     1       5.219   4.822  18.590  0.00  0.00    +0.000 A 
ATOM     21  C   UNL     1       6.373   5.375  19.112  0.00  0.00    +0.000 A 
ENDBRANCH  16  20
ENDBRANCH   1  16
TORSDOF 2
ENDMDL
MODEL 8
REMARK VINA RESULT:      -6.4      1.875      8.497
REMARK  Name = 
REMARK  2 active torsions:
REMARK  status: ('A' for Active; 'I' for Inactive)
REMARK    1  A    between atoms: C_4  and  C_5
REMARK    2  A    between atoms: C_5  and  N_6
REMARK                            x       y       z     vdW  Elec       q    Type
REMARK                         _______ _______ _______ _____ _____    ______ ____
ROOT
ATOM      1  N   UNL     1       0.779  10.022  19.401  0.00  0.00    +0.000 NA
ATOM      2  C   UNL     1       1.025   9.748  20.840  0.00  0.00    +0.000 C 
ATOM      3  C   UNL     1       0.913   8.251  21.217  0.00  0.00    +0.000 C 
ATOM      4  C   UNL     1       1.674   7.428  20.248  0.00  0.00    +0.000 A 
ATOM      5  N   UNL     1       2.048   6.130  20.504  0.00  0.00    +0.000 NA
ATOM      6  C   UNL     1       2.748   5.646  19.493  0.00  0.00    +0.000 A 
ATOM      7  N   UNL     1       3.203   4.365  19.440  0.00  0.00    +0.000 N 
ATOM      8  C   UNL     1       4.410   3.974  18.735  0.00  0.00    +0.000 C 
ATOM      9  C   UNL     1       4.077   2.855  17.753  0.00  0.00    +0.000 C 
ATOM     10  C   UNL     1       3.335   1.702  18.434  0.00  0.00    +0.000 C 
ATOM     11  C   UNL     1       2.140   2.205  19.242  0.00  0.00    +0.000 C 
ATOM     12  C   UNL     1       2.531   3.327  20.205  0.00  0.00    +0.000 C 
ATOM     13  S   UNL     1       2.967   6.777  18.186  0.00  0.00    +0.000 S 
ATOM     14  C   UNL     1       2.028   7.916  19.014  0.00  0.00    +0.000 A 
ATOM     15  C   UNL     1       1.692   9.271  18.497  0.00  0.00    +0.000 C 
ENDROOT
BRANCH   1  16
ATOM     16  C   UNL     1       0.878  11.464  19.094  0.00  0.00    +0.000 C 
BRANCH  16  20
ATOM     17  C   UNL     1      -2.256  13.224  20.359  0.00  0.00    +0.000 A 
ATOM     18  C   UNL     1      -1.380  14.023  21.061  0.00  0.00    +0.000 A 
ATOM     19  S   UNL     1       0.247  13.580  20.796  0.00  0.00    +0.000 S 
ATOM     20  C   UNL     1      -0.200  12.299  19.740  0.00  0.00    +0.000 A 
ATOM     21  C   UNL     1      -1.573  12.230  19.595  0.00  0.00    +0.000 A 
ENDBRANCH  16  20
ENDBRANCH   1  16
TORSDOF 2
ENDMDL
MODEL 9
REMARK VINA RESULT:      -6.3      2.240      8.455
REMARK  Name = 
REMARK  2 active torsions:
REMARK  status: ('A' for Active; 'I' for Inactive)
REMARK    1  A    between atoms: C_4  and  C_5
REMARK    2  A    between atoms: C_5  and  N_6
REMARK                            x       y       z     vdW  Elec       q    Type
REMARK                         _______ _______ _______ _____ _____    ______ ____
ROOT
ATOM      1  N   UNL     1       0.609   9.878  20.509  0.00  0.00    +0.000 NA
ATOM      2  C   UNL     1       0.222  10.104  19.092  0.00  0.00    +0.000 C 
ATOM      3  C   UNL     1       1.375   9.869  18.088  0.00  0.00    +0.000 C 
ATOM      4  C   UNL     1       2.057   8.589  18.391  0.00  0.00    +0.000 A 
ATOM      5  N   UNL     1       2.873   7.947  17.489  0.00  0.00    +0.000 NA
ATOM      6  C   UNL     1       3.316   6.812  17.999  0.00  0.00    +0.000 A 
ATOM      7  N   UNL     1       4.190   5.991  17.356  0.00  0.00    +0.000 N 
ATOM      8  C   UNL     1       4.225   4.552  17.548  0.00  0.00    +0.000 C 
ATOM      9  C   UNL     1       5.639   4.132  17.934  0.00  0.00    +0.000 C 
ATOM     10  C   UNL     1       6.682   4.668  16.950  0.00  0.00    +0.000 C 
ATOM     11  C   UNL     1       6.513   6.170  16.719  0.00  0.00    +0.000 C 
ATOM     12  C   UNL     1       5.077   6.533  16.339  0.00  0.00    +0.000 C 
ATOM     13  S   UNL     1       2.743   6.496  19.613  0.00  0.00    +0.000 S 
ATOM     14  C   UNL     1       1.929   7.980  19.615  0.00  0.00    +0.000 A 
ATOM     15  C   UNL     1       1.141   8.511  20.761  0.00  0.00    +0.000 C 
ENDROOT
BRANCH   1  16
ATOM     16  C   UNL     1      -0.518  10.133  21.431  0.00  0.00    +0.000 C 
BRANCH  16  20
ATOM     17  C   UNL     1      -1.130  13.490  23.124  0.00  0.00    +0.000 A 
ATOM     18  C   UNL     1      -0.198  13.975  22.234  0.00  0.00    +0.000 A 
ATOM     19  S   UNL     1       0.403  12.754  21.204  0.00  0.00    +0.000 S 
ATOM     20  C   UNL     1      -0.574  11.549  21.947  0.00  0.00    +0.000 A 
ATOM     21  C   UNL     1      -1.347  12.089  22.956  0.00  0.00    +0.000 A 
ENDBRANCH  16  20
ENDBRANCH   1  16
TORSDOF 2
ENDMDL
