MODEL 1
REMARK VINA RESULT:      -7.2      0.000      0.000
REMARK  Name = 
REMARK  11 active torsions:
REMARK  status: ('A' for Active; 'I' for Inactive)
REMARK    1  A    between atoms: C_1  and  C_2
REMARK    2  A    between atoms: C_2  and  O_3
REMARK    3  A    between atoms: O_3  and  C_4
REMARK    4  A    between atoms: C_4  and  C_6
REMARK    5  A    between atoms: C_10  and  C_11
REMARK    6  A    between atoms: C_16  and  O_17
REMARK    7  A    between atoms: O_17  and  C_18
REMARK    8  A    between atoms: N_25  and  C_26
REMARK    9  A    between atoms: C_26  and  C_27
REMARK   10  A    between atoms: N_29  and  C_30
REMARK   11  A    between atoms: C_30  and  C_31
REMARK                            x       y       z     vdW  Elec       q    Type
REMARK                         _______ _______ _______ _____ _____    ______ ____
ROOT
ATOM      1  C   UNL     1      -0.127  10.948  21.791  0.00  0.00    +0.000 C 
ATOM      2  C   UNL     1       0.418   9.957  21.056  0.00  0.00    +0.000 A 
ATOM      3  S   UNL     1       0.911   8.476  21.888  0.00  0.00    +0.000 S 
ATOM      4  C   UNL     1       1.622   7.819  20.450  0.00  0.00    +0.000 A 
ATOM      5  C   UNL     1       2.335   6.679  20.415  0.00  0.00    +0.000 C 
ATOM      6  C   UNL     1       1.343   8.699  19.284  0.00  0.00    +0.000 A 
ATOM      7  O   UNL     1       1.646   8.438  18.128  0.00  0.00    +0.000 OA
ATOM      8  N   UNL     1       0.702   9.863  19.702  0.00  0.00    +0.000 N 
ENDROOT
BRANCH   5   9
ATOM      9  C   UNL     1       2.956   6.115  19.206  0.00  0.00    +0.000 A 
ATOM     10  C   UNL     1       2.324   5.100  18.483  0.00  0.00    +0.000 A 
ATOM     11  C   UNL     1       2.966   4.503  17.386  0.00  0.00    +0.000 A 
ATOM     12  C   UNL     1       4.255   4.906  16.992  0.00  0.00    +0.000 A 
ATOM     13  C   UNL     1       4.924   4.297  15.915  0.00  0.00    +0.000 A 
ATOM     14  C   UNL     1       6.210   4.699  15.534  0.00  0.00    +0.000 A 
ATOM     15  C   UNL     1       6.832   5.730  16.234  0.00  0.00    +0.000 A 
ATOM     16  C   UNL     1       6.175   6.345  17.308  0.00  0.00    +0.000 A 
ATOM     17  C   UNL     1       4.888   5.945  17.702  0.00  0.00    +0.000 A 
ATOM     18  C   UNL     1       4.232   6.540  18.804  0.00  0.00    +0.000 A 
BRANCH  14  19
ATOM     19  O   UNL     1       6.740   4.008  14.478  0.00  0.00    +0.000 OA
ATOM     20  C   UNL     1       5.878   3.741  13.378  0.00  0.00    +0.000 C 
ENDBRANCH  14  19
ENDBRANCH   5   9
BRANCH   1  21
ATOM     21  C   UNL     1      -0.469  12.332  21.394  0.00  0.00    +0.000 C 
ATOM     22  O   UNL     1      -1.504  12.678  20.850  0.00  0.00    +0.000 OA
BRANCH  21  23
ATOM     23  O   UNL     1       0.570  13.168  21.664  0.00  0.00    +0.000 OA
BRANCH  23  25
ATOM     24  C   UNL     1       2.476  13.504  20.148  0.00  0.00    +0.000 C 
ATOM     25  C   UNL     1       1.058  13.908  20.525  0.00  0.00    +0.000 C 
ENDBRANCH  23  25
ENDBRANCH  21  23
ENDBRANCH   1  21
BRANCH   8  26
ATOM     26  C   UNL     1       0.291  10.782  18.648  0.00  0.00    +0.000 C 
BRANCH  26  27
ATOM     27  C   UNL     1      -1.038  10.420  17.973  0.00  0.00    +0.000 C 
ATOM     28  O   UNL     1      -1.133   9.592  17.068  0.00  0.00    +0.000 OA
ATOM     29  N   UNL     1      -2.132  11.139  18.438  0.00  0.00    +0.000 N 
ATOM     30  H   UNL     1      -2.100  11.457  19.403  0.00  0.00    +0.000 HD
BRANCH  29  31
ATOM     31  C   UNL     1      -3.440  10.836  17.883  0.00  0.00    +0.000 C 
BRANCH  31  32
ATOM     32  C   UNL     1      -4.545  11.847  18.198  0.00  0.00    +0.000 C 
ATOM     33  C   UNL     1      -4.602  12.367  19.624  0.00  0.00    +0.000 C 
ATOM     34  C   UNL     1      -6.035  12.840  19.713  0.00  0.00    +0.000 C 
ATOM     35  C   UNL     1      -6.771  11.806  18.888  0.00  0.00    +0.000 C 
ATOM     36  O   UNL     1      -5.844  11.290  17.920  0.00  0.00    +0.000 OA
ENDBRANCH  31  32
ENDBRANCH  29  31
ENDBRANCH  26  27
ENDBRANCH   8  26
TORSDOF 9
ENDMDL
MODEL 2
REMARK VINA RESULT:      -7.1      2.595      4.028
REMARK  Name = 
REMARK  11 active torsions:
REMARK  status: ('A' for Active; 'I' for Inactive)
REMARK    1  A    between atoms: C_1  and  C_2
REMARK    2  A    between atoms: C_2  and  O_3
REMARK    3  A    between atoms: O_3  and  C_4
REMARK    4  A    between atoms: C_4  and  C_6
REMARK    5  A    between atoms: C_10  and  C_11
REMARK    6  A    between atoms: C_16  and  O_17
REMARK    7  A    between atoms: O_17  and  C_18
REMARK    8  A    between atoms: N_25  and  C_26
REMARK    9  A    between atoms: C_26  and  C_27
REMARK   10  A    between atoms: N_29  and  C_30
REMARK   11  A    between atoms: C_30  and  C_31
REMARK                            x       y       z     vdW  Elec       q    Type
REMARK                         _______ _______ _______ _____ _____    ______ ____
ROOT
ATOM      1  C   UNL     1      -0.070  11.500  21.776  0.00  0.00    +0.000 C 
ATOM      2  C   UNL     1       0.392  10.431  21.096  0.00  0.00    +0.000 A 
ATOM      3  S   UNL     1       0.530   8.892  21.956  0.00  0.00    +0.000 S 
ATOM      4  C   UNL     1       1.297   8.123  20.604  0.00  0.00    +0.000 A 
ATOM      5  C   UNL     1       1.813   6.881  20.637  0.00  0.00    +0.000 C 
ATOM      6  C   UNL     1       1.311   9.033  19.429  0.00  0.00    +0.000 A 
ATOM      7  O   UNL     1       1.708   8.723  18.314  0.00  0.00    +0.000 OA
ATOM      8  N   UNL     1       0.822  10.288  19.785  0.00  0.00    +0.000 N 
ENDROOT
BRANCH   5   9
ATOM      9  C   UNL     1       2.478   6.220  19.503  0.00  0.00    +0.000 A 
ATOM     10  C   UNL     1       1.792   5.294  18.711  0.00  0.00    +0.000 A 
ATOM     11  C   UNL     1       2.461   4.599  17.691  0.00  0.00    +0.000 A 
ATOM     12  C   UNL     1       3.829   4.811  17.444  0.00  0.00    +0.000 A 
ATOM     13  C   UNL     1       4.521   4.099  16.447  0.00  0.00    +0.000 A 
ATOM     14  C   UNL     1       5.885   4.310  16.213  0.00  0.00    +0.000 A 
ATOM     15  C   UNL     1       6.565   5.252  16.981  0.00  0.00    +0.000 A 
ATOM     16  C   UNL     1       5.887   5.968  17.977  0.00  0.00    +0.000 A 
ATOM     17  C   UNL     1       4.521   5.759  18.224  0.00  0.00    +0.000 A 
ATOM     18  C   UNL     1       3.838   6.455  19.247  0.00  0.00    +0.000 A 
BRANCH  14  19
ATOM     19  O   UNL     1       6.426   3.538  15.221  0.00  0.00    +0.000 OA
ATOM     20  C   UNL     1       6.281   4.004  13.884  0.00  0.00    +0.000 C 
ENDBRANCH  14  19
ENDBRANCH   5   9
BRANCH   1  21
ATOM     21  C   UNL     1      -0.130  12.921  21.365  0.00  0.00    +0.000 C 
ATOM     22  O   UNL     1      -0.957  13.406  20.611  0.00  0.00    +0.000 OA
BRANCH  21  23
ATOM     23  O   UNL     1       0.916  13.608  21.898  0.00  0.00    +0.000 OA
BRANCH  23  25
ATOM     24  C   UNL     1       1.920  15.811  22.324  0.00  0.00    +0.000 C 
ATOM     25  C   UNL     1       0.643  14.997  22.177  0.00  0.00    +0.000 C 
ENDBRANCH  23  25
ENDBRANCH  21  23
ENDBRANCH   1  21
BRANCH   8  26
ATOM     26  C   UNL     1       0.700  11.259  18.705  0.00  0.00    +0.000 C 
BRANCH  26  27
ATOM     27  C   UNL     1       1.962  12.094  18.456  0.00  0.00    +0.000 C 
ATOM     28  O   UNL     1       2.846  11.764  17.665  0.00  0.00    +0.000 OA
ATOM     29  N   UNL     1       2.051  13.244  19.230  0.00  0.00    +0.000 N 
ATOM     30  H   UNL     1       1.178  13.680  19.513  0.00  0.00    +0.000 HD
BRANCH  29  31
ATOM     31  C   UNL     1       3.195  14.118  19.033  0.00  0.00    +0.000 C 
BRANCH  31  32
ATOM     32  C   UNL     1       2.871  15.598  18.817  0.00  0.00    +0.000 C 
ATOM     33  C   UNL     1       1.404  15.952  18.643  0.00  0.00    +0.000 C 
ATOM     34  C   UNL     1       1.500  17.281  17.929  0.00  0.00    +0.000 C 
ATOM     35  C   UNL     1       2.700  17.080  17.027  0.00  0.00    +0.000 C 
ATOM     36  O   UNL     1       3.550  16.108  17.654  0.00  0.00    +0.000 OA
ENDBRANCH  31  32
ENDBRANCH  29  31
ENDBRANCH  26  27
ENDBRANCH   8  26
TORSDOF 9
ENDMDL
MODEL 3
REMARK VINA RESULT:      -7.0      1.121      1.630
REMARK  Name = 
REMARK  11 active torsions:
REMARK  status: ('A' for Active; 'I' for Inactive)
REMARK    1  A    between atoms: C_1  and  C_2
REMARK    2  A    between atoms: C_2  and  O_3
REMARK    3  A    between atoms: O_3  and  C_4
REMARK    4  A    between atoms: C_4  and  C_6
REMARK    5  A    between atoms: C_10  and  C_11
REMARK    6  A    between atoms: C_16  and  O_17
REMARK    7  A    between atoms: O_17  and  C_18
REMARK    8  A    between atoms: N_25  and  C_26
REMARK    9  A    between atoms: C_26  and  C_27
REMARK   10  A    between atoms: N_29  and  C_30
REMARK   11  A    between atoms: C_30  and  C_31
REMARK                            x       y       z     vdW  Elec       q    Type
REMARK                         _______ _______ _______ _____ _____    ______ ____
ROOT
ATOM      1  C   UNL     1      -0.535  11.588  21.556  0.00  0.00    +0.000 C 
ATOM      2  C   UNL     1      -0.017  10.507  20.939  0.00  0.00    +0.000 A 
ATOM      3  S   UNL     1       0.443   9.120  21.933  0.00  0.00    +0.000 S 
ATOM      4  C   UNL     1       1.133   8.286  20.579  0.00  0.00    +0.000 A 
ATOM      5  C   UNL     1       1.818   7.132  20.674  0.00  0.00    +0.000 C 
ATOM      6  C   UNL     1       0.871   9.033  19.321  0.00  0.00    +0.000 A 
ATOM      7  O   UNL     1       1.163   8.635  18.202  0.00  0.00    +0.000 OA
ATOM      8  N   UNL     1       0.259  10.253  19.604  0.00  0.00    +0.000 N 
ENDROOT
BRANCH   5   9
ATOM      9  C   UNL     1       2.421   6.419  19.537  0.00  0.00    +0.000 A 
ATOM     10  C   UNL     1       1.856   5.236  19.052  0.00  0.00    +0.000 A 
ATOM     11  C   UNL     1       2.490   4.513  18.029  0.00  0.00    +0.000 A 
ATOM     12  C   UNL     1       3.703   4.955  17.472  0.00  0.00    +0.000 A 
ATOM     13  C   UNL     1       4.367   4.226  16.468  0.00  0.00    +0.000 A 
ATOM     14  C   UNL     1       5.577   4.669  15.924  0.00  0.00    +0.000 A 
ATOM     15  C   UNL     1       6.129   5.863  16.383  0.00  0.00    +0.000 A 
ATOM     16  C   UNL     1       5.478   6.599  17.382  0.00  0.00    +0.000 A 
ATOM     17  C   UNL     1       4.266   6.160  17.939  0.00  0.00    +0.000 A 
ATOM     18  C   UNL     1       3.618   6.880  18.968  0.00  0.00    +0.000 A 
BRANCH  14  19
ATOM     19  O   UNL     1       6.113   3.851  14.966  0.00  0.00    +0.000 OA
ATOM     20  C   UNL     1       6.784   4.479  13.879  0.00  0.00    +0.000 C 
ENDBRANCH  14  19
ENDBRANCH   5   9
BRANCH   1  21
ATOM     21  C   UNL     1      -0.845  12.927  21.004  0.00  0.00    +0.000 C 
ATOM     22  O   UNL     1      -0.049  13.842  20.877  0.00  0.00    +0.000 OA
BRANCH  21  23
ATOM     23  O   UNL     1      -2.171  13.020  20.716  0.00  0.00    +0.000 OA
BRANCH  23  25
ATOM     24  C   UNL     1      -3.173  14.325  22.542  0.00  0.00    +0.000 C 
ATOM     25  C   UNL     1      -2.777  14.280  21.074  0.00  0.00    +0.000 C 
ENDBRANCH  23  25
ENDBRANCH  21  23
ENDBRANCH   1  21
BRANCH   8  26
ATOM     26  C   UNL     1      -0.133  11.055  18.452  0.00  0.00    +0.000 C 
BRANCH  26  27
ATOM     27  C   UNL     1      -1.494  10.680  17.851  0.00  0.00    +0.000 C 
ATOM     28  O   UNL     1      -1.678   9.673  17.170  0.00  0.00    +0.000 OA
ATOM     29  N   UNL     1      -2.505  11.599  18.104  0.00  0.00    +0.000 N 
ATOM     30  H   UNL     1      -2.438  12.136  18.964  0.00  0.00    +0.000 HD
BRANCH  29  31
ATOM     31  C   UNL     1      -3.839  11.309  17.606  0.00  0.00    +0.000 C 
BRANCH  31  32
ATOM     32  C   UNL     1      -4.991  11.653  18.553  0.00  0.00    +0.000 C 
ATOM     33  C   UNL     1      -6.045  10.578  18.756  0.00  0.00    +0.000 C 
ATOM     34  C   UNL     1      -7.221  11.399  19.234  0.00  0.00    +0.000 C 
ATOM     35  C   UNL     1      -7.084  12.668  18.419  0.00  0.00    +0.000 C 
ATOM     36  O   UNL     1      -5.694  12.826  18.101  0.00  0.00    +0.000 OA
ENDBRANCH  31  32
ENDBRANCH  29  31
ENDBRANCH  26  27
ENDBRANCH   8  26
TORSDOF 9
ENDMDL
MODEL 4
REMARK VINA RESULT:      -6.9      3.670     10.256
REMARK  Name = 
REMARK  11 active torsions:
REMARK  status: ('A' for Active; 'I' for Inactive)
REMARK    1  A    between atoms: C_1  and  C_2
REMARK    2  A    between atoms: C_2  and  O_3
REMARK    3  A    between atoms: O_3  and  C_4
REMARK    4  A    between atoms: C_4  and  C_6
REMARK    5  A    between atoms: C_10  and  C_11
REMARK    6  A    between atoms: C_16  and  O_17
REMARK    7  A    between atoms: O_17  and  C_18
REMARK    8  A    between atoms: N_25  and  C_26
REMARK    9  A    between atoms: C_26  and  C_27
REMARK   10  A    between atoms: N_29  and  C_30
REMARK   11  A    between atoms: C_30  and  C_31
REMARK                            x       y       z     vdW  Elec       q    Type
REMARK                         _______ _______ _______ _____ _____    ______ ____
ROOT
ATOM      1  C   UNL     1       6.090   4.096  14.915  0.00  0.00    +0.000 C 
ATOM      2  C   UNL     1       5.411   4.757  15.873  0.00  0.00    +0.000 A 
ATOM      3  S   UNL     1       4.075   3.923  16.677  0.00  0.00    +0.000 S 
ATOM      4  C   UNL     1       3.623   5.343  17.561  0.00  0.00    +0.000 A 
ATOM      5  C   UNL     1       2.522   5.435  18.328  0.00  0.00    +0.000 C 
ATOM      6  C   UNL     1       4.610   6.431  17.335  0.00  0.00    +0.000 A 
ATOM      7  O   UNL     1       4.593   7.516  17.902  0.00  0.00    +0.000 OA
ATOM      8  N   UNL     1       5.545   6.043  16.378  0.00  0.00    +0.000 N 
ENDROOT
BRANCH   5   9
ATOM      9  C   UNL     1       2.117   6.638  19.073  0.00  0.00    +0.000 A 
ATOM     10  C   UNL     1       1.957   6.600  20.462  0.00  0.00    +0.000 A 
ATOM     11  C   UNL     1       1.480   7.725  21.153  0.00  0.00    +0.000 A 
ATOM     12  C   UNL     1       1.149   8.909  20.470  0.00  0.00    +0.000 A 
ATOM     13  C   UNL     1       0.640  10.035  21.144  0.00  0.00    +0.000 A 
ATOM     14  C   UNL     1       0.307  11.207  20.456  0.00  0.00    +0.000 A 
ATOM     15  C   UNL     1       0.492  11.259  19.077  0.00  0.00    +0.000 A 
ATOM     16  C   UNL     1       0.998  10.145  18.394  0.00  0.00    +0.000 A 
ATOM     17  C   UNL     1       1.330   8.962  19.074  0.00  0.00    +0.000 A 
ATOM     18  C   UNL     1       1.813   7.824  18.388  0.00  0.00    +0.000 A 
BRANCH  14  19
ATOM     19  O   UNL     1      -0.188  12.215  21.240  0.00  0.00    +0.000 OA
ATOM     20  C   UNL     1      -1.588  12.460  21.174  0.00  0.00    +0.000 C 
ENDBRANCH  14  19
ENDBRANCH   5   9
BRANCH   1  21
ATOM     21  C   UNL     1       7.122   4.596  13.979  0.00  0.00    +0.000 C 
ATOM     22  O   UNL     1       8.104   5.248  14.291  0.00  0.00    +0.000 OA
BRANCH  21  23
ATOM     23  O   UNL     1       6.788   4.281  12.699  0.00  0.00    +0.000 OA
BRANCH  23  25
ATOM     24  C   UNL     1       4.692   3.397  11.766  0.00  0.00    +0.000 C 
ATOM     25  C   UNL     1       5.955   3.110  12.565  0.00  0.00    +0.000 C 
ENDBRANCH  23  25
ENDBRANCH  21  23
ENDBRANCH   1  21
BRANCH   8  26
ATOM     26  C   UNL     1       6.627   6.984  16.118  0.00  0.00    +0.000 C 
BRANCH  26  27
ATOM     27  C   UNL     1       7.456   7.355  17.354  0.00  0.00    +0.000 C 
ATOM     28  O   UNL     1       7.826   6.533  18.192  0.00  0.00    +0.000 OA
ATOM     29  N   UNL     1       7.726   8.712  17.478  0.00  0.00    +0.000 N 
ATOM     30  H   UNL     1       7.789   9.251  16.619  0.00  0.00    +0.000 HD
BRANCH  29  31
ATOM     31  C   UNL     1       8.539   9.152  18.598  0.00  0.00    +0.000 C 
BRANCH  31  32
ATOM     32  C   UNL     1       9.346  10.433  18.371  0.00  0.00    +0.000 C 
ATOM     33  C   UNL     1       9.914  11.105  19.609  0.00  0.00    +0.000 C 
ATOM     34  C   UNL     1      10.122  12.518  19.114  0.00  0.00    +0.000 C 
ATOM     35  C   UNL     1       8.934  12.720  18.198  0.00  0.00    +0.000 C 
ATOM     36  O   UNL     1       8.550  11.429  17.701  0.00  0.00    +0.000 OA
ENDBRANCH  31  32
ENDBRANCH  29  31
ENDBRANCH  26  27
ENDBRANCH   8  26
TORSDOF 9
ENDMDL
MODEL 5
REMARK VINA RESULT:      -6.7      3.464     10.333
REMARK  Name = 
REMARK  11 active torsions:
REMARK  status: ('A' for Active; 'I' for Inactive)
REMARK    1  A    between atoms: C_1  and  C_2
REMARK    2  A    between atoms: C_2  and  O_3
REMARK    3  A    between atoms: O_3  and  C_4
REMARK    4  A    between atoms: C_4  and  C_6
REMARK    5  A    between atoms: C_10  and  C_11
REMARK    6  A    between atoms: C_16  and  O_17
REMARK    7  A    between atoms: O_17  and  C_18
REMARK    8  A    between atoms: N_25  and  C_26
REMARK    9  A    between atoms: C_26  and  C_27
REMARK   10  A    between atoms: N_29  and  C_30
REMARK   11  A    between atoms: C_30  and  C_31
REMARK                            x       y       z     vdW  Elec       q    Type
REMARK                         _______ _______ _______ _____ _____    ______ ____
ROOT
ATOM      1  C   UNL     1       5.374   3.842  16.114  0.00  0.00    +0.000 C 
ATOM      2  C   UNL     1       4.762   4.726  16.928  0.00  0.00    +0.000 A 
ATOM      3  S   UNL     1       3.570   4.112  18.080  0.00  0.00    +0.000 S 
ATOM      4  C   UNL     1       3.131   5.710  18.589  0.00  0.00    +0.000 A 
ATOM      5  C   UNL     1       2.113   5.982  19.425  0.00  0.00    +0.000 C 
ATOM      6  C   UNL     1       4.025   6.719  17.959  0.00  0.00    +0.000 A 
ATOM      7  O   UNL     1       4.004   7.917  18.207  0.00  0.00    +0.000 OA
ATOM      8  N   UNL     1       4.874   6.104  17.042  0.00  0.00    +0.000 N 
ENDROOT
BRANCH   5   9
ATOM      9  C   UNL     1       1.720   7.333  19.856  0.00  0.00    +0.000 A 
ATOM     10  C   UNL     1       1.664   7.665  21.213  0.00  0.00    +0.000 A 
ATOM     11  C   UNL     1       1.197   8.925  21.617  0.00  0.00    +0.000 A 
ATOM     12  C   UNL     1       0.774   9.880  20.675  0.00  0.00    +0.000 A 
ATOM     13  C   UNL     1       0.275  11.136  21.065  0.00  0.00    +0.000 A 
ATOM     14  C   UNL     1      -0.152  12.077  20.121  0.00  0.00    +0.000 A 
ATOM     15  C   UNL     1      -0.070  11.762  18.767  0.00  0.00    +0.000 A 
ATOM     16  C   UNL     1       0.426  10.514  18.365  0.00  0.00    +0.000 A 
ATOM     17  C   UNL     1       0.850   9.561  19.304  0.00  0.00    +0.000 A 
ATOM     18  C   UNL     1       1.323   8.289  18.908  0.00  0.00    +0.000 A 
BRANCH  14  19
ATOM     19  O   UNL     1      -0.624  13.248  20.648  0.00  0.00    +0.000 OA
ATOM     20  C   UNL     1      -1.981  13.266  21.077  0.00  0.00    +0.000 C 
ENDBRANCH  14  19
ENDBRANCH   5   9
BRANCH   1  21
ATOM     21  C   UNL     1       6.271   4.090  14.963  0.00  0.00    +0.000 C 
ATOM     22  O   UNL     1       7.456   4.369  15.036  0.00  0.00    +0.000 OA
BRANCH  21  23
ATOM     23  O   UNL     1       5.570   4.028  13.799  0.00  0.00    +0.000 OA
BRANCH  23  25
ATOM     24  C   UNL     1       5.538   2.691  11.736  0.00  0.00    +0.000 C 
ATOM     25  C   UNL     1       6.339   3.602  12.655  0.00  0.00    +0.000 C 
ENDBRANCH  23  25
ENDBRANCH  21  23
ENDBRANCH   1  21
BRANCH   8  26
ATOM     26  C   UNL     1       5.866   6.965  16.411  0.00  0.00    +0.000 C 
BRANCH  26  27
ATOM     27  C   UNL     1       7.145   7.170  17.232  0.00  0.00    +0.000 C 
ATOM     28  O   UNL     1       7.860   6.244  17.612  0.00  0.00    +0.000 OA
ATOM     29  N   UNL     1       7.414   8.494  17.553  0.00  0.00    +0.000 N 
ATOM     30  H   UNL     1       7.085   9.203  16.904  0.00  0.00    +0.000 HD
BRANCH  29  31
ATOM     31  C   UNL     1       8.627   8.789  18.297  0.00  0.00    +0.000 C 
BRANCH  31  32
ATOM     32  C   UNL     1       8.857  10.263  18.636  0.00  0.00    +0.000 C 
ATOM     33  C   UNL     1       9.938  10.980  17.844  0.00  0.00    +0.000 C 
ATOM     34  C   UNL     1      10.265  12.135  18.764  0.00  0.00    +0.000 C 
ATOM     35  C   UNL     1      10.138  11.506  20.135  0.00  0.00    +0.000 C 
ATOM     36  O   UNL     1       9.202  10.422  20.025  0.00  0.00    +0.000 OA
ENDBRANCH  31  32
ENDBRANCH  29  31
ENDBRANCH  26  27
ENDBRANCH   8  26
TORSDOF 9
ENDMDL
MODEL 6
REMARK VINA RESULT:      -6.7      2.149      4.424
REMARK  Name = 
REMARK  11 active torsions:
REMARK  status: ('A' for Active; 'I' for Inactive)
REMARK    1  A    between atoms: C_1  and  C_2
REMARK    2  A    between atoms: C_2  and  O_3
REMARK    3  A    between atoms: O_3  and  C_4
REMARK    4  A    between atoms: C_4  and  C_6
REMARK    5  A    between atoms: C_10  and  C_11
REMARK    6  A    between atoms: C_16  and  O_17
REMARK    7  A    between atoms: O_17  and  C_18
REMARK    8  A    between atoms: N_25  and  C_26
REMARK    9  A    between atoms: C_26  and  C_27
REMARK   10  A    between atoms: N_29  and  C_30
REMARK   11  A    between atoms: C_30  and  C_31
REMARK                            x       y       z     vdW  Elec       q    Type
REMARK                         _______ _______ _______ _____ _____    ______ ____
ROOT
ATOM      1  C   UNL     1       0.040  10.727  21.843  0.00  0.00    +0.000 C 
ATOM      2  C   UNL     1       0.568   9.755  21.071  0.00  0.00    +0.000 A 
ATOM      3  S   UNL     1       0.971   8.212  21.833  0.00  0.00    +0.000 S 
ATOM      4  C   UNL     1       1.701   7.604  20.383  0.00  0.00    +0.000 A 
ATOM      5  C   UNL     1       2.367   6.437  20.305  0.00  0.00    +0.000 C 
ATOM      6  C   UNL     1       1.497   8.557  19.260  0.00  0.00    +0.000 A 
ATOM      7  O   UNL     1       1.826   8.347  18.101  0.00  0.00    +0.000 OA
ATOM      8  N   UNL     1       0.891   9.724  19.723  0.00  0.00    +0.000 N 
ENDROOT
BRANCH   5   9
ATOM      9  C   UNL     1       3.003   5.914  19.086  0.00  0.00    +0.000 A 
ATOM     10  C   UNL     1       2.404   4.889  18.349  0.00  0.00    +0.000 A 
ATOM     11  C   UNL     1       3.063   4.332  17.242  0.00  0.00    +0.000 A 
ATOM     12  C   UNL     1       4.335   4.786  16.850  0.00  0.00    +0.000 A 
ATOM     13  C   UNL     1       5.022   4.217  15.761  0.00  0.00    +0.000 A 
ATOM     14  C   UNL     1       6.291   4.669  15.383  0.00  0.00    +0.000 A 
ATOM     15  C   UNL     1       6.879   5.711  16.097  0.00  0.00    +0.000 A 
ATOM     16  C   UNL     1       6.205   6.286  17.182  0.00  0.00    +0.000 A 
ATOM     17  C   UNL     1       4.934   5.836  17.574  0.00  0.00    +0.000 A 
ATOM     18  C   UNL     1       4.261   6.390  18.686  0.00  0.00    +0.000 A 
BRANCH  14  19
ATOM     19  O   UNL     1       6.842   4.014  14.315  0.00  0.00    +0.000 OA
ATOM     20  C   UNL     1       5.976   3.696  13.232  0.00  0.00    +0.000 C 
ENDBRANCH  14  19
ENDBRANCH   5   9
BRANCH   1  21
ATOM     21  C   UNL     1      -0.230  12.145  21.515  0.00  0.00    +0.000 C 
ATOM     22  O   UNL     1       0.546  13.070  21.681  0.00  0.00    +0.000 OA
BRANCH  21  23
ATOM     23  O   UNL     1      -1.504  12.286  21.059  0.00  0.00    +0.000 OA
BRANCH  23  25
ATOM     24  C   UNL     1      -3.019  12.415  22.990  0.00  0.00    +0.000 C 
ATOM     25  C   UNL     1      -2.334  13.159  21.853  0.00  0.00    +0.000 C 
ENDBRANCH  23  25
ENDBRANCH  21  23
ENDBRANCH   1  21
BRANCH   8  26
ATOM     26  C   UNL     1       0.553  10.715  18.710  0.00  0.00    +0.000 C 
BRANCH  26  27
ATOM     27  C   UNL     1       1.659  11.741  18.432  0.00  0.00    +0.000 C 
ATOM     28  O   UNL     1       2.754  11.443  17.956  0.00  0.00    +0.000 OA
ATOM     29  N   UNL     1       1.341  13.042  18.800  0.00  0.00    +0.000 N 
ATOM     30  H   UNL     1       0.359  13.304  18.772  0.00  0.00    +0.000 HD
BRANCH  29  31
ATOM     31  C   UNL     1       2.313  14.089  18.538  0.00  0.00    +0.000 C 
BRANCH  31  32
ATOM     32  C   UNL     1       3.234  14.449  19.707  0.00  0.00    +0.000 C 
ATOM     33  C   UNL     1       2.801  15.617  20.576  0.00  0.00    +0.000 C 
ATOM     34  C   UNL     1       4.114  16.025  21.205  0.00  0.00    +0.000 C 
ATOM     35  C   UNL     1       5.099  15.795  20.079  0.00  0.00    +0.000 C 
ATOM     36  O   UNL     1       4.559  14.764  19.239  0.00  0.00    +0.000 OA
ENDBRANCH  31  32
ENDBRANCH  29  31
ENDBRANCH  26  27
ENDBRANCH   8  26
TORSDOF 9
ENDMDL
MODEL 7
REMARK VINA RESULT:      -6.7      1.113      1.306
REMARK  Name = 
REMARK  11 active torsions:
REMARK  status: ('A' for Active; 'I' for Inactive)
REMARK    1  A    between atoms: C_1  and  C_2
REMARK    2  A    between atoms: C_2  and  O_3
REMARK    3  A    between atoms: O_3  and  C_4
REMARK    4  A    between atoms: C_4  and  C_6
REMARK    5  A    between atoms: C_10  and  C_11
REMARK    6  A    between atoms: C_16  and  O_17
REMARK    7  A    between atoms: O_17  and  C_18
REMARK    8  A    between atoms: N_25  and  C_26
REMARK    9  A    between atoms: C_26  and  C_27
REMARK   10  A    between atoms: N_29  and  C_30
REMARK   11  A    between atoms: C_30  and  C_31
REMARK                            x       y       z     vdW  Elec       q    Type
REMARK                         _______ _______ _______ _____ _____    ______ ____
ROOT
ATOM      1  C   UNL     1      -0.559  11.731  21.239  0.00  0.00    +0.000 C 
ATOM      2  C   UNL     1      -0.029  10.625  20.678  0.00  0.00    +0.000 A 
ATOM      3  S   UNL     1       0.584   9.358  21.748  0.00  0.00    +0.000 S 
ATOM      4  C   UNL     1       1.214   8.440  20.419  0.00  0.00    +0.000 A 
ATOM      5  C   UNL     1       1.968   7.335  20.557  0.00  0.00    +0.000 C 
ATOM      6  C   UNL     1       0.815   9.057  19.127  0.00  0.00    +0.000 A 
ATOM      7  O   UNL     1       1.044   8.574  18.026  0.00  0.00    +0.000 OA
ATOM      8  N   UNL     1       0.159  10.265  19.352  0.00  0.00    +0.000 N 
ENDROOT
BRANCH   5   9
ATOM      9  C   UNL     1       2.522   6.553  19.441  0.00  0.00    +0.000 A 
ATOM     10  C   UNL     1       1.948   5.335  19.065  0.00  0.00    +0.000 A 
ATOM     11  C   UNL     1       2.538   4.551  18.062  0.00  0.00    +0.000 A 
ATOM     12  C   UNL     1       3.717   4.965  17.416  0.00  0.00    +0.000 A 
ATOM     13  C   UNL     1       4.339   4.176  16.430  0.00  0.00    +0.000 A 
ATOM     14  C   UNL     1       5.516   4.593  15.798  0.00  0.00    +0.000 A 
ATOM     15  C   UNL     1       6.075   5.819  16.148  0.00  0.00    +0.000 A 
ATOM     16  C   UNL     1       5.466   6.614  17.128  0.00  0.00    +0.000 A 
ATOM     17  C   UNL     1       4.288   6.203  17.773  0.00  0.00    +0.000 A 
ATOM     18  C   UNL     1       3.684   6.985  18.783  0.00  0.00    +0.000 A 
BRANCH  14  19
ATOM     19  O   UNL     1       6.012   3.717  14.870  0.00  0.00    +0.000 OA
ATOM     20  C   UNL     1       6.665   4.276  13.735  0.00  0.00    +0.000 C 
ENDBRANCH  14  19
ENDBRANCH   5   9
BRANCH   1  21
ATOM     21  C   UNL     1      -0.985  12.997  20.601  0.00  0.00    +0.000 C 
ATOM     22  O   UNL     1      -2.084  13.212  20.119  0.00  0.00    +0.000 OA
BRANCH  21  23
ATOM     23  O   UNL     1       0.052  13.877  20.567  0.00  0.00    +0.000 OA
BRANCH  23  25
ATOM     24  C   UNL     1      -0.500  15.121  22.614  0.00  0.00    +0.000 C 
ATOM     25  C   UNL     1      -0.246  15.178  21.115  0.00  0.00    +0.000 C 
ENDBRANCH  23  25
ENDBRANCH  21  23
ENDBRANCH   1  21
BRANCH   8  26
ATOM     26  C   UNL     1      -0.365  10.939  18.171  0.00  0.00    +0.000 C 
BRANCH  26  27
ATOM     27  C   UNL     1      -1.685  10.364  17.643  0.00  0.00    +0.000 C 
ATOM     28  O   UNL     1      -1.762   9.665  16.633  0.00  0.00    +0.000 OA
ATOM     29  N   UNL     1      -2.805  10.730  18.378  0.00  0.00    +0.000 N 
ATOM     30  H   UNL     1      -2.668  10.915  19.368  0.00  0.00    +0.000 HD
BRANCH  29  31
ATOM     31  C   UNL     1      -4.096  10.199  17.975  0.00  0.00    +0.000 C 
BRANCH  31  32
ATOM     32  C   UNL     1      -5.287  11.144  18.153  0.00  0.00    +0.000 C 
ATOM     33  C   UNL     1      -5.484  12.197  17.076  0.00  0.00    +0.000 C 
ATOM     34  C   UNL     1      -6.313  13.225  17.810  0.00  0.00    +0.000 C 
ATOM     35  C   UNL     1      -5.733  13.173  19.208  0.00  0.00    +0.000 C 
ATOM     36  O   UNL     1      -5.195  11.857  19.401  0.00  0.00    +0.000 OA
ENDBRANCH  31  32
ENDBRANCH  29  31
ENDBRANCH  26  27
ENDBRANCH   8  26
TORSDOF 9
ENDMDL
MODEL 8
REMARK VINA RESULT:      -6.6      1.771      3.850
REMARK  Name = 
REMARK  11 active torsions:
REMARK  status: ('A' for Active; 'I' for Inactive)
REMARK    1  A    between atoms: C_1  and  C_2
REMARK    2  A    between atoms: C_2  and  O_3
REMARK    3  A    between atoms: O_3  and  C_4
REMARK    4  A    between atoms: C_4  and  C_6
REMARK    5  A    between atoms: C_10  and  C_11
REMARK    6  A    between atoms: C_16  and  O_17
REMARK    7  A    between atoms: O_17  and  C_18
REMARK    8  A    between atoms: N_25  and  C_26
REMARK    9  A    between atoms: C_26  and  C_27
REMARK   10  A    between atoms: N_29  and  C_30
REMARK   11  A    between atoms: C_30  and  C_31
REMARK                            x       y       z     vdW  Elec       q    Type
REMARK                         _______ _______ _______ _____ _____    ______ ____
ROOT
ATOM      1  C   UNL     1      -0.094  11.294  21.963  0.00  0.00    +0.000 C 
ATOM      2  C   UNL     1       0.377  10.260  21.238  0.00  0.00    +0.000 A 
ATOM      3  S   UNL     1       0.694   8.733  22.070  0.00  0.00    +0.000 S 
ATOM      4  C   UNL     1       1.388   8.019  20.651  0.00  0.00    +0.000 A 
ATOM      5  C   UNL     1       1.987   6.815  20.628  0.00  0.00    +0.000 C 
ATOM      6  C   UNL     1       1.237   8.930  19.485  0.00  0.00    +0.000 A 
ATOM      7  O   UNL     1       1.554   8.649  18.338  0.00  0.00    +0.000 OA
ATOM      8  N   UNL     1       0.698  10.149  19.893  0.00  0.00    +0.000 N 
ENDROOT
BRANCH   5   9
ATOM      9  C   UNL     1       2.593   6.202  19.436  0.00  0.00    +0.000 A 
ATOM     10  C   UNL     1       1.954   5.153  18.767  0.00  0.00    +0.000 A 
ATOM     11  C   UNL     1       2.583   4.512  17.688  0.00  0.00    +0.000 A 
ATOM     12  C   UNL     1       3.863   4.903  17.257  0.00  0.00    +0.000 A 
ATOM     13  C   UNL     1       4.520   4.250  16.197  0.00  0.00    +0.000 A 
ATOM     14  C   UNL     1       5.797   4.640  15.780  0.00  0.00    +0.000 A 
ATOM     15  C   UNL     1       6.424   5.703  16.424  0.00  0.00    +0.000 A 
ATOM     16  C   UNL     1       5.781   6.362  17.481  0.00  0.00    +0.000 A 
ATOM     17  C   UNL     1       4.502   5.975  17.912  0.00  0.00    +0.000 A 
ATOM     18  C   UNL     1       3.860   6.614  18.996  0.00  0.00    +0.000 A 
BRANCH  14  19
ATOM     19  O   UNL     1       6.315   3.906  14.747  0.00  0.00    +0.000 OA
ATOM     20  C   UNL     1       7.056   4.612  13.758  0.00  0.00    +0.000 C 
ENDBRANCH  14  19
ENDBRANCH   5   9
BRANCH   1  21
ATOM     21  C   UNL     1      -0.285  12.708  21.570  0.00  0.00    +0.000 C 
ATOM     22  O   UNL     1       0.607  13.520  21.390  0.00  0.00    +0.000 OA
BRANCH  21  23
ATOM     23  O   UNL     1      -1.612  13.001  21.497  0.00  0.00    +0.000 OA
BRANCH  23  25
ATOM     24  C   UNL     1      -3.017  12.377  19.580  0.00  0.00    +0.000 C 
ATOM     25  C   UNL     1      -2.069  13.400  20.188  0.00  0.00    +0.000 C 
ENDBRANCH  23  25
ENDBRANCH  21  23
ENDBRANCH   1  21
BRANCH   8  26
ATOM     26  C   UNL     1       0.416  11.110  18.835  0.00  0.00    +0.000 C 
BRANCH  26  27
ATOM     27  C   UNL     1       1.576  12.062  18.515  0.00  0.00    +0.000 C 
ATOM     28  O   UNL     1       2.697  11.675  18.185  0.00  0.00    +0.000 OA
ATOM     29  N   UNL     1       1.272  13.409  18.668  0.00  0.00    +0.000 N 
ATOM     30  H   UNL     1       0.306  13.685  18.517  0.00  0.00    +0.000 HD
BRANCH  29  31
ATOM     31  C   UNL     1       2.299  14.386  18.350  0.00  0.00    +0.000 C 
BRANCH  31  32
ATOM     32  C   UNL     1       1.916  15.850  18.578  0.00  0.00    +0.000 C 
ATOM     33  C   UNL     1       2.843  16.663  19.466  0.00  0.00    +0.000 C 
ATOM     34  C   UNL     1       1.928  17.782  19.909  0.00  0.00    +0.000 C 
ATOM     35  C   UNL     1       0.598  17.074  20.060  0.00  0.00    +0.000 C 
ATOM     36  O   UNL     1       0.604  15.952  19.165  0.00  0.00    +0.000 OA
ENDBRANCH  31  32
ENDBRANCH  29  31
ENDBRANCH  26  27
ENDBRANCH   8  26
TORSDOF 9
ENDMDL
MODEL 9
REMARK VINA RESULT:      -6.5      1.601      2.235
REMARK  Name = 
REMARK  11 active torsions:
REMARK  status: ('A' for Active; 'I' for Inactive)
REMARK    1  A    between atoms: C_1  and  C_2
REMARK    2  A    between atoms: C_2  and  O_3
REMARK    3  A    between atoms: O_3  and  C_4
REMARK    4  A    between atoms: C_4  and  C_6
REMARK    5  A    between atoms: C_10  and  C_11
REMARK    6  A    between atoms: C_16  and  O_17
REMARK    7  A    between atoms: O_17  and  C_18
REMARK    8  A    between atoms: N_25  and  C_26
REMARK    9  A    between atoms: C_26  and  C_27
REMARK   10  A    between atoms: N_29  and  C_30
REMARK   11  A    between atoms: C_30  and  C_31
REMARK                            x       y       z     vdW  Elec       q    Type
REMARK                         _______ _______ _______ _____ _____    ______ ____
ROOT
ATOM      1  C   UNL     1      -0.928  12.873  21.003  0.00  0.00    +0.000 C 
ATOM      2  C   UNL     1      -0.452  11.659  20.658  0.00  0.00    +0.000 A 
ATOM      3  S   UNL     1       0.060  10.566  21.950  0.00  0.00    +0.000 S 
ATOM      4  C   UNL     1       0.664   9.398  20.821  0.00  0.00    +0.000 A 
ATOM      5  C   UNL     1       1.348   8.294  21.172  0.00  0.00    +0.000 C 
ATOM      6  C   UNL     1       0.330   9.801  19.429  0.00  0.00    +0.000 A 
ATOM      7  O   UNL     1       0.554   9.122  18.436  0.00  0.00    +0.000 OA
ATOM      8  N   UNL     1      -0.257  11.064  19.421  0.00  0.00    +0.000 N 
ENDROOT
BRANCH   5   9
ATOM      9  C   UNL     1       1.879   7.300  20.225  0.00  0.00    +0.000 A 
ATOM     10  C   UNL     1       1.619   5.937  20.398  0.00  0.00    +0.000 A 
ATOM     11  C   UNL     1       2.207   4.989  19.545  0.00  0.00    +0.000 A 
ATOM     12  C   UNL     1       3.068   5.383  18.506  0.00  0.00    +0.000 A 
ATOM     13  C   UNL     1       3.690   4.443  17.662  0.00  0.00    +0.000 A 
ATOM     14  C   UNL     1       4.551   4.843  16.635  0.00  0.00    +0.000 A 
ATOM     15  C   UNL     1       4.789   6.202  16.441  0.00  0.00    +0.000 A 
ATOM     16  C   UNL     1       4.176   7.148  17.274  0.00  0.00    +0.000 A 
ATOM     17  C   UNL     1       3.315   6.757  18.312  0.00  0.00    +0.000 A 
ATOM     18  C   UNL     1       2.717   7.703  19.174  0.00  0.00    +0.000 A 
BRANCH  14  19
ATOM     19  O   UNL     1       5.092   3.820  15.904  0.00  0.00    +0.000 OA
ATOM     20  C   UNL     1       6.156   4.147  15.018  0.00  0.00    +0.000 C 
ENDBRANCH  14  19
ENDBRANCH   5   9
BRANCH   1  21
ATOM     21  C   UNL     1      -1.264  14.030  20.143  0.00  0.00    +0.000 C 
ATOM     22  O   UNL     1      -0.522  14.539  19.320  0.00  0.00    +0.000 OA
BRANCH  21  23
ATOM     23  O   UNL     1      -2.505  14.496  20.446  0.00  0.00    +0.000 OA
BRANCH  23  25
ATOM     24  C   UNL     1      -2.854  15.778  22.514  0.00  0.00    +0.000 C 
ATOM     25  C   UNL     1      -2.855  14.412  21.843  0.00  0.00    +0.000 C 
ENDBRANCH  23  25
ENDBRANCH  21  23
ENDBRANCH   1  21
BRANCH   8  26
ATOM     26  C   UNL     1      -0.714  11.550  18.125  0.00  0.00    +0.000 C 
BRANCH  26  27
ATOM     27  C   UNL     1      -2.091  11.026  17.700  0.00  0.00    +0.000 C 
ATOM     28  O   UNL     1      -2.279   9.887  17.274  0.00  0.00    +0.000 OA
ATOM     29  N   UNL     1      -3.115  11.960  17.794  0.00  0.00    +0.000 N 
ATOM     30  H   UNL     1      -3.021  12.678  18.506  0.00  0.00    +0.000 HD
BRANCH  29  31
ATOM     31  C   UNL     1      -4.462  11.541  17.448  0.00  0.00    +0.000 C 
BRANCH  31  32
ATOM     32  C   UNL     1      -5.549  11.893  18.467  0.00  0.00    +0.000 C 
ATOM     33  C   UNL     1      -5.084  12.168  19.887  0.00  0.00    +0.000 C 
ATOM     34  C   UNL     1      -6.353  11.920  20.670  0.00  0.00    +0.000 C 
ATOM     35  C   UNL     1      -6.978  10.762  19.920  0.00  0.00    +0.000 C 
ATOM     36  O   UNL     1      -6.526  10.838  18.560  0.00  0.00    +0.000 OA
ENDBRANCH  31  32
ENDBRANCH  29  31
ENDBRANCH  26  27
ENDBRANCH   8  26
TORSDOF 9
ENDMDL
