MODEL 1
REMARK VINA RESULT:      -6.6      0.000      0.000
REMARK  Name = 
REMARK  3 active torsions:
REMARK  status: ('A' for Active; 'I' for Inactive)
REMARK    1  A    between atoms: C_4  and  C_5
REMARK    2  A    between atoms: C_5  and  N_6
REMARK    3  A    between atoms: N_9  and  C_10
REMARK                            x       y       z     vdW  Elec       q    Type
REMARK                         _______ _______ _______ _____ _____    ______ ____
ROOT
ATOM      1  N   UNL     1       5.496   5.232  16.661  0.00  0.00    +0.000 NA
ATOM      2  C   UNL     1       4.458   4.181  16.557  0.00  0.00    +0.000 C 
ATOM      3  C   UNL     1       4.483   3.073  17.644  0.00  0.00    +0.000 C 
ATOM      4  N   UNL     1       4.595   3.533  19.041  0.00  0.00    +0.000 NA
ATOM      5  C   UNL     1       5.591   4.609  19.149  0.00  0.00    +0.000 C 
ATOM      6  C   UNL     1       5.558   5.709  18.058  0.00  0.00    +0.000 C 
ENDROOT
BRANCH   4   7
ATOM      7  C   UNL     1       3.302   3.717  19.740  0.00  0.00    +0.000 C 
ATOM      8  C   UNL     1       3.124   2.907  21.032  0.00  0.00    +0.000 C 
ATOM      9  C   UNL     1       1.713   2.976  21.594  0.00  0.00    +0.000 C 
ATOM     10  O   UNL     1       0.743   2.685  20.594  0.00  0.00    +0.000 OA
ATOM     11  C   UNL     1       0.776   3.648  19.545  0.00  0.00    +0.000 C 
ATOM     12  C   UNL     1       2.095   3.553  18.791  0.00  0.00    +0.000 C 
ENDBRANCH   4   7
BRANCH   1  13
ATOM     13  C   UNL     1       6.821   4.752  16.223  0.00  0.00    +0.000 C 
BRANCH  13  17
ATOM     14  C   UNL     1       7.364   4.882  12.654  0.00  0.00    +0.000 A 
ATOM     15  C   UNL     1       6.543   3.779  12.717  0.00  0.00    +0.000 A 
ATOM     16  N   UNL     1       6.285   3.606  14.050  0.00  0.00    +0.000 N 
ATOM     17  C   UNL     1       6.925   4.607  14.737  0.00  0.00    +0.000 A 
ATOM     18  N   UNL     1       7.596   5.387  13.908  0.00  0.00    +0.000 NA
ATOM     19  H   UNL     1       5.733   2.874  14.477  0.00  0.00    +0.000 HD
ENDBRANCH  13  17
ENDBRANCH   1  13
TORSDOF 3
ENDMDL
MODEL 2
REMARK VINA RESULT:      -6.5      1.221      1.744
REMARK  Name = 
REMARK  3 active torsions:
REMARK  status: ('A' for Active; 'I' for Inactive)
REMARK    1  A    between atoms: C_4  and  C_5
REMARK    2  A    between atoms: C_5  and  N_6
REMARK    3  A    between atoms: N_9  and  C_10
REMARK                            x       y       z     vdW  Elec       q    Type
REMARK                         _______ _______ _______ _____ _____    ______ ____
ROOT
ATOM      1  N   UNL     1       6.260   4.222  16.431  0.00  0.00    +0.000 NA
ATOM      2  C   UNL     1       6.719   4.402  17.827  0.00  0.00    +0.000 C 
ATOM      3  C   UNL     1       6.066   5.561  18.627  0.00  0.00    +0.000 C 
ATOM      4  N   UNL     1       4.596   5.647  18.566  0.00  0.00    +0.000 NA
ATOM      5  C   UNL     1       4.125   5.425  17.191  0.00  0.00    +0.000 C 
ATOM      6  C   UNL     1       4.784   4.267  16.401  0.00  0.00    +0.000 C 
ENDROOT
BRANCH   4   7
ATOM      7  C   UNL     1       3.886   4.944  19.660  0.00  0.00    +0.000 C 
ATOM      8  C   UNL     1       3.961   3.411  19.623  0.00  0.00    +0.000 C 
ATOM      9  C   UNL     1       3.052   2.741  20.642  0.00  0.00    +0.000 C 
ATOM     10  O   UNL     1       1.728   3.255  20.571  0.00  0.00    +0.000 OA
ATOM     11  C   UNL     1       1.692   4.642  20.892  0.00  0.00    +0.000 C 
ATOM     12  C   UNL     1       2.435   5.442  19.832  0.00  0.00    +0.000 C 
ENDBRANCH   4   7
BRANCH   1  13
ATOM     13  C   UNL     1       6.823   5.241  15.523  0.00  0.00    +0.000 C 
BRANCH  13  17
ATOM     14  C   UNL     1       7.395   4.551  12.024  0.00  0.00    +0.000 A 
ATOM     15  C   UNL     1       6.530   3.522  12.318  0.00  0.00    +0.000 A 
ATOM     16  N   UNL     1       6.256   3.660  13.652  0.00  0.00    +0.000 N 
ATOM     17  C   UNL     1       6.931   4.764  14.109  0.00  0.00    +0.000 A 
ATOM     18  N   UNL     1       7.638   5.315  13.138  0.00  0.00    +0.000 NA
ATOM     19  H   UNL     1       5.673   3.063  14.222  0.00  0.00    +0.000 HD
ENDBRANCH  13  17
ENDBRANCH   1  13
TORSDOF 3
ENDMDL
MODEL 3
REMARK VINA RESULT:      -6.4      2.672      3.678
REMARK  Name = 
REMARK  3 active torsions:
REMARK  status: ('A' for Active; 'I' for Inactive)
REMARK    1  A    between atoms: C_4  and  C_5
REMARK    2  A    between atoms: C_5  and  N_6
REMARK    3  A    between atoms: N_9  and  C_10
REMARK                            x       y       z     vdW  Elec       q    Type
REMARK                         _______ _______ _______ _____ _____    ______ ____
ROOT
ATOM      1  N   UNL     1       6.088   5.180  18.603  0.00  0.00    +0.000 NA
ATOM      2  C   UNL     1       4.965   6.118  18.830  0.00  0.00    +0.000 C 
ATOM      3  C   UNL     1       3.838   6.119  17.762  0.00  0.00    +0.000 C 
ATOM      4  N   UNL     1       3.318   4.799  17.361  0.00  0.00    +0.000 NA
ATOM      5  C   UNL     1       4.423   3.846  17.176  0.00  0.00    +0.000 C 
ATOM      6  C   UNL     1       5.543   3.854  18.247  0.00  0.00    +0.000 C 
ENDROOT
BRANCH   4   7
ATOM      7  C   UNL     1       2.133   4.341  18.122  0.00  0.00    +0.000 C 
ATOM      8  C   UNL     1       2.039   4.840  19.570  0.00  0.00    +0.000 C 
ATOM      9  C   UNL     1       0.920   4.180  20.362  0.00  0.00    +0.000 C 
ATOM     10  O   UNL     1       0.969   2.763  20.243  0.00  0.00    +0.000 OA
ATOM     11  C   UNL     1       0.770   2.349  18.895  0.00  0.00    +0.000 C 
ATOM     12  C   UNL     1       1.932   2.812  18.029  0.00  0.00    +0.000 C 
ENDBRANCH   4   7
BRANCH   1  13
ATOM     13  C   UNL     1       7.007   5.656  17.550  0.00  0.00    +0.000 C 
BRANCH  13  17
ATOM     14  C   UNL     1       8.004   9.125  17.714  0.00  0.00    +0.000 A 
ATOM     15  C   UNL     1       8.711   8.636  18.790  0.00  0.00    +0.000 A 
ATOM     16  N   UNL     1       8.388   7.307  18.851  0.00  0.00    +0.000 N 
ATOM     17  C   UNL     1       7.531   7.033  17.815  0.00  0.00    +0.000 A 
ATOM     18  N   UNL     1       7.276   8.127  17.118  0.00  0.00    +0.000 NA
ATOM     19  H   UNL     1       8.702   6.632  19.534  0.00  0.00    +0.000 HD
ENDBRANCH  13  17
ENDBRANCH   1  13
TORSDOF 3
ENDMDL
MODEL 4
REMARK VINA RESULT:      -6.4      1.394      2.064
REMARK  Name = 
REMARK  3 active torsions:
REMARK  status: ('A' for Active; 'I' for Inactive)
REMARK    1  A    between atoms: C_4  and  C_5
REMARK    2  A    between atoms: C_5  and  N_6
REMARK    3  A    between atoms: N_9  and  C_10
REMARK                            x       y       z     vdW  Elec       q    Type
REMARK                         _______ _______ _______ _____ _____    ______ ____
ROOT
ATOM      1  N   UNL     1       5.012   5.549  17.531  0.00  0.00    +0.000 NA
ATOM      2  C   UNL     1       3.871   5.957  18.381  0.00  0.00    +0.000 C 
ATOM      3  C   UNL     1       2.520   5.237  18.120  0.00  0.00    +0.000 C 
ATOM      4  N   UNL     1       2.574   3.767  18.022  0.00  0.00    +0.000 NA
ATOM      5  C   UNL     1       3.731   3.348  17.217  0.00  0.00    +0.000 C 
ATOM      6  C   UNL     1       5.073   4.074  17.484  0.00  0.00    +0.000 C 
ENDROOT
BRANCH   4   7
ATOM      7  C   UNL     1       2.323   3.050  19.294  0.00  0.00    +0.000 C 
ATOM      8  C   UNL     1       1.261   3.674  20.210  0.00  0.00    +0.000 C 
ATOM      9  C   UNL     1       1.191   3.019  21.581  0.00  0.00    +0.000 C 
ATOM     10  O   UNL     1       2.480   2.923  22.175  0.00  0.00    +0.000 OA
ATOM     11  C   UNL     1       3.344   2.093  21.407  0.00  0.00    +0.000 C 
ATOM     12  C   UNL     1       3.628   2.741  20.060  0.00  0.00    +0.000 C 
ENDBRANCH   4   7
BRANCH   1  13
ATOM     13  C   UNL     1       4.916   6.101  16.165  0.00  0.00    +0.000 C 
BRANCH  13  17
ATOM     14  C   UNL     1       7.522   4.791  14.034  0.00  0.00    +0.000 A 
ATOM     15  C   UNL     1       6.445   4.102  13.523  0.00  0.00    +0.000 A 
ATOM     16  N   UNL     1       5.378   4.500  14.282  0.00  0.00    +0.000 N 
ATOM     17  C   UNL     1       5.829   5.419  15.196  0.00  0.00    +0.000 A 
ATOM     18  N   UNL     1       7.132   5.602  15.070  0.00  0.00    +0.000 NA
ATOM     19  H   UNL     1       4.422   4.180  14.209  0.00  0.00    +0.000 HD
ENDBRANCH  13  17
ENDBRANCH   1  13
TORSDOF 3
ENDMDL
MODEL 5
REMARK VINA RESULT:      -6.3      0.978      1.769
REMARK  Name = 
REMARK  3 active torsions:
REMARK  status: ('A' for Active; 'I' for Inactive)
REMARK    1  A    between atoms: C_4  and  C_5
REMARK    2  A    between atoms: C_5  and  N_6
REMARK    3  A    between atoms: N_9  and  C_10
REMARK                            x       y       z     vdW  Elec       q    Type
REMARK                         _______ _______ _______ _____ _____    ______ ____
ROOT
ATOM      1  N   UNL     1       5.911   4.241  16.813  0.00  0.00    +0.000 NA
ATOM      2  C   UNL     1       6.257   4.466  18.235  0.00  0.00    +0.000 C 
ATOM      3  C   UNL     1       5.418   5.531  18.992  0.00  0.00    +0.000 C 
ATOM      4  N   UNL     1       3.955   5.435  18.839  0.00  0.00    +0.000 NA
ATOM      5  C   UNL     1       3.600   5.167  17.438  0.00  0.00    +0.000 C 
ATOM      6  C   UNL     1       4.445   4.104  16.691  0.00  0.00    +0.000 C 
ENDROOT
BRANCH   4   7
ATOM      7  C   UNL     1       3.271   4.643  19.887  0.00  0.00    +0.000 C 
ATOM      8  C   UNL     1       3.852   3.247  20.150  0.00  0.00    +0.000 C 
ATOM      9  C   UNL     1       2.994   2.405  21.082  0.00  0.00    +0.000 C 
ATOM     10  O   UNL     1       1.634   2.394  20.664  0.00  0.00    +0.000 OA
ATOM     11  C   UNL     1       1.067   3.699  20.710  0.00  0.00    +0.000 C 
ATOM     12  C   UNL     1       1.741   4.597  19.682  0.00  0.00    +0.000 C 
ENDBRANCH   4   7
BRANCH   1  13
ATOM     13  C   UNL     1       6.398   5.327  15.941  0.00  0.00    +0.000 C 
BRANCH  13  17
ATOM     14  C   UNL     1       6.622   3.852  12.651  0.00  0.00    +0.000 A 
ATOM     15  C   UNL     1       7.656   4.755  12.564  0.00  0.00    +0.000 A 
ATOM     16  N   UNL     1       7.657   5.411  13.765  0.00  0.00    +0.000 N 
ATOM     17  C   UNL     1       6.656   4.876  14.538  0.00  0.00    +0.000 A 
ATOM     18  N   UNL     1       6.007   3.934  13.875  0.00  0.00    +0.000 NA
ATOM     19  H   UNL     1       8.267   6.164  14.052  0.00  0.00    +0.000 HD
ENDBRANCH  13  17
ENDBRANCH   1  13
TORSDOF 3
ENDMDL
MODEL 6
REMARK VINA RESULT:      -6.3      0.943      1.314
REMARK  Name = 
REMARK  3 active torsions:
REMARK  status: ('A' for Active; 'I' for Inactive)
REMARK    1  A    between atoms: C_4  and  C_5
REMARK    2  A    between atoms: C_5  and  N_6
REMARK    3  A    between atoms: N_9  and  C_10
REMARK                            x       y       z     vdW  Elec       q    Type
REMARK                         _______ _______ _______ _____ _____    ______ ____
ROOT
ATOM      1  N   UNL     1       5.988   5.570  16.785  0.00  0.00    +0.000 NA
ATOM      2  C   UNL     1       4.711   5.083  16.215  0.00  0.00    +0.000 C 
ATOM      3  C   UNL     1       4.184   3.726  16.754  0.00  0.00    +0.000 C 
ATOM      4  N   UNL     1       4.174   3.568  18.220  0.00  0.00    +0.000 NA
ATOM      5  C   UNL     1       5.419   4.090  18.803  0.00  0.00    +0.000 C 
ATOM      6  C   UNL     1       5.936   5.444  18.256  0.00  0.00    +0.000 C 
ENDROOT
BRANCH   4   7
ATOM      7  C   UNL     1       2.898   3.938  18.875  0.00  0.00    +0.000 C 
ATOM      8  C   UNL     1       3.024   4.823  20.123  0.00  0.00    +0.000 C 
ATOM      9  C   UNL     1       1.710   5.001  20.868  0.00  0.00    +0.000 C 
ATOM     10  O   UNL     1       1.080   3.749  21.112  0.00  0.00    +0.000 OA
ATOM     11  C   UNL     1       0.735   3.097  19.894  0.00  0.00    +0.000 C 
ATOM     12  C   UNL     1       1.995   2.712  19.133  0.00  0.00    +0.000 C 
ENDBRANCH   4   7
BRANCH   1  13
ATOM     13  C   UNL     1       7.153   4.840  16.248  0.00  0.00    +0.000 C 
BRANCH  13  17
ATOM     14  C   UNL     1       6.732   3.984  12.764  0.00  0.00    +0.000 A 
ATOM     15  C   UNL     1       7.568   5.070  12.630  0.00  0.00    +0.000 A 
ATOM     16  N   UNL     1       7.782   5.511  13.908  0.00  0.00    +0.000 N 
ATOM     17  C   UNL     1       7.103   4.678  14.761  0.00  0.00    +0.000 A 
ATOM     18  N   UNL     1       6.449   3.750  14.085  0.00  0.00    +0.000 NA
ATOM     19  H   UNL     1       8.330   6.310  14.196  0.00  0.00    +0.000 HD
ENDBRANCH  13  17
ENDBRANCH   1  13
TORSDOF 3
ENDMDL
MODEL 7
REMARK VINA RESULT:      -6.2      2.273      3.299
REMARK  Name = 
REMARK  3 active torsions:
REMARK  status: ('A' for Active; 'I' for Inactive)
REMARK    1  A    between atoms: C_4  and  C_5
REMARK    2  A    between atoms: C_5  and  N_6
REMARK    3  A    between atoms: N_9  and  C_10
REMARK                            x       y       z     vdW  Elec       q    Type
REMARK                         _______ _______ _______ _____ _____    ______ ____
ROOT
ATOM      1  N   UNL     1       4.999   5.617  17.414  0.00  0.00    +0.000 NA
ATOM      2  C   UNL     1       4.239   4.537  16.745  0.00  0.00    +0.000 C 
ATOM      3  C   UNL     1       4.463   3.097  17.282  0.00  0.00    +0.000 C 
ATOM      4  N   UNL     1       4.394   2.930  18.746  0.00  0.00    +0.000 NA
ATOM      5  C   UNL     1       5.107   4.023  19.423  0.00  0.00    +0.000 C 
ATOM      6  C   UNL     1       4.878   5.455  18.878  0.00  0.00    +0.000 C 
ENDROOT
BRANCH   4   7
ATOM      7  C   UNL     1       3.059   2.552  19.265  0.00  0.00    +0.000 C 
ATOM      8  C   UNL     1       1.879   2.818  18.320  0.00  0.00    +0.000 C 
ATOM      9  C   UNL     1       0.524   2.604  18.977  0.00  0.00    +0.000 C 
ATOM     10  O   UNL     1       0.435   3.296  20.217  0.00  0.00    +0.000 OA
ATOM     11  C   UNL     1       1.388   2.803  21.154  0.00  0.00    +0.000 C 
ATOM     12  C   UNL     1       2.798   3.118  20.678  0.00  0.00    +0.000 C 
ENDBRANCH   4   7
BRANCH   1  13
ATOM     13  C   UNL     1       6.420   5.628  17.016  0.00  0.00    +0.000 C 
BRANCH  13  17
ATOM     14  C   UNL     1       7.951   8.820  17.739  0.00  0.00    +0.000 A 
ATOM     15  C   UNL     1       8.547   8.057  18.718  0.00  0.00    +0.000 A 
ATOM     16  N   UNL     1       8.015   6.805  18.564  0.00  0.00    +0.000 N 
ATOM     17  C   UNL     1       7.150   6.843  17.499  0.00  0.00    +0.000 A 
ATOM     18  N   UNL     1       7.088   8.061  16.990  0.00  0.00    +0.000 NA
ATOM     19  H   UNL     1       8.203   5.986  19.126  0.00  0.00    +0.000 HD
ENDBRANCH  13  17
ENDBRANCH   1  13
TORSDOF 3
ENDMDL
MODEL 8
REMARK VINA RESULT:      -6.2      2.986      7.005
REMARK  Name = 
REMARK  3 active torsions:
REMARK  status: ('A' for Active; 'I' for Inactive)
REMARK    1  A    between atoms: C_4  and  C_5
REMARK    2  A    between atoms: C_5  and  N_6
REMARK    3  A    between atoms: N_9  and  C_10
REMARK                            x       y       z     vdW  Elec       q    Type
REMARK                         _______ _______ _______ _____ _____    ______ ____
ROOT
ATOM      1  N   UNL     1       5.099   5.941  18.022  0.00  0.00    +0.000 NA
ATOM      2  C   UNL     1       6.445   6.017  17.409  0.00  0.00    +0.000 C 
ATOM      3  C   UNL     1       6.976   4.720  16.741  0.00  0.00    +0.000 C 
ATOM      4  N   UNL     1       6.046   4.029  15.829  0.00  0.00    +0.000 NA
ATOM      5  C   UNL     1       4.695   3.987  16.407  0.00  0.00    +0.000 C 
ATOM      6  C   UNL     1       4.175   5.286  17.073  0.00  0.00    +0.000 C 
ENDROOT
BRANCH   4   7
ATOM      7  C   UNL     1       6.174   4.412  14.404  0.00  0.00    +0.000 C 
ATOM      8  C   UNL     1       5.721   3.354  13.388  0.00  0.00    +0.000 C 
ATOM      9  C   UNL     1       6.063   3.716  11.951  0.00  0.00    +0.000 C 
ATOM     10  O   UNL     1       7.430   4.089  11.823  0.00  0.00    +0.000 OA
ATOM     11  C   UNL     1       7.722   5.257  12.583  0.00  0.00    +0.000 C 
ATOM     12  C   UNL     1       7.578   4.962  14.069  0.00  0.00    +0.000 C 
ENDBRANCH   4   7
BRANCH   1  13
ATOM     13  C   UNL     1       5.112   5.216  19.307  0.00  0.00    +0.000 C 
BRANCH  13  17
ATOM     14  C   UNL     1       1.891   4.124  20.527  0.00  0.00    +0.000 A 
ATOM     15  C   UNL     1       1.733   5.485  20.659  0.00  0.00    +0.000 A 
ATOM     16  N   UNL     1       2.922   6.022  20.247  0.00  0.00    +0.000 N 
ATOM     17  C   UNL     1       3.740   4.989  19.861  0.00  0.00    +0.000 A 
ATOM     18  N   UNL     1       3.136   3.826  20.034  0.00  0.00    +0.000 NA
ATOM     19  H   UNL     1       3.180   6.999  20.229  0.00  0.00    +0.000 HD
ENDBRANCH  13  17
ENDBRANCH   1  13
TORSDOF 3
ENDMDL
MODEL 9
REMARK VINA RESULT:      -6.2      0.972      1.822
REMARK  Name = 
REMARK  3 active torsions:
REMARK  status: ('A' for Active; 'I' for Inactive)
REMARK    1  A    between atoms: C_4  and  C_5
REMARK    2  A    between atoms: C_5  and  N_6
REMARK    3  A    between atoms: N_9  and  C_10
REMARK                            x       y       z     vdW  Elec       q    Type
REMARK                         _______ _______ _______ _____ _____    ______ ____
ROOT
ATOM      1  N   UNL     1       6.432   4.207  16.798  0.00  0.00    +0.000 NA
ATOM      2  C   UNL     1       6.334   4.604  18.221  0.00  0.00    +0.000 C 
ATOM      3  C   UNL     1       5.101   5.458  18.619  0.00  0.00    +0.000 C 
ATOM      4  N   UNL     1       3.792   4.975  18.141  0.00  0.00    +0.000 NA
ATOM      5  C   UNL     1       3.887   4.535  16.742  0.00  0.00    +0.000 C 
ATOM      6  C   UNL     1       5.123   3.685  16.354  0.00  0.00    +0.000 C 
ENDROOT
BRANCH   4   7
ATOM      7  C   UNL     1       3.069   4.099  19.092  0.00  0.00    +0.000 C 
ATOM      8  C   UNL     1       1.781   3.458  18.556  0.00  0.00    +0.000 C 
ATOM      9  C   UNL     1       0.976   2.740  19.629  0.00  0.00    +0.000 C 
ATOM     10  O   UNL     1       0.777   3.569  20.768  0.00  0.00    +0.000 OA
ATOM     11  C   UNL     1       2.014   3.904  21.388  0.00  0.00    +0.000 C 
ATOM     12  C   UNL     1       2.843   4.779  20.460  0.00  0.00    +0.000 C 
ENDBRANCH   4   7
BRANCH   1  13
ATOM     13  C   UNL     1       6.856   5.326  15.934  0.00  0.00    +0.000 C 
BRANCH  13  17
ATOM     14  C   UNL     1       7.589   4.822  12.433  0.00  0.00    +0.000 A 
ATOM     15  C   UNL     1       6.730   3.766  12.638  0.00  0.00    +0.000 A 
ATOM     16  N   UNL     1       6.397   3.832  13.964  0.00  0.00    +0.000 N 
ATOM     17  C   UNL     1       7.032   4.923  14.504  0.00  0.00    +0.000 A 
ATOM     18  N   UNL     1       7.771   5.531  13.593  0.00  0.00    +0.000 NA
ATOM     19  H   UNL     1       5.800   3.199  14.478  0.00  0.00    +0.000 HD
ENDBRANCH  13  17
ENDBRANCH   1  13
TORSDOF 3
ENDMDL
