MODEL 1
REMARK VINA RESULT:      -7.2      0.000      0.000
REMARK  Name = 
REMARK  5 active torsions:
REMARK  status: ('A' for Active; 'I' for Inactive)
REMARK    1  A    between atoms: C_1  and  N_2
REMARK    2  A    between atoms: C_3  and  C_4
REMARK    3  A    between atoms: C_4  and  N_5
REMARK    4  A    between atoms: C_8  and  C_9
REMARK    5  A    between atoms: C_14  and  C_15
REMARK                            x       y       z     vdW  Elec       q    Type
REMARK                         _______ _______ _______ _____ _____    ______ ____
ROOT
ATOM      1  C   UNL     1       3.443   7.117  17.177  0.00  0.00    +0.000 C 
ATOM      2  N   UNL     1       2.859   6.636  18.413  0.00  0.00    +0.000 N 
ATOM      3  C   UNL     1       2.978   5.375  18.976  0.00  0.00    +0.000 A 
ATOM      4  C   UNL     1       2.292   5.435  20.190  0.00  0.00    +0.000 A 
ATOM      5  C   UNL     1       1.751   6.738  20.361  0.00  0.00    +0.000 A 
ATOM      6  C   UNL     1       0.997   7.373  21.372  0.00  0.00    +0.000 A 
ATOM      7  C   UNL     1       0.636   8.717  21.228  0.00  0.00    +0.000 A 
ATOM      8  C   UNL     1       1.014   9.433  20.097  0.00  0.00    +0.000 A 
ATOM      9  C   UNL     1       1.753   8.826  19.079  0.00  0.00    +0.000 A 
ATOM     10  C   UNL     1       2.116   7.473  19.235  0.00  0.00    +0.000 A 
ENDROOT
BRANCH   4  11
ATOM     11  C   UNL     1       2.184   4.362  21.137  0.00  0.00    +0.000 C 
ATOM     12  N   UNL     1       2.108   3.494  21.900  0.00  0.00    +0.000 NA
ENDBRANCH   4  11
BRANCH   3  13
ATOM     13  C   UNL     1       3.794   4.232  18.405  0.00  0.00    +0.000 C 
BRANCH  13  14
ATOM     14  N   UNL     1       5.264   4.354  18.458  0.00  0.00    +0.000 NA
ATOM     15  C   UNL     1       5.911   4.366  17.149  0.00  0.00    +0.000 C 
ATOM     16  C   UNL     1       7.427   4.597  17.159  0.00  0.00    +0.000 C 
ATOM     17  C   UNL     1       7.860   5.727  18.090  0.00  0.00    +0.000 C 
ATOM     18  C   UNL     1       7.248   5.509  19.470  0.00  0.00    +0.000 C 
ATOM     19  C   UNL     1       5.728   5.343  19.422  0.00  0.00    +0.000 C 
BRANCH  17  20
ATOM     20  C   UNL     1       7.557   7.112  17.531  0.00  0.00    +0.000 C 
ATOM     21  N   UNL     1       8.162   8.142  18.193  0.00  0.00    +0.000 N 
ATOM     22  O   UNL     1       6.807   7.340  16.589  0.00  0.00    +0.000 OA
ATOM     23  H   UNL     1       8.586   8.021  19.101  0.00  0.00    +0.000 HD
ATOM     24  H   UNL     1       7.902   9.080  17.913  0.00  0.00    +0.000 HD
ENDBRANCH  17  20
ENDBRANCH  13  14
ENDBRANCH   3  13
TORSDOF 4
ENDMDL
MODEL 2
REMARK VINA RESULT:      -7.0      1.730      2.266
REMARK  Name = 
REMARK  5 active torsions:
REMARK  status: ('A' for Active; 'I' for Inactive)
REMARK    1  A    between atoms: C_1  and  N_2
REMARK    2  A    between atoms: C_3  and  C_4
REMARK    3  A    between atoms: C_4  and  N_5
REMARK    4  A    between atoms: C_8  and  C_9
REMARK    5  A    between atoms: C_14  and  C_15
REMARK                            x       y       z     vdW  Elec       q    Type
REMARK                         _______ _______ _______ _____ _____    ______ ____
ROOT
ATOM      1  C   UNL     1       2.147   9.391  17.600  0.00  0.00    +0.000 C 
ATOM      2  N   UNL     1       1.901   8.541  18.747  0.00  0.00    +0.000 N 
ATOM      3  C   UNL     1       2.224   7.202  18.899  0.00  0.00    +0.000 A 
ATOM      4  C   UNL     1       1.840   6.863  20.197  0.00  0.00    +0.000 A 
ATOM      5  C   UNL     1       1.278   8.002  20.835  0.00  0.00    +0.000 A 
ATOM      6  C   UNL     1       0.747   8.260  22.117  0.00  0.00    +0.000 A 
ATOM      7  C   UNL     1       0.282   9.541  22.432  0.00  0.00    +0.000 A 
ATOM      8  C   UNL     1       0.340  10.565  21.492  0.00  0.00    +0.000 A 
ATOM      9  C   UNL     1       0.854  10.335  20.213  0.00  0.00    +0.000 A 
ATOM     10  C   UNL     1       1.323   9.041  19.907  0.00  0.00    +0.000 A 
ENDROOT
BRANCH   4  11
ATOM     11  C   UNL     1       2.022   5.578  20.809  0.00  0.00    +0.000 C 
ATOM     12  N   UNL     1       2.159   4.542  21.309  0.00  0.00    +0.000 NA
ENDBRANCH   4  11
BRANCH   3  13
ATOM     13  C   UNL     1       2.949   6.352  17.874  0.00  0.00    +0.000 C 
BRANCH  13  14
ATOM     14  N   UNL     1       4.408   6.195  18.031  0.00  0.00    +0.000 NA
ATOM     15  C   UNL     1       4.844   4.817  18.236  0.00  0.00    +0.000 C 
ATOM     16  C   UNL     1       6.360   4.601  18.298  0.00  0.00    +0.000 C 
ATOM     17  C   UNL     1       7.122   5.351  17.207  0.00  0.00    +0.000 C 
ATOM     18  C   UNL     1       6.695   6.814  17.205  0.00  0.00    +0.000 C 
ATOM     19  C   UNL     1       5.180   6.987  17.081  0.00  0.00    +0.000 C 
BRANCH  17  20
ATOM     20  C   UNL     1       6.991   4.703  15.833  0.00  0.00    +0.000 C 
ATOM     21  N   UNL     1       7.625   5.368  14.823  0.00  0.00    +0.000 N 
ATOM     22  O   UNL     1       6.345   3.690  15.594  0.00  0.00    +0.000 OA
ATOM     23  H   UNL     1       7.960   6.315  14.931  0.00  0.00    +0.000 HD
ATOM     24  H   UNL     1       7.474   5.024  13.883  0.00  0.00    +0.000 HD
ENDBRANCH  17  20
ENDBRANCH  13  14
ENDBRANCH   3  13
TORSDOF 4
ENDMDL
MODEL 3
REMARK VINA RESULT:      -6.8      3.087      5.704
REMARK  Name = 
REMARK  5 active torsions:
REMARK  status: ('A' for Active; 'I' for Inactive)
REMARK    1  A    between atoms: C_1  and  N_2
REMARK    2  A    between atoms: C_3  and  C_4
REMARK    3  A    between atoms: C_4  and  N_5
REMARK    4  A    between atoms: C_8  and  C_9
REMARK    5  A    between atoms: C_14  and  C_15
REMARK                            x       y       z     vdW  Elec       q    Type
REMARK                         _______ _______ _______ _____ _____    ______ ____
ROOT
ATOM      1  C   UNL     1       4.796   6.434  15.586  0.00  0.00    +0.000 C 
ATOM      2  N   UNL     1       5.193   5.800  16.827  0.00  0.00    +0.000 N 
ATOM      3  C   UNL     1       4.629   4.689  17.433  0.00  0.00    +0.000 A 
ATOM      4  C   UNL     1       5.406   4.437  18.565  0.00  0.00    +0.000 A 
ATOM      5  C   UNL     1       6.445   5.404  18.647  0.00  0.00    +0.000 A 
ATOM      6  C   UNL     1       7.514   5.638  19.539  0.00  0.00    +0.000 A 
ATOM      7  C   UNL     1       8.393   6.701  19.307  0.00  0.00    +0.000 A 
ATOM      8  C   UNL     1       8.221   7.531  18.203  0.00  0.00    +0.000 A 
ATOM      9  C   UNL     1       7.167   7.327  17.310  0.00  0.00    +0.000 A 
ATOM     10  C   UNL     1       6.290   6.250  17.550  0.00  0.00    +0.000 A 
ENDROOT
BRANCH   4  11
ATOM     11  C   UNL     1       5.215   3.348  19.480  0.00  0.00    +0.000 C 
ATOM     12  N   UNL     1       5.050   2.475  20.222  0.00  0.00    +0.000 NA
ENDBRANCH   4  11
BRANCH   3  13
ATOM     13  C   UNL     1       3.474   3.878  16.880  0.00  0.00    +0.000 C 
BRANCH  13  14
ATOM     14  N   UNL     1       2.264   3.760  17.716  0.00  0.00    +0.000 NA
ATOM     15  C   UNL     1       2.037   2.422  18.256  0.00  0.00    +0.000 C 
ATOM     16  C   UNL     1       0.849   2.285  19.215  0.00  0.00    +0.000 C 
ATOM     17  C   UNL     1       0.774   3.406  20.249  0.00  0.00    +0.000 C 
ATOM     18  C   UNL     1       0.859   4.754  19.542  0.00  0.00    +0.000 C 
ATOM     19  C   UNL     1       2.090   4.873  18.642  0.00  0.00    +0.000 C 
BRANCH  17  20
ATOM     20  C   UNL     1       1.808   3.265  21.360  0.00  0.00    +0.000 C 
ATOM     21  N   UNL     1       2.551   4.386  21.597  0.00  0.00    +0.000 N 
ATOM     22  O   UNL     1       2.022   2.238  21.993  0.00  0.00    +0.000 OA
ATOM     23  H   UNL     1       2.573   5.162  20.951  0.00  0.00    +0.000 HD
ATOM     24  H   UNL     1       3.315   4.297  22.255  0.00  0.00    +0.000 HD
ENDBRANCH  17  20
ENDBRANCH  13  14
ENDBRANCH   3  13
TORSDOF 4
ENDMDL
MODEL 4
REMARK VINA RESULT:      -6.4      3.023      6.395
REMARK  Name = 
REMARK  5 active torsions:
REMARK  status: ('A' for Active; 'I' for Inactive)
REMARK    1  A    between atoms: C_1  and  N_2
REMARK    2  A    between atoms: C_3  and  C_4
REMARK    3  A    between atoms: C_4  and  N_5
REMARK    4  A    between atoms: C_8  and  C_9
REMARK    5  A    between atoms: C_14  and  C_15
REMARK                            x       y       z     vdW  Elec       q    Type
REMARK                         _______ _______ _______ _____ _____    ______ ____
ROOT
ATOM      1  C   UNL     1       7.304   6.275  18.161  0.00  0.00    +0.000 C 
ATOM      2  N   UNL     1       6.230   5.572  17.490  0.00  0.00    +0.000 N 
ATOM      3  C   UNL     1       4.947   5.334  17.956  0.00  0.00    +0.000 A 
ATOM      4  C   UNL     1       4.280   4.681  16.918  0.00  0.00    +0.000 A 
ATOM      5  C   UNL     1       5.165   4.519  15.818  0.00  0.00    +0.000 A 
ATOM      6  C   UNL     1       5.050   3.961  14.526  0.00  0.00    +0.000 A 
ATOM      7  C   UNL     1       6.146   3.986  13.658  0.00  0.00    +0.000 A 
ATOM      8  C   UNL     1       7.352   4.555  14.058  0.00  0.00    +0.000 A 
ATOM      9  C   UNL     1       7.495   5.107  15.334  0.00  0.00    +0.000 A 
ATOM     10  C   UNL     1       6.382   5.081  16.199  0.00  0.00    +0.000 A 
ENDROOT
BRANCH   4  11
ATOM     11  C   UNL     1       2.904   4.274  16.940  0.00  0.00    +0.000 C 
ATOM     12  N   UNL     1       1.792   3.949  16.969  0.00  0.00    +0.000 NA
ENDBRANCH   4  11
BRANCH   3  13
ATOM     13  C   UNL     1       4.394   5.807  19.285  0.00  0.00    +0.000 C 
BRANCH  13  14
ATOM     14  N   UNL     1       3.785   4.794  20.168  0.00  0.00    +0.000 NA
ATOM     15  C   UNL     1       2.357   4.986  20.406  0.00  0.00    +0.000 C 
ATOM     16  C   UNL     1       1.668   3.894  21.232  0.00  0.00    +0.000 C 
ATOM     17  C   UNL     1       2.054   2.480  20.806  0.00  0.00    +0.000 C 
ATOM     18  C   UNL     1       3.573   2.363  20.754  0.00  0.00    +0.000 C 
ATOM     19  C   UNL     1       4.217   3.434  19.871  0.00  0.00    +0.000 C 
BRANCH  17  20
ATOM     20  C   UNL     1       1.391   2.045  19.504  0.00  0.00    +0.000 C 
ATOM     21  N   UNL     1       2.207   1.369  18.643  0.00  0.00    +0.000 N 
ATOM     22  O   UNL     1       0.233   2.293  19.190  0.00  0.00    +0.000 OA
ATOM     23  H   UNL     1       3.211   1.354  18.755  0.00  0.00    +0.000 HD
ATOM     24  H   UNL     1       1.830   1.156  17.728  0.00  0.00    +0.000 HD
ENDBRANCH  17  20
ENDBRANCH  13  14
ENDBRANCH   3  13
TORSDOF 4
ENDMDL
MODEL 5
REMARK VINA RESULT:      -6.3      2.469      6.685
REMARK  Name = 
REMARK  5 active torsions:
REMARK  status: ('A' for Active; 'I' for Inactive)
REMARK    1  A    between atoms: C_1  and  N_2
REMARK    2  A    between atoms: C_3  and  C_4
REMARK    3  A    between atoms: C_4  and  N_5
REMARK    4  A    between atoms: C_8  and  C_9
REMARK    5  A    between atoms: C_14  and  C_15
REMARK                            x       y       z     vdW  Elec       q    Type
REMARK                         _______ _______ _______ _____ _____    ______ ____
ROOT
ATOM      1  C   UNL     1       4.518   2.901  17.344  0.00  0.00    +0.000 C 
ATOM      2  N   UNL     1       5.362   4.020  16.977  0.00  0.00    +0.000 N 
ATOM      3  C   UNL     1       5.850   5.023  17.800  0.00  0.00    +0.000 A 
ATOM      4  C   UNL     1       6.662   5.818  16.989  0.00  0.00    +0.000 A 
ATOM      5  C   UNL     1       6.663   5.296  15.667  0.00  0.00    +0.000 A 
ATOM      6  C   UNL     1       7.295   5.660  14.458  0.00  0.00    +0.000 A 
ATOM      7  C   UNL     1       7.088   4.891  13.308  0.00  0.00    +0.000 A 
ATOM      8  C   UNL     1       6.264   3.770  13.346  0.00  0.00    +0.000 A 
ATOM      9  C   UNL     1       5.621   3.393  14.527  0.00  0.00    +0.000 A 
ATOM     10  C   UNL     1       5.840   4.172  15.682  0.00  0.00    +0.000 A 
ENDROOT
BRANCH   4  11
ATOM     11  C   UNL     1       7.413   6.959  17.430  0.00  0.00    +0.000 C 
ATOM     12  N   UNL     1       8.019   7.876  17.795  0.00  0.00    +0.000 NA
ENDBRANCH   4  11
BRANCH   3  13
ATOM     13  C   UNL     1       5.614   5.126  19.294  0.00  0.00    +0.000 C 
BRANCH  13  14
ATOM     14  N   UNL     1       4.216   5.213  19.756  0.00  0.00    +0.000 NA
ATOM     15  C   UNL     1       3.335   5.962  18.864  0.00  0.00    +0.000 C 
ATOM     16  C   UNL     1       1.854   5.984  19.257  0.00  0.00    +0.000 C 
ATOM     17  C   UNL     1       1.318   4.617  19.674  0.00  0.00    +0.000 C 
ATOM     18  C   UNL     1       2.239   4.012  20.728  0.00  0.00    +0.000 C 
ATOM     19  C   UNL     1       3.698   3.952  20.273  0.00  0.00    +0.000 C 
BRANCH  17  20
ATOM     20  C   UNL     1       1.088   3.679  18.494  0.00  0.00    +0.000 C 
ATOM     21  N   UNL     1       0.829   2.382  18.835  0.00  0.00    +0.000 N 
ATOM     22  O   UNL     1       1.158   4.005  17.315  0.00  0.00    +0.000 OA
ATOM     23  H   UNL     1       0.996   2.028  19.766  0.00  0.00    +0.000 HD
ATOM     24  H   UNL     1       0.773   1.713  18.077  0.00  0.00    +0.000 HD
ENDBRANCH  17  20
ENDBRANCH  13  14
ENDBRANCH   3  13
TORSDOF 4
ENDMDL
MODEL 6
REMARK VINA RESULT:      -6.2      3.285      4.939
REMARK  Name = 
REMARK  5 active torsions:
REMARK  status: ('A' for Active; 'I' for Inactive)
REMARK    1  A    between atoms: C_1  and  N_2
REMARK    2  A    between atoms: C_3  and  C_4
REMARK    3  A    between atoms: C_4  and  N_5
REMARK    4  A    between atoms: C_8  and  C_9
REMARK    5  A    between atoms: C_14  and  C_15
REMARK                            x       y       z     vdW  Elec       q    Type
REMARK                         _______ _______ _______ _____ _____    ______ ____
ROOT
ATOM      1  C   UNL     1       1.410   8.935  17.773  0.00  0.00    +0.000 C 
ATOM      2  N   UNL     1       0.881   9.350  19.056  0.00  0.00    +0.000 N 
ATOM      3  C   UNL     1       1.166   8.822  20.306  0.00  0.00    +0.000 A 
ATOM      4  C   UNL     1       0.461   9.606  21.220  0.00  0.00    +0.000 A 
ATOM      5  C   UNL     1      -0.258  10.613  20.520  0.00  0.00    +0.000 A 
ATOM      6  C   UNL     1      -1.107  11.674  20.905  0.00  0.00    +0.000 A 
ATOM      7  C   UNL     1      -1.648  12.519  19.931  0.00  0.00    +0.000 A 
ATOM      8  C   UNL     1      -1.357  12.322  18.584  0.00  0.00    +0.000 A 
ATOM      9  C   UNL     1      -0.526  11.275  18.176  0.00  0.00    +0.000 A 
ATOM     10  C   UNL     1       0.018  10.433  19.166  0.00  0.00    +0.000 A 
ENDROOT
BRANCH   4  11
ATOM     11  C   UNL     1       0.489   9.448  22.646  0.00  0.00    +0.000 C 
ATOM     12  N   UNL     1       0.501   9.322  23.797  0.00  0.00    +0.000 NA
ENDBRANCH   4  11
BRANCH   3  13
ATOM     13  C   UNL     1       2.140   7.693  20.581  0.00  0.00    +0.000 C 
BRANCH  13  14
ATOM     14  N   UNL     1       1.929   6.423  19.861  0.00  0.00    +0.000 NA
ATOM     15  C   UNL     1       3.026   6.047  18.973  0.00  0.00    +0.000 C 
ATOM     16  C   UNL     1       2.891   4.682  18.290  0.00  0.00    +0.000 C 
ATOM     17  C   UNL     1       2.435   3.574  19.236  0.00  0.00    +0.000 C 
ATOM     18  C   UNL     1       1.187   4.029  19.985  0.00  0.00    +0.000 C 
ATOM     19  C   UNL     1       1.383   5.365  20.703  0.00  0.00    +0.000 C 
BRANCH  17  20
ATOM     20  C   UNL     1       3.538   3.100  20.176  0.00  0.00    +0.000 C 
ATOM     21  N   UNL     1       4.787   3.067  19.626  0.00  0.00    +0.000 N 
ATOM     22  O   UNL     1       3.363   2.728  21.331  0.00  0.00    +0.000 OA
ATOM     23  H   UNL     1       4.936   3.134  18.628  0.00  0.00    +0.000 HD
ATOM     24  H   UNL     1       5.524   2.661  20.188  0.00  0.00    +0.000 HD
ENDBRANCH  17  20
ENDBRANCH  13  14
ENDBRANCH   3  13
TORSDOF 4
ENDMDL
MODEL 7
REMARK VINA RESULT:      -6.2      1.075      2.598
REMARK  Name = 
REMARK  5 active torsions:
REMARK  status: ('A' for Active; 'I' for Inactive)
REMARK    1  A    between atoms: C_1  and  N_2
REMARK    2  A    between atoms: C_3  and  C_4
REMARK    3  A    between atoms: C_4  and  N_5
REMARK    4  A    between atoms: C_8  and  C_9
REMARK    5  A    between atoms: C_14  and  C_15
REMARK                            x       y       z     vdW  Elec       q    Type
REMARK                         _______ _______ _______ _____ _____    ______ ____
ROOT
ATOM      1  C   UNL     1       2.036   4.762  21.152  0.00  0.00    +0.000 C 
ATOM      2  N   UNL     1       2.317   5.787  20.168  0.00  0.00    +0.000 N 
ATOM      3  C   UNL     1       3.092   5.678  19.024  0.00  0.00    +0.000 A 
ATOM      4  C   UNL     1       2.997   6.913  18.381  0.00  0.00    +0.000 A 
ATOM      5  C   UNL     1       2.162   7.776  19.141  0.00  0.00    +0.000 A 
ATOM      6  C   UNL     1       1.702   9.102  18.984  0.00  0.00    +0.000 A 
ATOM      7  C   UNL     1       0.846   9.658  19.940  0.00  0.00    +0.000 A 
ATOM      8  C   UNL     1       0.444   8.915  21.046  0.00  0.00    +0.000 A 
ATOM      9  C   UNL     1       0.892   7.604  21.229  0.00  0.00    +0.000 A 
ATOM     10  C   UNL     1       1.750   7.052  20.257  0.00  0.00    +0.000 A 
ENDROOT
BRANCH   4  11
ATOM     11  C   UNL     1       3.611   7.247  17.127  0.00  0.00    +0.000 C 
ATOM     12  N   UNL     1       4.113   7.523  16.121  0.00  0.00    +0.000 NA
ENDBRANCH   4  11
BRANCH   3  13
ATOM     13  C   UNL     1       3.790   4.417  18.552  0.00  0.00    +0.000 C 
BRANCH  13  14
ATOM     14  N   UNL     1       5.265   4.405  18.580  0.00  0.00    +0.000 NA
ATOM     15  C   UNL     1       5.889   4.454  17.261  0.00  0.00    +0.000 C 
ATOM     16  C   UNL     1       7.419   4.550  17.253  0.00  0.00    +0.000 C 
ATOM     17  C   UNL     1       7.966   5.568  18.250  0.00  0.00    +0.000 C 
ATOM     18  C   UNL     1       7.360   5.307  19.625  0.00  0.00    +0.000 C 
ATOM     19  C   UNL     1       5.831   5.279  19.600  0.00  0.00    +0.000 C 
BRANCH  17  20
ATOM     20  C   UNL     1       7.779   7.011  17.796  0.00  0.00    +0.000 C 
ATOM     21  N   UNL     1       7.098   7.159  16.622  0.00  0.00    +0.000 N 
ATOM     22  O   UNL     1       8.220   7.993  18.382  0.00  0.00    +0.000 OA
ATOM     23  H   UNL     1       6.931   6.383  15.997  0.00  0.00    +0.000 HD
ATOM     24  H   UNL     1       7.046   8.095  16.239  0.00  0.00    +0.000 HD
ENDBRANCH  17  20
ENDBRANCH  13  14
ENDBRANCH   3  13
TORSDOF 4
ENDMDL
MODEL 8
REMARK VINA RESULT:      -6.2      2.546      6.343
REMARK  Name = 
REMARK  5 active torsions:
REMARK  status: ('A' for Active; 'I' for Inactive)
REMARK    1  A    between atoms: C_1  and  N_2
REMARK    2  A    between atoms: C_3  and  C_4
REMARK    3  A    between atoms: C_4  and  N_5
REMARK    4  A    between atoms: C_8  and  C_9
REMARK    5  A    between atoms: C_14  and  C_15
REMARK                            x       y       z     vdW  Elec       q    Type
REMARK                         _______ _______ _______ _____ _____    ______ ____
ROOT
ATOM      1  C   UNL     1       7.527   6.753  17.304  0.00  0.00    +0.000 C 
ATOM      2  N   UNL     1       6.767   5.570  16.959  0.00  0.00    +0.000 N 
ATOM      3  C   UNL     1       5.972   4.796  17.790  0.00  0.00    +0.000 A 
ATOM      4  C   UNL     1       5.406   3.817  16.973  0.00  0.00    +0.000 A 
ATOM      5  C   UNL     1       5.863   3.996  15.639  0.00  0.00    +0.000 A 
ATOM      6  C   UNL     1       5.625   3.337  14.413  0.00  0.00    +0.000 A 
ATOM      7  C   UNL     1       6.241   3.800  13.245  0.00  0.00    +0.000 A 
ATOM      8  C   UNL     1       7.087   4.904  13.282  0.00  0.00    +0.000 A 
ATOM      9  C   UNL     1       7.346   5.568  14.484  0.00  0.00    +0.000 A 
ATOM     10  C   UNL     1       6.717   5.097  15.654  0.00  0.00    +0.000 A 
ENDROOT
BRANCH   4  11
ATOM     11  C   UNL     1       4.475   2.812  17.402  0.00  0.00    +0.000 C 
ATOM     12  N   UNL     1       3.730   2.000  17.758  0.00  0.00    +0.000 NA
ENDBRANCH   4  11
BRANCH   3  13
ATOM     13  C   UNL     1       5.713   5.068  19.259  0.00  0.00    +0.000 C 
BRANCH  13  14
ATOM     14  N   UNL     1       4.320   5.339  19.665  0.00  0.00    +0.000 NA
ATOM     15  C   UNL     1       3.523   6.025  18.650  0.00  0.00    +0.000 C 
ATOM     16  C   UNL     1       2.043   6.229  18.994  0.00  0.00    +0.000 C 
ATOM     17  C   UNL     1       1.383   4.986  19.585  0.00  0.00    +0.000 C 
ATOM     18  C   UNL     1       2.229   4.462  20.740  0.00  0.00    +0.000 C 
ATOM     19  C   UNL     1       3.685   4.214  20.339  0.00  0.00    +0.000 C 
BRANCH  17  20
ATOM     20  C   UNL     1       1.090   3.911  18.543  0.00  0.00    +0.000 C 
ATOM     21  N   UNL     1       0.852   2.668  19.054  0.00  0.00    +0.000 N 
ATOM     22  O   UNL     1       1.095   4.091  17.331  0.00  0.00    +0.000 OA
ATOM     23  H   UNL     1       1.071   2.430  20.011  0.00  0.00    +0.000 HD
ATOM     24  H   UNL     1       0.756   1.911  18.388  0.00  0.00    +0.000 HD
ENDBRANCH  17  20
ENDBRANCH  13  14
ENDBRANCH   3  13
TORSDOF 4
ENDMDL
MODEL 9
REMARK VINA RESULT:      -6.2      2.938      6.698
REMARK  Name = 
REMARK  5 active torsions:
REMARK  status: ('A' for Active; 'I' for Inactive)
REMARK    1  A    between atoms: C_1  and  N_2
REMARK    2  A    between atoms: C_3  and  C_4
REMARK    3  A    between atoms: C_4  and  N_5
REMARK    4  A    between atoms: C_8  and  C_9
REMARK    5  A    between atoms: C_14  and  C_15
REMARK                            x       y       z     vdW  Elec       q    Type
REMARK                         _______ _______ _______ _____ _____    ______ ____
ROOT
ATOM      1  C   UNL     1       1.508   5.530  20.731  0.00  0.00    +0.000 C 
ATOM      2  N   UNL     1       2.328   5.363  19.548  0.00  0.00    +0.000 N 
ATOM      3  C   UNL     1       2.924   6.350  18.779  0.00  0.00    +0.000 A 
ATOM      4  C   UNL     1       3.656   5.679  17.798  0.00  0.00    +0.000 A 
ATOM      5  C   UNL     1       3.500   4.277  17.973  0.00  0.00    +0.000 A 
ATOM      6  C   UNL     1       4.002   3.134  17.311  0.00  0.00    +0.000 A 
ATOM      7  C   UNL     1       3.655   1.859  17.769  0.00  0.00    +0.000 A 
ATOM      8  C   UNL     1       2.819   1.707  18.872  0.00  0.00    +0.000 A 
ATOM      9  C   UNL     1       2.303   2.821  19.539  0.00  0.00    +0.000 A 
ATOM     10  C   UNL     1       2.663   4.102  19.072  0.00  0.00    +0.000 A 
ENDROOT
BRANCH   4  11
ATOM     11  C   UNL     1       4.472   6.303  16.797  0.00  0.00    +0.000 C 
ATOM     12  N   UNL     1       5.132   6.798  15.983  0.00  0.00    +0.000 NA
ENDBRANCH   4  11
BRANCH   3  13
ATOM     13  C   UNL     1       2.856   7.839  19.055  0.00  0.00    +0.000 C 
BRANCH  13  14
ATOM     14  N   UNL     1       1.520   8.465  19.082  0.00  0.00    +0.000 NA
ATOM     15  C   UNL     1       1.154   9.040  20.374  0.00  0.00    +0.000 C 
ATOM     16  C   UNL     1      -0.181   9.792  20.411  0.00  0.00    +0.000 C 
ATOM     17  C   UNL     1      -0.382  10.728  19.222  0.00  0.00    +0.000 C 
ATOM     18  C   UNL     1      -0.128   9.964  17.927  0.00  0.00    +0.000 C 
ATOM     19  C   UNL     1       1.239   9.278  17.905  0.00  0.00    +0.000 C 
BRANCH  17  20
ATOM     20  C   UNL     1       0.447  12.004  19.318  0.00  0.00    +0.000 C 
ATOM     21  N   UNL     1       0.493  12.745  18.172  0.00  0.00    +0.000 N 
ATOM     22  O   UNL     1       1.074  12.360  20.309  0.00  0.00    +0.000 OA
ATOM     23  H   UNL     1       0.195  12.374  17.281  0.00  0.00    +0.000 HD
ATOM     24  H   UNL     1       1.116  13.543  18.169  0.00  0.00    +0.000 HD
ENDBRANCH  17  20
ENDBRANCH  13  14
ENDBRANCH   3  13
TORSDOF 4
ENDMDL
