MODEL 1
REMARK VINA RESULT:      -7.9      0.000      0.000
REMARK  Name = 
REMARK  5 active torsions:
REMARK  status: ('A' for Active; 'I' for Inactive)
REMARK    1  A    between atoms: C_1  and  C_2
REMARK    2  A    between atoms: C_2  and  C_3
REMARK    3  A    between atoms: C_2  and  C_4
REMARK    4  A    between atoms: C_2  and  N_5
REMARK    5  A    between atoms: C_10  and  C_11
REMARK                            x       y       z     vdW  Elec       q    Type
REMARK                         _______ _______ _______ _____ _____    ______ ____
ROOT
ATOM      1  N   UNL     1       4.970   3.782  16.391  0.00  0.00    +0.000 N 
ATOM      2  C   UNL     1       4.178   4.276  17.398  0.00  0.00    +0.000 A 
ATOM      3  N   UNL     1       3.823   5.527  17.457  0.00  0.00    +0.000 NA
ATOM      4  C   UNL     1       3.044   5.890  18.560  0.00  0.00    +0.000 A 
ATOM      5  C   UNL     1       2.567   7.197  18.792  0.00  0.00    +0.000 A 
ATOM      6  C   UNL     1       1.850   7.281  19.979  0.00  0.00    +0.000 A 
ATOM      7  S   UNL     1       1.796   5.734  20.762  0.00  0.00    +0.000 S 
ATOM      8  C   UNL     1       2.686   5.006  19.531  0.00  0.00    +0.000 A 
ATOM      9  C   UNL     1       3.064   3.629  19.471  0.00  0.00    +0.000 A 
ATOM     10  O   UNL     1       2.804   2.757  20.295  0.00  0.00    +0.000 OA
ATOM     11  N   UNL     1       3.807   3.341  18.344  0.00  0.00    +0.000 N 
ATOM     12  H   UNL     1       5.292   2.835  16.538  0.00  0.00    +0.000 HD
ATOM     13  H   UNL     1       4.098   2.385  18.266  0.00  0.00    +0.000 HD
ENDROOT
BRANCH   6  14
ATOM     14  C   UNL     1       1.216   8.462  20.601  0.00  0.00    +0.000 A 
ATOM     15  C   UNL     1       0.929   8.511  21.975  0.00  0.00    +0.000 A 
ATOM     16  C   UNL     1       0.341   9.642  22.551  0.00  0.00    +0.000 A 
ATOM     17  C   UNL     1       0.021  10.737  21.756  0.00  0.00    +0.000 A 
ATOM     18 CL   UNL     1      -0.698  12.129  22.466  0.00  0.00    +0.000 Cl
ATOM     19  C   UNL     1       0.280  10.710  20.389  0.00  0.00    +0.000 A 
ATOM     20  C   UNL     1       0.873   9.577  19.815  0.00  0.00    +0.000 A 
ENDBRANCH   6  14
BRANCH   1  22
ATOM     21  C   UNL     1       7.242   4.694  16.481  0.00  0.00    +0.000 C 
ATOM     22  C   UNL     1       5.955   4.590  15.648  0.00  0.00    +0.000 C 
ATOM     23  C   UNL     1       5.420   5.981  15.283  0.00  0.00    +0.000 C 
ATOM     24  C   UNL     1       6.277   3.853  14.333  0.00  0.00    +0.000 C 
ENDBRANCH   1  22
TORSDOF 2
ENDMDL
MODEL 2
REMARK VINA RESULT:      -7.9      0.084      1.028
REMARK  Name = 
REMARK  5 active torsions:
REMARK  status: ('A' for Active; 'I' for Inactive)
REMARK    1  A    between atoms: C_1  and  C_2
REMARK    2  A    between atoms: C_2  and  C_3
REMARK    3  A    between atoms: C_2  and  C_4
REMARK    4  A    between atoms: C_2  and  N_5
REMARK    5  A    between atoms: C_10  and  C_11
REMARK                            x       y       z     vdW  Elec       q    Type
REMARK                         _______ _______ _______ _____ _____    ______ ____
ROOT
ATOM      1  N   UNL     1       4.994   3.820  16.425  0.00  0.00    +0.000 N 
ATOM      2  C   UNL     1       4.201   4.315  17.430  0.00  0.00    +0.000 A 
ATOM      3  N   UNL     1       3.830   5.562  17.475  0.00  0.00    +0.000 NA
ATOM      4  C   UNL     1       3.052   5.929  18.577  0.00  0.00    +0.000 A 
ATOM      5  C   UNL     1       2.558   7.232  18.796  0.00  0.00    +0.000 A 
ATOM      6  C   UNL     1       1.846   7.321  19.986  0.00  0.00    +0.000 A 
ATOM      7  S   UNL     1       1.816   5.783  20.788  0.00  0.00    +0.000 S 
ATOM      8  C   UNL     1       2.710   5.052  19.561  0.00  0.00    +0.000 A 
ATOM      9  C   UNL     1       3.106   3.680  19.516  0.00  0.00    +0.000 A 
ATOM     10  O   UNL     1       2.861   2.814  20.352  0.00  0.00    +0.000 OA
ATOM     11  N   UNL     1       3.847   3.387  18.389  0.00  0.00    +0.000 N 
ATOM     12  H   UNL     1       5.330   2.879  16.582  0.00  0.00    +0.000 HD
ATOM     13  H   UNL     1       4.151   2.434  18.322  0.00  0.00    +0.000 HD
ENDROOT
BRANCH   6  14
ATOM     14  C   UNL     1       1.200   8.501  20.596  0.00  0.00    +0.000 A 
ATOM     15  C   UNL     1       0.733   9.575  19.820  0.00  0.00    +0.000 A 
ATOM     16  C   UNL     1       0.110  10.679  20.411  0.00  0.00    +0.000 A 
ATOM     17  C   UNL     1      -0.044  10.728  21.792  0.00  0.00    +0.000 A 
ATOM     18 CL   UNL     1      -0.814  12.083  22.519  0.00  0.00    +0.000 Cl
ATOM     19  C   UNL     1       0.422   9.685  22.587  0.00  0.00    +0.000 A 
ATOM     20  C   UNL     1       1.041   8.579  21.991  0.00  0.00    +0.000 A 
ENDBRANCH   6  14
BRANCH   1  22
ATOM     21  C   UNL     1       7.260   4.752  16.487  0.00  0.00    +0.000 C 
ATOM     22  C   UNL     1       5.965   4.631  15.668  0.00  0.00    +0.000 C 
ATOM     23  C   UNL     1       5.414   6.014  15.298  0.00  0.00    +0.000 C 
ATOM     24  C   UNL     1       6.281   3.888  14.354  0.00  0.00    +0.000 C 
ENDBRANCH   1  22
TORSDOF 2
ENDMDL
MODEL 3
REMARK VINA RESULT:      -7.1      1.697      2.078
REMARK  Name = 
REMARK  5 active torsions:
REMARK  status: ('A' for Active; 'I' for Inactive)
REMARK    1  A    between atoms: C_1  and  C_2
REMARK    2  A    between atoms: C_2  and  C_3
REMARK    3  A    between atoms: C_2  and  C_4
REMARK    4  A    between atoms: C_2  and  N_5
REMARK    5  A    between atoms: C_10  and  C_11
REMARK                            x       y       z     vdW  Elec       q    Type
REMARK                         _______ _______ _______ _____ _____    ______ ____
ROOT
ATOM      1  N   UNL     1       4.791   4.340  17.192  0.00  0.00    +0.000 N 
ATOM      2  C   UNL     1       3.973   5.180  17.907  0.00  0.00    +0.000 A 
ATOM      3  N   UNL     1       3.648   6.367  17.481  0.00  0.00    +0.000 NA
ATOM      4  C   UNL     1       2.836   7.121  18.334  0.00  0.00    +0.000 A 
ATOM      5  C   UNL     1       2.384   8.425  18.042  0.00  0.00    +0.000 A 
ATOM      6  C   UNL     1       1.623   8.951  19.079  0.00  0.00    +0.000 A 
ATOM      7  S   UNL     1       1.499   7.806  20.377  0.00  0.00    +0.000 S 
ATOM      8  C   UNL     1       2.418   6.664  19.546  0.00  0.00    +0.000 A 
ATOM      9  C   UNL     1       2.762   5.361  20.019  0.00  0.00    +0.000 A 
ATOM     10  O   UNL     1       2.447   4.860  21.095  0.00  0.00    +0.000 OA
ATOM     11  N   UNL     1       3.541   4.667  19.114  0.00  0.00    +0.000 N 
ATOM     12  H   UNL     1       5.083   3.513  17.695  0.00  0.00    +0.000 HD
ATOM     13  H   UNL     1       3.811   3.748  19.410  0.00  0.00    +0.000 HD
ENDROOT
BRANCH   6  14
ATOM     14  C   UNL     1       0.996  10.284  19.189  0.00  0.00    +0.000 A 
ATOM     15  C   UNL     1      -0.262  10.464  19.788  0.00  0.00    +0.000 A 
ATOM     16  C   UNL     1      -0.837  11.735  19.897  0.00  0.00    +0.000 A 
ATOM     17  C   UNL     1      -0.164  12.843  19.396  0.00  0.00    +0.000 A 
ATOM     18 CL   UNL     1      -0.868  14.406  19.534  0.00  0.00    +0.000 Cl
ATOM     19  C   UNL     1       1.077  12.692  18.784  0.00  0.00    +0.000 A 
ATOM     20  C   UNL     1       1.652  11.419  18.680  0.00  0.00    +0.000 A 
ENDBRANCH   6  14
BRANCH   1  22
ATOM     21  C   UNL     1       7.102   5.138  17.036  0.00  0.00    +0.000 C 
ATOM     22  C   UNL     1       5.825   4.805  16.249  0.00  0.00    +0.000 C 
ATOM     23  C   UNL     1       5.362   6.005  15.414  0.00  0.00    +0.000 C 
ATOM     24  C   UNL     1       6.132   3.649  15.277  0.00  0.00    +0.000 C 
ENDBRANCH   1  22
TORSDOF 2
ENDMDL
MODEL 4
REMARK VINA RESULT:      -7.1      2.664      3.543
REMARK  Name = 
REMARK  5 active torsions:
REMARK  status: ('A' for Active; 'I' for Inactive)
REMARK    1  A    between atoms: C_1  and  C_2
REMARK    2  A    between atoms: C_2  and  C_3
REMARK    3  A    between atoms: C_2  and  C_4
REMARK    4  A    between atoms: C_2  and  N_5
REMARK    5  A    between atoms: C_10  and  C_11
REMARK                            x       y       z     vdW  Elec       q    Type
REMARK                         _______ _______ _______ _____ _____    ______ ____
ROOT
ATOM      1  N   UNL     1       3.874   3.749  18.701  0.00  0.00    +0.000 N 
ATOM      2  C   UNL     1       3.396   5.032  18.810  0.00  0.00    +0.000 A 
ATOM      3  N   UNL     1       2.651   5.416  19.806  0.00  0.00    +0.000 NA
ATOM      4  C   UNL     1       2.210   6.742  19.763  0.00  0.00    +0.000 A 
ATOM      5  C   UNL     1       1.397   7.335  20.751  0.00  0.00    +0.000 A 
ATOM      6  C   UNL     1       1.081   8.651  20.438  0.00  0.00    +0.000 A 
ATOM      7  S   UNL     1       1.806   9.103  18.928  0.00  0.00    +0.000 S 
ATOM      8  C   UNL     1       2.517   7.587  18.740  0.00  0.00    +0.000 A 
ATOM      9  C   UNL     1       3.340   7.177  17.647  0.00  0.00    +0.000 A 
ATOM     10  O   UNL     1       3.666   7.853  16.675  0.00  0.00    +0.000 OA
ATOM     11  N   UNL     1       3.758   5.867  17.772  0.00  0.00    +0.000 N 
ATOM     12  H   UNL     1       4.314   3.540  17.815  0.00  0.00    +0.000 HD
ATOM     13  H   UNL     1       4.334   5.537  17.020  0.00  0.00    +0.000 HD
ENDROOT
BRANCH   6  14
ATOM     14  C   UNL     1       0.235   9.607  21.182  0.00  0.00    +0.000 A 
ATOM     15  C   UNL     1      -0.113   9.397  22.527  0.00  0.00    +0.000 A 
ATOM     16  C   UNL     1      -0.903  10.319  23.223  0.00  0.00    +0.000 A 
ATOM     17  C   UNL     1      -1.367  11.459  22.576  0.00  0.00    +0.000 A 
ATOM     18 CL   UNL     1      -2.335  12.594  23.432  0.00  0.00    +0.000 Cl
ATOM     19  C   UNL     1      -1.050  11.685  21.240  0.00  0.00    +0.000 A 
ATOM     20  C   UNL     1      -0.254  10.763  20.548  0.00  0.00    +0.000 A 
ENDBRANCH   6  14
BRANCH   1  22
ATOM     21  C   UNL     1       1.688   2.691  19.026  0.00  0.00    +0.000 C 
ATOM     22  C   UNL     1       3.200   2.569  19.272  0.00  0.00    +0.000 C 
ATOM     23  C   UNL     1       3.504   2.383  20.764  0.00  0.00    +0.000 C 
ATOM     24  C   UNL     1       3.721   1.322  18.531  0.00  0.00    +0.000 C 
ENDBRANCH   1  22
TORSDOF 2
ENDMDL
MODEL 5
REMARK VINA RESULT:      -7.1      1.667      2.196
REMARK  Name = 
REMARK  5 active torsions:
REMARK  status: ('A' for Active; 'I' for Inactive)
REMARK    1  A    between atoms: C_1  and  C_2
REMARK    2  A    between atoms: C_2  and  C_3
REMARK    3  A    between atoms: C_2  and  C_4
REMARK    4  A    between atoms: C_2  and  N_5
REMARK    5  A    between atoms: C_10  and  C_11
REMARK                            x       y       z     vdW  Elec       q    Type
REMARK                         _______ _______ _______ _____ _____    ______ ____
ROOT
ATOM      1  N   UNL     1       4.726   4.347  17.218  0.00  0.00    +0.000 N 
ATOM      2  C   UNL     1       3.914   5.186  17.942  0.00  0.00    +0.000 A 
ATOM      3  N   UNL     1       3.589   6.375  17.523  0.00  0.00    +0.000 NA
ATOM      4  C   UNL     1       2.783   7.127  18.382  0.00  0.00    +0.000 A 
ATOM      5  C   UNL     1       2.331   8.433  18.099  0.00  0.00    +0.000 A 
ATOM      6  C   UNL     1       1.577   8.956  19.142  0.00  0.00    +0.000 A 
ATOM      7  S   UNL     1       1.458   7.806  20.436  0.00  0.00    +0.000 S 
ATOM      8  C   UNL     1       2.370   6.666  19.595  0.00  0.00    +0.000 A 
ATOM      9  C   UNL     1       2.715   5.360  20.060  0.00  0.00    +0.000 A 
ATOM     10  O   UNL     1       2.405   4.854  21.136  0.00  0.00    +0.000 OA
ATOM     11  N   UNL     1       3.487   4.669  19.148  0.00  0.00    +0.000 N 
ATOM     12  H   UNL     1       5.019   3.517  17.716  0.00  0.00    +0.000 HD
ATOM     13  H   UNL     1       3.757   3.747  19.439  0.00  0.00    +0.000 HD
ENDROOT
BRANCH   6  14
ATOM     14  C   UNL     1       0.953  10.290  19.261  0.00  0.00    +0.000 A 
ATOM     15  C   UNL     1       1.568  11.444  18.748  0.00  0.00    +0.000 A 
ATOM     16  C   UNL     1       0.957  12.698  18.856  0.00  0.00    +0.000 A 
ATOM     17  C   UNL     1      -0.274  12.815  19.490  0.00  0.00    +0.000 A 
ATOM     18 CL   UNL     1      -1.027  14.356  19.619  0.00  0.00    +0.000 Cl
ATOM     19  C   UNL     1      -0.900  11.690  20.020  0.00  0.00    +0.000 A 
ATOM     20  C   UNL     1      -0.288  10.435  19.907  0.00  0.00    +0.000 A 
ENDBRANCH   6  14
BRANCH   1  22
ATOM     21  C   UNL     1       7.081   4.994  17.027  0.00  0.00    +0.000 C 
ATOM     22  C   UNL     1       5.755   4.814  16.272  0.00  0.00    +0.000 C 
ATOM     23  C   UNL     1       5.350   6.107  15.552  0.00  0.00    +0.000 C 
ATOM     24  C   UNL     1       5.943   3.723  15.200  0.00  0.00    +0.000 C 
ENDBRANCH   1  22
TORSDOF 2
ENDMDL
MODEL 6
REMARK VINA RESULT:      -7.0      2.681      3.714
REMARK  Name = 
REMARK  5 active torsions:
REMARK  status: ('A' for Active; 'I' for Inactive)
REMARK    1  A    between atoms: C_1  and  C_2
REMARK    2  A    between atoms: C_2  and  C_3
REMARK    3  A    between atoms: C_2  and  C_4
REMARK    4  A    between atoms: C_2  and  N_5
REMARK    5  A    between atoms: C_10  and  C_11
REMARK                            x       y       z     vdW  Elec       q    Type
REMARK                         _______ _______ _______ _____ _____    ______ ____
ROOT
ATOM      1  N   UNL     1       3.790   3.758  18.684  0.00  0.00    +0.000 N 
ATOM      2  C   UNL     1       3.331   5.048  18.796  0.00  0.00    +0.000 A 
ATOM      3  N   UNL     1       2.575   5.436  19.782  0.00  0.00    +0.000 NA
ATOM      4  C   UNL     1       2.158   6.770  19.743  0.00  0.00    +0.000 A 
ATOM      5  C   UNL     1       1.338   7.368  20.723  0.00  0.00    +0.000 A 
ATOM      6  C   UNL     1       1.050   8.692  20.415  0.00  0.00    +0.000 A 
ATOM      7  S   UNL     1       1.808   9.144  18.922  0.00  0.00    +0.000 S 
ATOM      8  C   UNL     1       2.496   7.618  18.733  0.00  0.00    +0.000 A 
ATOM      9  C   UNL     1       3.331   7.203  17.651  0.00  0.00    +0.000 A 
ATOM     10  O   UNL     1       3.685   7.882  16.691  0.00  0.00    +0.000 OA
ATOM     11  N   UNL     1       3.725   5.885  17.771  0.00  0.00    +0.000 N 
ATOM     12  H   UNL     1       4.241   3.549  17.804  0.00  0.00    +0.000 HD
ATOM     13  H   UNL     1       4.308   5.551  17.027  0.00  0.00    +0.000 HD
ENDROOT
BRANCH   6  14
ATOM     14  C   UNL     1       0.207   9.656  21.153  0.00  0.00    +0.000 A 
ATOM     15  C   UNL     1      -0.272  10.832  20.553  0.00  0.00    +0.000 A 
ATOM     16  C   UNL     1      -1.081  11.728  21.261  0.00  0.00    +0.000 A 
ATOM     17  C   UNL     1      -1.412  11.463  22.585  0.00  0.00    +0.000 A 
ATOM     18 CL   UNL     1      -2.410  12.562  23.454  0.00  0.00    +0.000 Cl
ATOM     19  C   UNL     1      -0.939  10.313  23.209  0.00  0.00    +0.000 A 
ATOM     20  C   UNL     1      -0.133   9.415  22.497  0.00  0.00    +0.000 A 
ENDBRANCH   6  14
BRANCH   1  22
ATOM     21  C   UNL     1       3.665   1.313  18.595  0.00  0.00    +0.000 C 
ATOM     22  C   UNL     1       3.086   2.585  19.233  0.00  0.00    +0.000 C 
ATOM     23  C   UNL     1       1.567   2.662  19.031  0.00  0.00    +0.000 C 
ATOM     24  C   UNL     1       3.353   2.540  20.751  0.00  0.00    +0.000 C 
ENDBRANCH   1  22
TORSDOF 2
ENDMDL
MODEL 7
REMARK VINA RESULT:      -6.9      1.501      2.001
REMARK  Name = 
REMARK  5 active torsions:
REMARK  status: ('A' for Active; 'I' for Inactive)
REMARK    1  A    between atoms: C_1  and  C_2
REMARK    2  A    between atoms: C_2  and  C_3
REMARK    3  A    between atoms: C_2  and  C_4
REMARK    4  A    between atoms: C_2  and  N_5
REMARK    5  A    between atoms: C_10  and  C_11
REMARK                            x       y       z     vdW  Elec       q    Type
REMARK                         _______ _______ _______ _____ _____    ______ ____
ROOT
ATOM      1  N   UNL     1       4.953   4.603  17.350  0.00  0.00    +0.000 N 
ATOM      2  C   UNL     1       4.051   5.317  18.098  0.00  0.00    +0.000 A 
ATOM      3  N   UNL     1       3.644   6.505  17.753  0.00  0.00    +0.000 NA
ATOM      4  C   UNL     1       2.750   7.124  18.632  0.00  0.00    +0.000 A 
ATOM      5  C   UNL     1       2.202   8.407  18.426  0.00  0.00    +0.000 A 
ATOM      6  C   UNL     1       1.373   8.789  19.473  0.00  0.00    +0.000 A 
ATOM      7  S   UNL     1       1.304   7.539  20.674  0.00  0.00    +0.000 S 
ATOM      8  C   UNL     1       2.335   6.542  19.791  0.00  0.00    +0.000 A 
ATOM      9  C   UNL     1       2.769   5.236  20.174  0.00  0.00    +0.000 A 
ATOM     10  O   UNL     1       2.466   4.628  21.197  0.00  0.00    +0.000 OA
ATOM     11  N   UNL     1       3.627   4.678  19.247  0.00  0.00    +0.000 N 
ATOM     12  H   UNL     1       5.296   3.763  17.797  0.00  0.00    +0.000 HD
ATOM     13  H   UNL     1       3.961   3.762  19.481  0.00  0.00    +0.000 HD
ENDROOT
BRANCH   6  14
ATOM     14  C   UNL     1       0.637  10.056  19.662  0.00  0.00    +0.000 A 
ATOM     15  C   UNL     1       0.831  10.863  20.796  0.00  0.00    +0.000 A 
ATOM     16  C   UNL     1       0.138  12.068  20.954  0.00  0.00    +0.000 A 
ATOM     17  C   UNL     1      -0.770  12.475  19.983  0.00  0.00    +0.000 A 
ATOM     18 CL   UNL     1      -1.620  13.959  20.175  0.00  0.00    +0.000 Cl
ATOM     19  C   UNL     1      -0.993  11.688  18.857  0.00  0.00    +0.000 A 
ATOM     20  C   UNL     1      -0.294  10.485  18.699  0.00  0.00    +0.000 A 
ENDBRANCH   6  14
BRANCH   1  22
ATOM     21  C   UNL     1       6.588   4.133  15.587  0.00  0.00    +0.000 C 
ATOM     22  C   UNL     1       5.973   5.220  16.482  0.00  0.00    +0.000 C 
ATOM     23  C   UNL     1       7.056   5.957  17.279  0.00  0.00    +0.000 C 
ATOM     24  C   UNL     1       5.266   6.255  15.585  0.00  0.00    +0.000 C 
ENDBRANCH   1  22
TORSDOF 2
ENDMDL
MODEL 8
REMARK VINA RESULT:      -6.9      3.337      4.553
REMARK  Name = 
REMARK  5 active torsions:
REMARK  status: ('A' for Active; 'I' for Inactive)
REMARK    1  A    between atoms: C_1  and  C_2
REMARK    2  A    between atoms: C_2  and  C_3
REMARK    3  A    between atoms: C_2  and  C_4
REMARK    4  A    between atoms: C_2  and  N_5
REMARK    5  A    between atoms: C_10  and  C_11
REMARK                            x       y       z     vdW  Elec       q    Type
REMARK                         _______ _______ _______ _____ _____    ______ ____
ROOT
ATOM      1  N   UNL     1       3.134   4.809  19.492  0.00  0.00    +0.000 N 
ATOM      2  C   UNL     1       2.628   6.085  19.478  0.00  0.00    +0.000 A 
ATOM      3  N   UNL     1       1.870   6.545  20.432  0.00  0.00    +0.000 NA
ATOM      4  C   UNL     1       1.401   7.851  20.264  0.00  0.00    +0.000 A 
ATOM      5  C   UNL     1       0.570   8.516  21.190  0.00  0.00    +0.000 A 
ATOM      6  C   UNL     1       0.227   9.790  20.753  0.00  0.00    +0.000 A 
ATOM      7  S   UNL     1       0.949  10.113  19.209  0.00  0.00    +0.000 S 
ATOM      8  C   UNL     1       1.694   8.602  19.167  0.00  0.00    +0.000 A 
ATOM      9  C   UNL     1       2.531   8.110  18.119  0.00  0.00    +0.000 A 
ATOM     10  O   UNL     1       2.847   8.698  17.089  0.00  0.00    +0.000 OA
ATOM     11  N   UNL     1       2.977   6.827  18.368  0.00  0.00    +0.000 N 
ATOM     12  H   UNL     1       3.583   4.527  18.631  0.00  0.00    +0.000 HD
ATOM     13  H   UNL     1       3.563   6.440  17.652  0.00  0.00    +0.000 HD
ENDROOT
BRANCH   6  14
ATOM     14  C   UNL     1      -0.643  10.792  21.402  0.00  0.00    +0.000 A 
ATOM     15  C   UNL     1      -1.170  11.884  20.694  0.00  0.00    +0.000 A 
ATOM     16  C   UNL     1      -2.005  12.817  21.319  0.00  0.00    +0.000 A 
ATOM     17  C   UNL     1      -2.313  12.676  22.667  0.00  0.00    +0.000 A 
ATOM     18 CL   UNL     1      -3.342  13.820  23.435  0.00  0.00    +0.000 Cl
ATOM     19  C   UNL     1      -1.792  11.611  23.397  0.00  0.00    +0.000 A 
ATOM     20  C   UNL     1      -0.961  10.676  22.767  0.00  0.00    +0.000 A 
ENDBRANCH   6  14
BRANCH   1  22
ATOM     21  C   UNL     1       1.111   3.426  19.522  0.00  0.00    +0.000 C 
ATOM     22  C   UNL     1       2.483   3.672  20.170  0.00  0.00    +0.000 C 
ATOM     23  C   UNL     1       2.349   3.889  21.682  0.00  0.00    +0.000 C 
ATOM     24  C   UNL     1       3.362   2.425  19.952  0.00  0.00    +0.000 C 
ENDBRANCH   1  22
TORSDOF 2
ENDMDL
MODEL 9
REMARK VINA RESULT:      -6.9      1.304      2.097
REMARK  Name = 
REMARK  5 active torsions:
REMARK  status: ('A' for Active; 'I' for Inactive)
REMARK    1  A    between atoms: C_1  and  C_2
REMARK    2  A    between atoms: C_2  and  C_3
REMARK    3  A    between atoms: C_2  and  C_4
REMARK    4  A    between atoms: C_2  and  N_5
REMARK    5  A    between atoms: C_10  and  C_11
REMARK                            x       y       z     vdW  Elec       q    Type
REMARK                         _______ _______ _______ _____ _____    ______ ____
ROOT
ATOM      1  N   UNL     1       4.723   4.244  17.167  0.00  0.00    +0.000 N 
ATOM      2  C   UNL     1       3.906   5.010  17.962  0.00  0.00    +0.000 A 
ATOM      3  N   UNL     1       3.548   6.218  17.634  0.00  0.00    +0.000 NA
ATOM      4  C   UNL     1       2.742   6.889  18.559  0.00  0.00    +0.000 A 
ATOM      5  C   UNL     1       2.257   8.201  18.377  0.00  0.00    +0.000 A 
ATOM      6  C   UNL     1       1.511   8.631  19.468  0.00  0.00    +0.000 A 
ATOM      7  S   UNL     1       1.441   7.391  20.678  0.00  0.00    +0.000 S 
ATOM      8  C   UNL     1       2.362   6.334  19.743  0.00  0.00    +0.000 A 
ATOM      9  C   UNL     1       2.744   5.006  20.108  0.00  0.00    +0.000 A 
ATOM     10  O   UNL     1       2.465   4.419  21.150  0.00  0.00    +0.000 OA
ATOM     11  N   UNL     1       3.514   4.399  19.136  0.00  0.00    +0.000 N 
ATOM     12  H   UNL     1       5.043   3.388  17.599  0.00  0.00    +0.000 HD
ATOM     13  H   UNL     1       3.809   3.466  19.356  0.00  0.00    +0.000 HD
ENDROOT
BRANCH   6  14
ATOM     14  C   UNL     1       0.861   9.939  19.692  0.00  0.00    +0.000 A 
ATOM     15  C   UNL     1       0.245  10.648  18.647  0.00  0.00    +0.000 A 
ATOM     16  C   UNL     1      -0.380  11.879  18.878  0.00  0.00    +0.000 A 
ATOM     17  C   UNL     1      -0.386  12.422  20.158  0.00  0.00    +0.000 A 
ATOM     18 CL   UNL     1      -1.158  13.932  20.443  0.00  0.00    +0.000 Cl
ATOM     19  C   UNL     1       0.228  11.747  21.209  0.00  0.00    +0.000 A 
ATOM     20  C   UNL     1       0.849  10.513  20.975  0.00  0.00    +0.000 A 
ENDBRANCH   6  14
BRANCH   1  22
ATOM     21  C   UNL     1       5.200   6.133  15.681  0.00  0.00    +0.000 C 
ATOM     22  C   UNL     1       5.724   4.800  16.239  0.00  0.00    +0.000 C 
ATOM     23  C   UNL     1       6.079   3.829  15.106  0.00  0.00    +0.000 C 
ATOM     24  C   UNL     1       7.012   5.074  17.040  0.00  0.00    +0.000 C 
ENDBRANCH   1  22
TORSDOF 2
ENDMDL
