MODEL 1
REMARK VINA RESULT:      -7.2      0.000      0.000
REMARK  Name = 
REMARK  4 active torsions:
REMARK  status: ('A' for Active; 'I' for Inactive)
REMARK    1  A    between atoms: C_1  and  S_2
REMARK    2  A    between atoms: S_2  and  N_5
REMARK    3  A    between atoms: N_15  and  C_16
REMARK    4  A    between atoms: C_20  and  C_21
REMARK                            x       y       z     vdW  Elec       q    Type
REMARK                         _______ _______ _______ _____ _____    ______ ____
ROOT
ATOM      1  N   UNL     1       6.133   4.469  16.684  0.00  0.00    +0.000 NA
ATOM      2  C   UNL     1       6.054   5.173  17.982  0.00  0.00    +0.000 C 
ATOM      3  C   UNL     1       4.670   5.758  18.202  0.00  0.00    +0.000 C 
ATOM      4  C   UNL     1       3.540   4.698  18.111  0.00  0.00    +0.000 C 
ATOM      5  C   UNL     1       3.530   3.753  19.344  0.00  0.00    +0.000 C 
ATOM      6  C   UNL     1       3.241   4.503  20.644  0.00  0.00    +0.000 C 
ATOM      7  C   UNL     1       1.961   5.325  20.529  0.00  0.00    +0.000 C 
ATOM      8  N   UNL     1       1.949   6.167  19.328  0.00  0.00    +0.000 N 
ATOM      9  C   UNL     1       1.798   7.537  19.507  0.00  0.00    +0.000 C 
ATOM     10  O   UNL     1       1.746   8.007  20.646  0.00  0.00    +0.000 OA
ATOM     11  N   UNL     1       1.699   8.305  18.365  0.00  0.00    +0.000 N 
ATOM     12  C   UNL     1       2.181   5.445  18.071  0.00  0.00    +0.000 C 
ATOM     13  C   UNL     1       3.718   3.864  16.816  0.00  0.00    +0.000 C 
ATOM     14  C   UNL     1       5.148   3.357  16.609  0.00  0.00    +0.000 C 
ATOM     15  H   UNL     1       1.425   7.827  17.522  0.00  0.00    +0.000 HD
ENDROOT
BRANCH  11  16
ATOM     16  C   UNL     1       1.570   9.719  18.339  0.00  0.00    +0.000 A 
ATOM     17  C   UNL     1       2.601  10.575  17.934  0.00  0.00    +0.000 A 
ATOM     18  C   UNL     1       2.466  11.962  18.015  0.00  0.00    +0.000 A 
ATOM     19  C   UNL     1       1.284  12.519  18.489  0.00  0.00    +0.000 A 
ATOM     20  C   UNL     1       0.225  11.684  18.856  0.00  0.00    +0.000 A 
ATOM     21  C   UNL     1       0.361  10.288  18.763  0.00  0.00    +0.000 A 
BRANCH  20  22
ATOM     22  C   UNL     1      -0.986  12.263  19.358  0.00  0.00    +0.000 C 
ATOM     23  N   UNL     1      -1.964  12.747  19.755  0.00  0.00    +0.000 NA
ENDBRANCH  20  22
ENDBRANCH  11  16
BRANCH   1  25
ATOM     24  C   UNL     1       5.966   4.208  13.972  0.00  0.00    +0.000 C 
ATOM     25  S   UNL     1       6.321   5.385  15.264  0.00  0.00    +0.000 S 
ATOM     26  O   UNL     1       7.706   5.789  15.153  0.00  0.00    +0.000 OA
ATOM     27  O   UNL     1       5.265   6.378  15.249  0.00  0.00    +0.000 OA
ENDBRANCH   1  25
TORSDOF 3
ENDMDL
MODEL 2
REMARK VINA RESULT:      -7.0      1.154      1.154
REMARK  Name = 
REMARK  4 active torsions:
REMARK  status: ('A' for Active; 'I' for Inactive)
REMARK    1  A    between atoms: C_1  and  S_2
REMARK    2  A    between atoms: S_2  and  N_5
REMARK    3  A    between atoms: N_15  and  C_16
REMARK    4  A    between atoms: C_20  and  C_21
REMARK                            x       y       z     vdW  Elec       q    Type
REMARK                         _______ _______ _______ _____ _____    ______ ____
ROOT
ATOM      1  N   UNL     1       6.286   4.677  17.172  0.00  0.00    +0.000 NA
ATOM      2  C   UNL     1       6.070   5.179  18.547  0.00  0.00    +0.000 C 
ATOM      3  C   UNL     1       4.656   5.706  18.720  0.00  0.00    +0.000 C 
ATOM      4  C   UNL     1       3.568   4.656  18.368  0.00  0.00    +0.000 C 
ATOM      5  C   UNL     1       3.472   3.538  19.442  0.00  0.00    +0.000 C 
ATOM      6  C   UNL     1       3.046   4.081  20.805  0.00  0.00    +0.000 C 
ATOM      7  C   UNL     1       1.760   4.894  20.693  0.00  0.00    +0.000 C 
ATOM      8  N   UNL     1       1.834   5.906  19.633  0.00  0.00    +0.000 N 
ATOM      9  C   UNL     1       1.631   7.231  19.998  0.00  0.00    +0.000 C 
ATOM     10  O   UNL     1       1.462   7.525  21.184  0.00  0.00    +0.000 OA
ATOM     11  N   UNL     1       1.615   8.160  18.978  0.00  0.00    +0.000 N 
ATOM     12  C   UNL     1       2.199   5.383  18.312  0.00  0.00    +0.000 C 
ATOM     13  C   UNL     1       3.885   4.028  16.987  0.00  0.00    +0.000 C 
ATOM     14  C   UNL     1       5.342   3.576  16.842  0.00  0.00    +0.000 C 
ATOM     15  H   UNL     1       1.432   7.810  18.051  0.00  0.00    +0.000 HD
ENDROOT
BRANCH  11  16
ATOM     16  C   UNL     1       1.450   9.561  19.149  0.00  0.00    +0.000 A 
ATOM     17  C   UNL     1       1.969  10.507  18.258  0.00  0.00    +0.000 A 
ATOM     18  C   UNL     1       1.869  11.876  18.514  0.00  0.00    +0.000 A 
ATOM     19  C   UNL     1       1.228  12.323  19.664  0.00  0.00    +0.000 A 
ATOM     20  C   UNL     1       0.663  11.397  20.545  0.00  0.00    +0.000 A 
ATOM     21  C   UNL     1       0.758  10.019  20.278  0.00  0.00    +0.000 A 
BRANCH  20  22
ATOM     22  C   UNL     1       0.017  11.861  21.736  0.00  0.00    +0.000 C 
ATOM     23  N   UNL     1      -0.508  12.221  22.708  0.00  0.00    +0.000 NA
ENDBRANCH  20  22
ENDBRANCH  11  16
BRANCH   1  25
ATOM     24  C   UNL     1       7.004   4.762  14.540  0.00  0.00    +0.000 C 
ATOM     25  S   UNL     1       6.576   5.799  15.927  0.00  0.00    +0.000 S 
ATOM     26  O   UNL     1       7.732   6.595  16.282  0.00  0.00    +0.000 OA
ATOM     27  O   UNL     1       5.313   6.438  15.619  0.00  0.00    +0.000 OA
ENDBRANCH   1  25
TORSDOF 3
ENDMDL
MODEL 3
REMARK VINA RESULT:      -6.9      1.552      2.318
REMARK  Name = 
REMARK  4 active torsions:
REMARK  status: ('A' for Active; 'I' for Inactive)
REMARK    1  A    between atoms: C_1  and  S_2
REMARK    2  A    between atoms: S_2  and  N_5
REMARK    3  A    between atoms: N_15  and  C_16
REMARK    4  A    between atoms: C_20  and  C_21
REMARK                            x       y       z     vdW  Elec       q    Type
REMARK                         _______ _______ _______ _____ _____    ______ ____
ROOT
ATOM      1  N   UNL     1       6.605   4.549  16.845  0.00  0.00    +0.000 NA
ATOM      2  C   UNL     1       6.320   4.535  18.297  0.00  0.00    +0.000 C 
ATOM      3  C   UNL     1       4.872   4.903  18.572  0.00  0.00    +0.000 C 
ATOM      4  C   UNL     1       3.861   3.990  17.831  0.00  0.00    +0.000 C 
ATOM      5  C   UNL     1       3.801   2.566  18.450  0.00  0.00    +0.000 C 
ATOM      6  C   UNL     1       3.305   2.586  19.895  0.00  0.00    +0.000 C 
ATOM      7  C   UNL     1       1.975   3.326  20.008  0.00  0.00    +0.000 C 
ATOM      8  N   UNL     1       2.019   4.644  19.364  0.00  0.00    +0.000 N 
ATOM      9  C   UNL     1       1.725   5.751  20.151  0.00  0.00    +0.000 C 
ATOM     10  O   UNL     1       1.506   5.610  21.356  0.00  0.00    +0.000 OA
ATOM     11  N   UNL     1       1.683   6.973  19.511  0.00  0.00    +0.000 N 
ATOM     12  C   UNL     1       2.452   4.626  17.962  0.00  0.00    +0.000 C 
ATOM     13  C   UNL     1       4.254   3.892  16.334  0.00  0.00    +0.000 C 
ATOM     14  C   UNL     1       5.739   3.587  16.113  0.00  0.00    +0.000 C 
ATOM     15  H   UNL     1       1.547   6.955  18.513  0.00  0.00    +0.000 HD
ENDROOT
BRANCH  11  16
ATOM     16  C   UNL     1       1.429   8.219  20.144  0.00  0.00    +0.000 A 
ATOM     17  C   UNL     1       1.456   8.392  21.533  0.00  0.00    +0.000 A 
ATOM     18  C   UNL     1       1.106   9.610  22.119  0.00  0.00    +0.000 A 
ATOM     19  C   UNL     1       0.740  10.686  21.319  0.00  0.00    +0.000 A 
ATOM     20  C   UNL     1       0.750  10.549  19.929  0.00  0.00    +0.000 A 
ATOM     21  C   UNL     1       1.113   9.324  19.342  0.00  0.00    +0.000 A 
BRANCH  20  22
ATOM     22  C   UNL     1       0.357  11.657  19.109  0.00  0.00    +0.000 C 
ATOM     23  N   UNL     1       0.056  12.556  18.438  0.00  0.00    +0.000 NA
ENDBRANCH  20  22
ENDBRANCH  11  16
BRANCH   1  25
ATOM     24  C   UNL     1       7.633   7.027  17.348  0.00  0.00    +0.000 C 
ATOM     25  S   UNL     1       6.863   6.043  16.075  0.00  0.00    +0.000 S 
ATOM     26  O   UNL     1       5.578   6.627  15.755  0.00  0.00    +0.000 OA
ATOM     27  O   UNL     1       7.849   5.828  15.036  0.00  0.00    +0.000 OA
ENDBRANCH   1  25
TORSDOF 3
ENDMDL
MODEL 4
REMARK VINA RESULT:      -6.9      1.335      1.681
REMARK  Name = 
REMARK  4 active torsions:
REMARK  status: ('A' for Active; 'I' for Inactive)
REMARK    1  A    between atoms: C_1  and  S_2
REMARK    2  A    between atoms: S_2  and  N_5
REMARK    3  A    between atoms: N_15  and  C_16
REMARK    4  A    between atoms: C_20  and  C_21
REMARK                            x       y       z     vdW  Elec       q    Type
REMARK                         _______ _______ _______ _____ _____    ______ ____
ROOT
ATOM      1  N   UNL     1       6.396   4.744  17.259  0.00  0.00    +0.000 NA
ATOM      2  C   UNL     1       6.094   5.152  18.648  0.00  0.00    +0.000 C 
ATOM      3  C   UNL     1       4.662   5.640  18.775  0.00  0.00    +0.000 C 
ATOM      4  C   UNL     1       3.618   4.595  18.298  0.00  0.00    +0.000 C 
ATOM      5  C   UNL     1       3.489   3.408  19.291  0.00  0.00    +0.000 C 
ATOM      6  C   UNL     1       2.978   3.855  20.660  0.00  0.00    +0.000 C 
ATOM      7  C   UNL     1       1.681   4.649  20.529  0.00  0.00    +0.000 C 
ATOM      8  N   UNL     1       1.791   5.728  19.541  0.00  0.00    +0.000 N 
ATOM      9  C   UNL     1       1.538   7.023  19.977  0.00  0.00    +0.000 C 
ATOM     10  O   UNL     1       1.299   7.237  21.168  0.00  0.00    +0.000 OA
ATOM     11  N   UNL     1       1.557   8.015  19.019  0.00  0.00    +0.000 N 
ATOM     12  C   UNL     1       2.238   5.298  18.211  0.00  0.00    +0.000 C 
ATOM     13  C   UNL     1       4.024   4.064  16.899  0.00  0.00    +0.000 C 
ATOM     14  C   UNL     1       5.496   3.649  16.807  0.00  0.00    +0.000 C 
ATOM     15  H   UNL     1       1.432   7.722  18.063  0.00  0.00    +0.000 HD
ENDROOT
BRANCH  11  16
ATOM     16  C   UNL     1       1.353   9.399  19.269  0.00  0.00    +0.000 A 
ATOM     17  C   UNL     1       1.850  10.409  18.437  0.00  0.00    +0.000 A 
ATOM     18  C   UNL     1       1.709  11.758  18.770  0.00  0.00    +0.000 A 
ATOM     19  C   UNL     1       1.050  12.120  19.939  0.00  0.00    +0.000 A 
ATOM     20  C   UNL     1       0.507  11.129  20.762  0.00  0.00    +0.000 A 
ATOM     21  C   UNL     1       0.641   9.772  20.417  0.00  0.00    +0.000 A 
BRANCH  20  22
ATOM     22  C   UNL     1      -0.159  11.506  21.973  0.00  0.00    +0.000 C 
ATOM     23  N   UNL     1      -0.688  11.827  22.956  0.00  0.00    +0.000 NA
ENDBRANCH  20  22
ENDBRANCH  11  16
BRANCH   1  25
ATOM     24  C   UNL     1       7.513   7.228  17.070  0.00  0.00    +0.000 C 
ATOM     25  S   UNL     1       6.728   5.948  16.105  0.00  0.00    +0.000 S 
ATOM     26  O   UNL     1       5.474   6.459  15.594  0.00  0.00    +0.000 OA
ATOM     27  O   UNL     1       7.725   5.415  15.199  0.00  0.00    +0.000 OA
ENDBRANCH   1  25
TORSDOF 3
ENDMDL
MODEL 5
REMARK VINA RESULT:      -6.8      4.244      8.050
REMARK  Name = 
REMARK  4 active torsions:
REMARK  status: ('A' for Active; 'I' for Inactive)
REMARK    1  A    between atoms: C_1  and  S_2
REMARK    2  A    between atoms: S_2  and  N_5
REMARK    3  A    between atoms: N_15  and  C_16
REMARK    4  A    between atoms: C_20  and  C_21
REMARK                            x       y       z     vdW  Elec       q    Type
REMARK                         _______ _______ _______ _____ _____    ______ ____
ROOT
ATOM      1  N   UNL     1       2.868   3.956  19.888  0.00  0.00    +0.000 NA
ATOM      2  C   UNL     1       4.172   3.409  19.452  0.00  0.00    +0.000 C 
ATOM      3  C   UNL     1       4.634   4.061  18.161  0.00  0.00    +0.000 C 
ATOM      4  C   UNL     1       4.720   5.607  18.257  0.00  0.00    +0.000 C 
ATOM      5  C   UNL     1       5.922   6.068  19.127  0.00  0.00    +0.000 C 
ATOM      6  C   UNL     1       7.263   5.651  18.525  0.00  0.00    +0.000 C 
ATOM      7  C   UNL     1       7.382   6.113  17.076  0.00  0.00    +0.000 C 
ATOM      8  N   UNL     1       6.213   5.730  16.276  0.00  0.00    +0.000 N 
ATOM      9  C   UNL     1       6.437   4.949  15.148  0.00  0.00    +0.000 C 
ATOM     10  O   UNL     1       7.575   4.550  14.891  0.00  0.00    +0.000 OA
ATOM     11  N   UNL     1       5.341   4.672  14.357  0.00  0.00    +0.000 N 
ATOM     12  C   UNL     1       4.925   6.168  16.825  0.00  0.00    +0.000 C 
ATOM     13  C   UNL     1       3.401   6.162  18.853  0.00  0.00    +0.000 C 
ATOM     14  C   UNL     1       2.945   5.424  20.116  0.00  0.00    +0.000 C 
ATOM     15  H   UNL     1       4.549   5.288  14.452  0.00  0.00    +0.000 HD
ENDROOT
BRANCH  11  16
ATOM     16  C   UNL     1       5.359   3.870  13.185  0.00  0.00    +0.000 A 
ATOM     17  C   UNL     1       6.360   2.929  12.917  0.00  0.00    +0.000 A 
ATOM     18  C   UNL     1       6.394   2.230  11.709  0.00  0.00    +0.000 A 
ATOM     19  C   UNL     1       5.411   2.451  10.751  0.00  0.00    +0.000 A 
ATOM     20  C   UNL     1       4.377   3.353  11.016  0.00  0.00    +0.000 A 
ATOM     21  C   UNL     1       4.341   4.047  12.239  0.00  0.00    +0.000 A 
BRANCH  20  22
ATOM     22  C   UNL     1       3.374   3.588  10.019  0.00  0.00    +0.000 C 
ATOM     23  N   UNL     1       2.573   3.770   9.199  0.00  0.00    +0.000 NA
ENDBRANCH  20  22
ENDBRANCH  11  16
BRANCH   1  25
ATOM     24  C   UNL     1       1.765   1.658  18.912  0.00  0.00    +0.000 C 
ATOM     25  S   UNL     1       1.452   3.401  19.128  0.00  0.00    +0.000 S 
ATOM     26  O   UNL     1       1.354   4.018  17.822  0.00  0.00    +0.000 OA
ATOM     27  O   UNL     1       0.370   3.533  20.083  0.00  0.00    +0.000 OA
ENDBRANCH   1  25
TORSDOF 3
ENDMDL
MODEL 6
REMARK VINA RESULT:      -6.5      1.580      2.200
REMARK  Name = 
REMARK  4 active torsions:
REMARK  status: ('A' for Active; 'I' for Inactive)
REMARK    1  A    between atoms: C_1  and  S_2
REMARK    2  A    between atoms: S_2  and  N_5
REMARK    3  A    between atoms: N_15  and  C_16
REMARK    4  A    between atoms: C_20  and  C_21
REMARK                            x       y       z     vdW  Elec       q    Type
REMARK                         _______ _______ _______ _____ _____    ______ ____
ROOT
ATOM      1  N   UNL     1       6.373   4.759  17.331  0.00  0.00    +0.000 NA
ATOM      2  C   UNL     1       6.059   4.989  18.758  0.00  0.00    +0.000 C 
ATOM      3  C   UNL     1       4.622   5.447  18.934  0.00  0.00    +0.000 C 
ATOM      4  C   UNL     1       3.590   4.461  18.323  0.00  0.00    +0.000 C 
ATOM      5  C   UNL     1       3.465   3.159  19.161  0.00  0.00    +0.000 C 
ATOM      6  C   UNL     1       2.941   3.429  20.571  0.00  0.00    +0.000 C 
ATOM      7  C   UNL     1       1.639   4.223  20.530  0.00  0.00    +0.000 C 
ATOM      8  N   UNL     1       1.746   5.417  19.684  0.00  0.00    +0.000 N 
ATOM      9  C   UNL     1       1.479   6.646  20.275  0.00  0.00    +0.000 C 
ATOM     10  O   UNL     1       1.231   6.709  21.481  0.00  0.00    +0.000 OA
ATOM     11  N   UNL     1       1.495   7.749  19.447  0.00  0.00    +0.000 N 
ATOM     12  C   UNL     1       2.205   5.158  18.314  0.00  0.00    +0.000 C 
ATOM     13  C   UNL     1       4.009   4.110  16.872  0.00  0.00    +0.000 C 
ATOM     14  C   UNL     1       5.485   3.722  16.740  0.00  0.00    +0.000 C 
ATOM     15  H   UNL     1       1.379   7.576  18.461  0.00  0.00    +0.000 HD
ENDROOT
BRANCH  11  16
ATOM     16  C   UNL     1       1.277   9.089  19.864  0.00  0.00    +0.000 A 
ATOM     17  C   UNL     1       0.568   9.424  21.024  0.00  0.00    +0.000 A 
ATOM     18  C   UNL     1       0.294  10.754  21.348  0.00  0.00    +0.000 A 
ATOM     19  C   UNL     1       0.742  11.778  20.521  0.00  0.00    +0.000 A 
ATOM     20  C   UNL     1       1.490  11.468  19.382  0.00  0.00    +0.000 A 
ATOM     21  C   UNL     1       1.773  10.128  19.065  0.00  0.00    +0.000 A 
BRANCH  20  22
ATOM     22  C   UNL     1       1.937  12.526  18.524  0.00  0.00    +0.000 C 
ATOM     23  N   UNL     1       2.289  13.375  17.815  0.00  0.00    +0.000 NA
ENDBRANCH  20  22
ENDBRANCH  11  16
BRANCH   1  25
ATOM     24  C   UNL     1       7.494   7.245  17.453  0.00  0.00    +0.000 C 
ATOM     25  S   UNL     1       6.702   6.100  16.338  0.00  0.00    +0.000 S 
ATOM     26  O   UNL     1       5.447   6.673  15.902  0.00  0.00    +0.000 OA
ATOM     27  O   UNL     1       7.693   5.684  15.366  0.00  0.00    +0.000 OA
ENDBRANCH   1  25
TORSDOF 3
ENDMDL
MODEL 7
REMARK VINA RESULT:      -6.5      0.844      1.221
REMARK  Name = 
REMARK  4 active torsions:
REMARK  status: ('A' for Active; 'I' for Inactive)
REMARK    1  A    between atoms: C_1  and  S_2
REMARK    2  A    between atoms: S_2  and  N_5
REMARK    3  A    between atoms: N_15  and  C_16
REMARK    4  A    between atoms: C_20  and  C_21
REMARK                            x       y       z     vdW  Elec       q    Type
REMARK                         _______ _______ _______ _____ _____    ______ ____
ROOT
ATOM      1  N   UNL     1       6.274   4.713  17.519  0.00  0.00    +0.000 NA
ATOM      2  C   UNL     1       5.966   5.376  18.805  0.00  0.00    +0.000 C 
ATOM      3  C   UNL     1       4.564   5.960  18.795  0.00  0.00    +0.000 C 
ATOM      4  C   UNL     1       3.469   4.909  18.472  0.00  0.00    +0.000 C 
ATOM      5  C   UNL     1       3.242   3.926  19.653  0.00  0.00    +0.000 C 
ATOM      6  C   UNL     1       2.728   4.636  20.905  0.00  0.00    +0.000 C 
ATOM      7  C   UNL     1       1.487   5.467  20.592  0.00  0.00    +0.000 C 
ATOM      8  N   UNL     1       1.687   6.346  19.435  0.00  0.00    +0.000 N 
ATOM      9  C   UNL     1       1.505   7.711  19.628  0.00  0.00    +0.000 C 
ATOM     10  O   UNL     1       1.252   8.145  20.754  0.00  0.00    +0.000 OA
ATOM     11  N   UNL     1       1.608   8.515  18.512  0.00  0.00    +0.000 N 
ATOM     12  C   UNL     1       2.138   5.663  18.217  0.00  0.00    +0.000 C 
ATOM     13  C   UNL     1       3.873   4.116  17.203  0.00  0.00    +0.000 C 
ATOM     14  C   UNL     1       5.318   3.608  17.235  0.00  0.00    +0.000 C 
ATOM     15  H   UNL     1       1.488   8.065  17.618  0.00  0.00    +0.000 HD
ENDROOT
BRANCH  11  16
ATOM     16  C   UNL     1       1.485   9.930  18.509  0.00  0.00    +0.000 A 
ATOM     17  C   UNL     1       2.514  10.788  18.102  0.00  0.00    +0.000 A 
ATOM     18  C   UNL     1       2.386  12.174  18.206  0.00  0.00    +0.000 A 
ATOM     19  C   UNL     1       1.213  12.729  18.704  0.00  0.00    +0.000 A 
ATOM     20  C   UNL     1       0.156  11.892  19.074  0.00  0.00    +0.000 A 
ATOM     21  C   UNL     1       0.285  10.497  18.958  0.00  0.00    +0.000 A 
BRANCH  20  22
ATOM     22  C   UNL     1      -1.046  12.468  19.602  0.00  0.00    +0.000 C 
ATOM     23  N   UNL     1      -2.013  12.933  20.046  0.00  0.00    +0.000 NA
ENDBRANCH  20  22
ENDBRANCH  11  16
BRANCH   1  25
ATOM     24  C   UNL     1       7.481   7.092  16.941  0.00  0.00    +0.000 C 
ATOM     25  S   UNL     1       6.708   5.673  16.185  0.00  0.00    +0.000 S 
ATOM     26  O   UNL     1       5.501   6.107  15.514  0.00  0.00    +0.000 OA
ATOM     27  O   UNL     1       7.734   4.957  15.454  0.00  0.00    +0.000 OA
ENDBRANCH   1  25
TORSDOF 3
ENDMDL
MODEL 8
REMARK VINA RESULT:      -6.4      1.738      1.977
REMARK  Name = 
REMARK  4 active torsions:
REMARK  status: ('A' for Active; 'I' for Inactive)
REMARK    1  A    between atoms: C_1  and  S_2
REMARK    2  A    between atoms: S_2  and  N_5
REMARK    3  A    between atoms: N_15  and  C_16
REMARK    4  A    between atoms: C_20  and  C_21
REMARK                            x       y       z     vdW  Elec       q    Type
REMARK                         _______ _______ _______ _____ _____    ______ ____
ROOT
ATOM      1  N   UNL     1       6.694   4.434  16.655  0.00  0.00    +0.000 NA
ATOM      2  C   UNL     1       6.419   4.644  18.094  0.00  0.00    +0.000 C 
ATOM      3  C   UNL     1       4.960   4.995  18.325  0.00  0.00    +0.000 C 
ATOM      4  C   UNL     1       3.981   3.935  17.754  0.00  0.00    +0.000 C 
ATOM      5  C   UNL     1       3.983   2.630  18.596  0.00  0.00    +0.000 C 
ATOM      6  C   UNL     1       3.496   2.864  20.025  0.00  0.00    +0.000 C 
ATOM      7  C   UNL     1       2.138   3.560  20.034  0.00  0.00    +0.000 C 
ATOM      8  N   UNL     1       2.124   4.757  19.185  0.00  0.00    +0.000 N 
ATOM      9  C   UNL     1       1.791   5.965  19.786  0.00  0.00    +0.000 C 
ATOM     10  O   UNL     1       1.586   6.012  21.001  0.00  0.00    +0.000 OA
ATOM     11  N   UNL     1       1.695   7.064  18.958  0.00  0.00    +0.000 N 
ATOM     12  C   UNL     1       2.548   4.529  17.799  0.00  0.00    +0.000 C 
ATOM     13  C   UNL     1       4.368   3.612  16.288  0.00  0.00    +0.000 C 
ATOM     14  C   UNL     1       5.862   3.333  16.099  0.00  0.00    +0.000 C 
ATOM     15  H   UNL     1       1.554   6.880  17.978  0.00  0.00    +0.000 HD
ENDROOT
BRANCH  11  16
ATOM     16  C   UNL     1       1.396   8.386  19.385  0.00  0.00    +0.000 A 
ATOM     17  C   UNL     1       1.613   9.516  18.587  0.00  0.00    +0.000 A 
ATOM     18  C   UNL     1       1.396  10.804  19.080  0.00  0.00    +0.000 A 
ATOM     19  C   UNL     1       0.938  10.983  20.380  0.00  0.00    +0.000 A 
ATOM     20  C   UNL     1       0.671   9.867  21.178  0.00  0.00    +0.000 A 
ATOM     21  C   UNL     1       0.881   8.571  20.675  0.00  0.00    +0.000 A 
BRANCH  20  22
ATOM     22  C   UNL     1       0.213  10.057  22.523  0.00  0.00    +0.000 C 
ATOM     23  N   UNL     1      -0.142  10.219  23.617  0.00  0.00    +0.000 NA
ENDBRANCH  20  22
ENDBRANCH  11  16
BRANCH   1  25
ATOM     24  C   UNL     1       7.498   5.089  14.130  0.00  0.00    +0.000 C 
ATOM     25  S   UNL     1       6.886   5.792  15.651  0.00  0.00    +0.000 S 
ATOM     26  O   UNL     1       7.914   6.642  16.213  0.00  0.00    +0.000 OA
ATOM     27  O   UNL     1       5.564   6.322  15.383  0.00  0.00    +0.000 OA
ENDBRANCH   1  25
TORSDOF 3
ENDMDL
MODEL 9
REMARK VINA RESULT:      -6.2      1.525      1.892
REMARK  Name = 
REMARK  4 active torsions:
REMARK  status: ('A' for Active; 'I' for Inactive)
REMARK    1  A    between atoms: C_1  and  S_2
REMARK    2  A    between atoms: S_2  and  N_5
REMARK    3  A    between atoms: N_15  and  C_16
REMARK    4  A    between atoms: C_20  and  C_21
REMARK                            x       y       z     vdW  Elec       q    Type
REMARK                         _______ _______ _______ _____ _____    ______ ____
ROOT
ATOM      1  N   UNL     1       6.277   4.621  17.165  0.00  0.00    +0.000 NA
ATOM      2  C   UNL     1       6.029   4.919  18.593  0.00  0.00    +0.000 C 
ATOM      3  C   UNL     1       4.604   5.399  18.811  0.00  0.00    +0.000 C 
ATOM      4  C   UNL     1       3.539   4.397  18.292  0.00  0.00    +0.000 C 
ATOM      5  C   UNL     1       3.441   3.135  19.194  0.00  0.00    +0.000 C 
ATOM      6  C   UNL     1       2.983   3.474  20.612  0.00  0.00    +0.000 C 
ATOM      7  C   UNL     1       1.686   4.279  20.592  0.00  0.00    +0.000 C 
ATOM      8  N   UNL     1       1.765   5.432  19.688  0.00  0.00    +0.000 N 
ATOM      9  C   UNL     1       1.535   6.689  20.233  0.00  0.00    +0.000 C 
ATOM     10  O   UNL     1       1.341   6.810  21.445  0.00  0.00    +0.000 OA
ATOM     11  N   UNL     1       1.523   7.754  19.355  0.00  0.00    +0.000 N 
ATOM     12  C   UNL     1       2.160   5.107  18.313  0.00  0.00    +0.000 C 
ATOM     13  C   UNL     1       3.890   3.975  16.842  0.00  0.00    +0.000 C 
ATOM     14  C   UNL     1       5.355   3.567  16.663  0.00  0.00    +0.000 C 
ATOM     15  H   UNL     1       1.361   7.536  18.385  0.00  0.00    +0.000 HD
ENDROOT
BRANCH  11  16
ATOM     16  C   UNL     1       1.335   9.113  19.720  0.00  0.00    +0.000 A 
ATOM     17  C   UNL     1       0.586   9.510  20.835  0.00  0.00    +0.000 A 
ATOM     18  C   UNL     1       0.345  10.859  21.104  0.00  0.00    +0.000 A 
ATOM     19  C   UNL     1       0.867  11.839  20.266  0.00  0.00    +0.000 A 
ATOM     20  C   UNL     1       1.655  11.466  19.174  0.00  0.00    +0.000 A 
ATOM     21  C   UNL     1       1.903  10.107  18.913  0.00  0.00    +0.000 A 
BRANCH  20  22
ATOM     22  C   UNL     1       2.178  12.479  18.305  0.00  0.00    +0.000 C 
ATOM     23  N   UNL     1       2.598  13.312  17.614  0.00  0.00    +0.000 NA
ENDBRANCH  20  22
ENDBRANCH  11  16
BRANCH   1  25
ATOM     24  C   UNL     1       7.059   5.089  14.592  0.00  0.00    +0.000 C 
ATOM     25  S   UNL     1       6.572   5.911  16.098  0.00  0.00    +0.000 S 
ATOM     26  O   UNL     1       7.699   6.672  16.593  0.00  0.00    +0.000 OA
ATOM     27  O   UNL     1       5.303   6.563  15.846  0.00  0.00    +0.000 OA
ENDBRANCH   1  25
TORSDOF 3
ENDMDL
