MODEL 1
REMARK VINA RESULT:      -8.5      0.000      0.000
REMARK  Name = 
REMARK  11 active torsions:
REMARK  status: ('A' for Active; 'I' for Inactive)
REMARK    1  A    between atoms: C_1  and  C_2
REMARK    2  A    between atoms: C_2  and  O_3
REMARK    3  A    between atoms: O_3  and  C_4
REMARK    4  A    between atoms: C_9  and  N_10
REMARK    5  A    between atoms: N_10  and  C_11
REMARK    6  A    between atoms: C_11  and  C_12
REMARK    7  A    between atoms: N_14  and  C_15
REMARK    8  A    between atoms: C_21  and  C_23
REMARK    9  A    between atoms: C_23  and  C_24
REMARK   10  A    between atoms: C_24  and  C_25
REMARK   11  A    between atoms: C_25  and  C_26
REMARK                            x       y       z     vdW  Elec       q    Type
REMARK                         _______ _______ _______ _____ _____    ______ ____
ROOT
ATOM      1  N   UNL     1       5.272   4.520  17.574  0.00  0.00    +0.000 N 
ATOM      2  C   UNL     1       6.047   5.108  18.600  0.00  0.00    +0.000 C 
ATOM      3  O   UNL     1       5.606   5.333  19.729  0.00  0.00    +0.000 OA
ENDROOT
BRANCH   1   9
ATOM      4  C   UNL     1       2.942   4.633  18.634  0.00  0.00    +0.000 A 
ATOM      5  C   UNL     1       1.756   3.941  18.975  0.00  0.00    +0.000 A 
ATOM      6  C   UNL     1       1.606   2.586  18.740  0.00  0.00    +0.000 A 
ATOM      7  C   UNL     1       2.632   1.888  18.145  0.00  0.00    +0.000 A 
ATOM      8  C   UNL     1       3.805   2.545  17.765  0.00  0.00    +0.000 A 
ATOM      9  C   UNL     1       3.994   3.932  17.988  0.00  0.00    +0.000 A 
BRANCH   4  10
ATOM     10  O   UNL     1       2.841   5.923  19.065  0.00  0.00    +0.000 OA
BRANCH  10  12
ATOM     11  C   UNL     1       3.569   7.677  17.519  0.00  0.00    +0.000 C 
ATOM     12  C   UNL     1       2.438   6.943  18.190  0.00  0.00    +0.000 C 
ENDBRANCH  10  12
ENDBRANCH   4  10
ENDBRANCH   1   9
BRANCH   1  13
ATOM     13  C   UNL     1       5.927   3.894  16.391  0.00  0.00    +0.000 C 
BRANCH  13  14
ATOM     14  C   UNL     1       5.772   4.567  14.975  0.00  0.00    +0.000 C 
ATOM     15  O   UNL     1       5.638   5.783  14.869  0.00  0.00    +0.000 OA
ATOM     16  N   UNL     1       5.923   3.735  13.888  0.00  0.00    +0.000 N 
ATOM     17  H   UNL     1       6.687   3.103  14.063  0.00  0.00    +0.000 HD
BRANCH  16  18
ATOM     18  C   UNL     1       5.783   4.002  12.441  0.00  0.00    +0.000 C 
ATOM     19  C   UNL     1       7.165   3.987  11.745  0.00  0.00    +0.000 C 
ATOM     20  C   UNL     1       7.738   2.573  11.613  0.00  0.00    +0.000 C 
ATOM     21  C   UNL     1       6.772   1.658  10.865  0.00  0.00    +0.000 C 
ATOM     22  C   UNL     1       5.372   1.684  11.474  0.00  0.00    +0.000 C 
ATOM     23  C   UNL     1       4.839   3.104  11.643  0.00  0.00    +0.000 C 
ENDBRANCH  16  18
ENDBRANCH  13  14
ENDBRANCH   1  13
BRANCH   2  24
ATOM     24  C   UNL     1       7.475   5.507  18.236  0.00  0.00    +0.000 C 
BRANCH  24  25
ATOM     25  C   UNL     1       7.665   6.947  17.746  0.00  0.00    +0.000 C 
BRANCH  25  26
ATOM     26  C   UNL     1       8.386   7.886  18.716  0.00  0.00    +0.000 C 
BRANCH  26  27
ATOM     27  C   UNL     1       8.458   9.318  18.220  0.00  0.00    +0.000 C 
ATOM     28  O   UNL     1       7.629   9.775  17.439  0.00  0.00    +0.000 OA
ATOM     29  N   UNL     1       9.534  10.009  18.740  0.00  0.00    +0.000 N 
ATOM     30  C   UNL     1       9.828  11.322  18.369  0.00  0.00    +0.000 A 
ATOM     31  C   UNL     1       8.849  12.308  18.318  0.00  0.00    +0.000 A 
ATOM     32  C   UNL     1       9.213  13.586  17.908  0.00  0.00    +0.000 A 
ATOM     33  C   UNL     1      10.528  13.827  17.530  0.00  0.00    +0.000 A 
ATOM     34  C   UNL     1      11.437  12.787  17.634  0.00  0.00    +0.000 A 
ATOM     35  N   UNL     1      11.126  11.552  18.086  0.00  0.00    +0.000 NA
ATOM     36  H   UNL     1      10.360   9.475  18.970  0.00  0.00    +0.000 HD
ENDBRANCH  26  27
ENDBRANCH  25  26
ENDBRANCH  24  25
ENDBRANCH   2  24
TORSDOF 10
ENDMDL
MODEL 2
REMARK VINA RESULT:      -8.0      0.988      1.245
REMARK  Name = 
REMARK  11 active torsions:
REMARK  status: ('A' for Active; 'I' for Inactive)
REMARK    1  A    between atoms: C_1  and  C_2
REMARK    2  A    between atoms: C_2  and  O_3
REMARK    3  A    between atoms: O_3  and  C_4
REMARK    4  A    between atoms: C_9  and  N_10
REMARK    5  A    between atoms: N_10  and  C_11
REMARK    6  A    between atoms: C_11  and  C_12
REMARK    7  A    between atoms: N_14  and  C_15
REMARK    8  A    between atoms: C_21  and  C_23
REMARK    9  A    between atoms: C_23  and  C_24
REMARK   10  A    between atoms: C_24  and  C_25
REMARK   11  A    between atoms: C_25  and  C_26
REMARK                            x       y       z     vdW  Elec       q    Type
REMARK                         _______ _______ _______ _____ _____    ______ ____
ROOT
ATOM      1  N   UNL     1       5.364   4.698  17.373  0.00  0.00    +0.000 N 
ATOM      2  C   UNL     1       6.063   5.258  18.466  0.00  0.00    +0.000 C 
ATOM      3  O   UNL     1       5.531   5.495  19.553  0.00  0.00    +0.000 OA
ENDROOT
BRANCH   1   9
ATOM      4  C   UNL     1       2.846   4.912  17.794  0.00  0.00    +0.000 A 
ATOM      5  C   UNL     1       1.627   4.252  18.078  0.00  0.00    +0.000 A 
ATOM      6  C   UNL     1       1.566   2.886  18.285  0.00  0.00    +0.000 A 
ATOM      7  C   UNL     1       2.719   2.140  18.200  0.00  0.00    +0.000 A 
ATOM      8  C   UNL     1       3.935   2.753  17.889  0.00  0.00    +0.000 A 
ATOM      9  C   UNL     1       4.037   4.149  17.669  0.00  0.00    +0.000 A 
BRANCH   4  10
ATOM     10  O   UNL     1       2.618   6.256  17.733  0.00  0.00    +0.000 OA
BRANCH  10  12
ATOM     11  C   UNL     1       2.428   6.476  20.165  0.00  0.00    +0.000 C 
ATOM     12  C   UNL     1       1.993   6.928  18.795  0.00  0.00    +0.000 C 
ENDBRANCH  10  12
ENDBRANCH   4  10
ENDBRANCH   1   9
BRANCH   1  13
ATOM     13  C   UNL     1       6.101   4.054  16.249  0.00  0.00    +0.000 C 
BRANCH  13  14
ATOM     14  C   UNL     1       5.968   4.646  14.795  0.00  0.00    +0.000 C 
ATOM     15  O   UNL     1       5.970   5.860  14.610  0.00  0.00    +0.000 OA
ATOM     16  N   UNL     1       5.977   3.733  13.765  0.00  0.00    +0.000 N 
ATOM     17  H   UNL     1       6.669   3.029  13.958  0.00  0.00    +0.000 HD
BRANCH  16  18
ATOM     18  C   UNL     1       5.809   3.920  12.309  0.00  0.00    +0.000 C 
ATOM     19  C   UNL     1       7.181   3.897  11.592  0.00  0.00    +0.000 C 
ATOM     20  C   UNL     1       7.783   2.491  11.526  0.00  0.00    +0.000 C 
ATOM     21  C   UNL     1       6.827   1.517  10.842  0.00  0.00    +0.000 C 
ATOM     22  C   UNL     1       5.435   1.546  11.472  0.00  0.00    +0.000 C 
ATOM     23  C   UNL     1       4.874   2.961  11.574  0.00  0.00    +0.000 C 
ENDBRANCH  16  18
ENDBRANCH  13  14
ENDBRANCH   1  13
BRANCH   2  24
ATOM     24  C   UNL     1       7.530   5.613  18.232  0.00  0.00    +0.000 C 
BRANCH  24  25
ATOM     25  C   UNL     1       7.792   6.805  17.304  0.00  0.00    +0.000 C 
BRANCH  25  26
ATOM     26  C   UNL     1       7.210   8.143  17.766  0.00  0.00    +0.000 C 
BRANCH  26  27
ATOM     27  C   UNL     1       8.267   9.131  18.218  0.00  0.00    +0.000 C 
ATOM     28  O   UNL     1       9.072   8.859  19.105  0.00  0.00    +0.000 OA
ATOM     29  N   UNL     1       8.209  10.327  17.531  0.00  0.00    +0.000 N 
ATOM     30  C   UNL     1       9.049  11.401  17.828  0.00  0.00    +0.000 A 
ATOM     31  C   UNL     1      10.417  11.237  18.004  0.00  0.00    +0.000 A 
ATOM     32  C   UNL     1      11.185  12.351  18.331  0.00  0.00    +0.000 A 
ATOM     33  C   UNL     1      10.557  13.578  18.504  0.00  0.00    +0.000 A 
ATOM     34  C   UNL     1       9.190  13.648  18.287  0.00  0.00    +0.000 A 
ATOM     35  N   UNL     1       8.430  12.596  17.910  0.00  0.00    +0.000 NA
ATOM     36  H   UNL     1       7.304  10.622  17.190  0.00  0.00    +0.000 HD
ENDBRANCH  26  27
ENDBRANCH  25  26
ENDBRANCH  24  25
ENDBRANCH   2  24
TORSDOF 10
ENDMDL
MODEL 3
REMARK VINA RESULT:      -8.0      1.255      2.096
REMARK  Name = 
REMARK  11 active torsions:
REMARK  status: ('A' for Active; 'I' for Inactive)
REMARK    1  A    between atoms: C_1  and  C_2
REMARK    2  A    between atoms: C_2  and  O_3
REMARK    3  A    between atoms: O_3  and  C_4
REMARK    4  A    between atoms: C_9  and  N_10
REMARK    5  A    between atoms: N_10  and  C_11
REMARK    6  A    between atoms: C_11  and  C_12
REMARK    7  A    between atoms: N_14  and  C_15
REMARK    8  A    between atoms: C_21  and  C_23
REMARK    9  A    between atoms: C_23  and  C_24
REMARK   10  A    between atoms: C_24  and  C_25
REMARK   11  A    between atoms: C_25  and  C_26
REMARK                            x       y       z     vdW  Elec       q    Type
REMARK                         _______ _______ _______ _____ _____    ______ ____
ROOT
ATOM      1  N   UNL     1       5.041   4.315  17.582  0.00  0.00    +0.000 N 
ATOM      2  C   UNL     1       5.863   4.850  18.601  0.00  0.00    +0.000 C 
ATOM      3  O   UNL     1       5.453   5.084  19.740  0.00  0.00    +0.000 OA
ENDROOT
BRANCH   1   9
ATOM      4  C   UNL     1       3.557   2.663  18.859  0.00  0.00    +0.000 A 
ATOM      5  C   UNL     1       2.243   2.262  19.200  0.00  0.00    +0.000 A 
ATOM      6  C   UNL     1       1.128   2.905  18.694  0.00  0.00    +0.000 A 
ATOM      7  C   UNL     1       1.295   3.975  17.844  0.00  0.00    +0.000 A 
ATOM      8  C   UNL     1       2.577   4.419  17.511  0.00  0.00    +0.000 A 
ATOM      9  C   UNL     1       3.743   3.787  18.012  0.00  0.00    +0.000 A 
BRANCH   4  10
ATOM     10  O   UNL     1       4.445   1.796  19.426  0.00  0.00    +0.000 OA
BRANCH  10  12
ATOM     11  C   UNL     1       5.562   0.678  21.296  0.00  0.00    +0.000 C 
ATOM     12  C   UNL     1       4.589   1.725  20.819  0.00  0.00    +0.000 C 
ENDBRANCH  10  12
ENDBRANCH   4  10
ENDBRANCH   1   9
BRANCH   1  13
ATOM     13  C   UNL     1       5.644   3.670  16.381  0.00  0.00    +0.000 C 
BRANCH  13  14
ATOM     14  C   UNL     1       5.569   4.405  14.989  0.00  0.00    +0.000 C 
ATOM     15  O   UNL     1       5.330   5.608  14.927  0.00  0.00    +0.000 OA
ATOM     16  N   UNL     1       5.907   3.652  13.887  0.00  0.00    +0.000 N 
ATOM     17  H   UNL     1       6.705   3.083  14.112  0.00  0.00    +0.000 HD
BRANCH  16  18
ATOM     18  C   UNL     1       5.887   3.985  12.448  0.00  0.00    +0.000 C 
ATOM     19  C   UNL     1       7.281   3.759  11.814  0.00  0.00    +0.000 C 
ATOM     20  C   UNL     1       7.615   2.273  11.651  0.00  0.00    +0.000 C 
ATOM     21  C   UNL     1       6.549   1.561  10.823  0.00  0.00    +0.000 C 
ATOM     22  C   UNL     1       5.144   1.803  11.370  0.00  0.00    +0.000 C 
ATOM     23  C   UNL     1       4.848   3.287  11.572  0.00  0.00    +0.000 C 
ENDBRANCH  16  18
ENDBRANCH  13  14
ENDBRANCH   1  13
BRANCH   2  24
ATOM     24  C   UNL     1       7.303   5.181  18.217  0.00  0.00    +0.000 C 
BRANCH  24  25
ATOM     25  C   UNL     1       7.550   6.603  17.700  0.00  0.00    +0.000 C 
BRANCH  25  26
ATOM     26  C   UNL     1       8.338   7.520  18.639  0.00  0.00    +0.000 C 
BRANCH  26  27
ATOM     27  C   UNL     1       8.462   8.940  18.122  0.00  0.00    +0.000 C 
ATOM     28  O   UNL     1       7.932   9.296  17.074  0.00  0.00    +0.000 OA
ATOM     29  N   UNL     1       9.219   9.746  18.950  0.00  0.00    +0.000 N 
ATOM     30  C   UNL     1       9.514  11.073  18.635  0.00  0.00    +0.000 A 
ATOM     31  C   UNL     1       8.540  11.956  18.186  0.00  0.00    +0.000 A 
ATOM     32  C   UNL     1       8.918  13.255  17.861  0.00  0.00    +0.000 A 
ATOM     33  C   UNL     1      10.256  13.615  17.960  0.00  0.00    +0.000 A 
ATOM     34  C   UNL     1      11.152  12.671  18.437  0.00  0.00    +0.000 A 
ATOM     35  N   UNL     1      10.804  11.422  18.817  0.00  0.00    +0.000 NA
ATOM     36  H   UNL     1       9.950   9.300  19.487  0.00  0.00    +0.000 HD
ENDBRANCH  26  27
ENDBRANCH  25  26
ENDBRANCH  24  25
ENDBRANCH   2  24
TORSDOF 10
ENDMDL
MODEL 4
REMARK VINA RESULT:      -7.9      1.451      2.281
REMARK  Name = 
REMARK  11 active torsions:
REMARK  status: ('A' for Active; 'I' for Inactive)
REMARK    1  A    between atoms: C_1  and  C_2
REMARK    2  A    between atoms: C_2  and  O_3
REMARK    3  A    between atoms: O_3  and  C_4
REMARK    4  A    between atoms: C_9  and  N_10
REMARK    5  A    between atoms: N_10  and  C_11
REMARK    6  A    between atoms: C_11  and  C_12
REMARK    7  A    between atoms: N_14  and  C_15
REMARK    8  A    between atoms: C_21  and  C_23
REMARK    9  A    between atoms: C_23  and  C_24
REMARK   10  A    between atoms: C_24  and  C_25
REMARK   11  A    between atoms: C_25  and  C_26
REMARK                            x       y       z     vdW  Elec       q    Type
REMARK                         _______ _______ _______ _____ _____    ______ ____
ROOT
ATOM      1  N   UNL     1       5.364   4.662  17.309  0.00  0.00    +0.000 N 
ATOM      2  C   UNL     1       6.054   5.502  18.213  0.00  0.00    +0.000 C 
ATOM      3  O   UNL     1       5.560   5.897  19.272  0.00  0.00    +0.000 OA
ENDROOT
BRANCH   1   9
ATOM      4  C   UNL     1       4.061   3.078  18.844  0.00  0.00    +0.000 A 
ATOM      5  C   UNL     1       2.798   2.572  19.236  0.00  0.00    +0.000 A 
ATOM      6  C   UNL     1       1.629   2.960  18.609  0.00  0.00    +0.000 A 
ATOM      7  C   UNL     1       1.686   3.875  17.582  0.00  0.00    +0.000 A 
ATOM      8  C   UNL     1       2.911   4.420  17.191  0.00  0.00    +0.000 A 
ATOM      9  C   UNL     1       4.130   4.049  17.811  0.00  0.00    +0.000 A 
BRANCH   4  10
ATOM     10  O   UNL     1       5.032   2.452  19.569  0.00  0.00    +0.000 OA
BRANCH  10  12
ATOM     11  C   UNL     1       5.523   0.685  21.191  0.00  0.00    +0.000 C 
ATOM     12  C   UNL     1       4.758   1.935  20.844  0.00  0.00    +0.000 C 
ENDBRANCH  10  12
ENDBRANCH   4  10
ENDBRANCH   1   9
BRANCH   1  13
ATOM     13  C   UNL     1       6.107   3.884  16.277  0.00  0.00    +0.000 C 
BRANCH  13  14
ATOM     14  C   UNL     1       6.196   4.438  14.806  0.00  0.00    +0.000 C 
ATOM     15  O   UNL     1       6.733   5.518  14.573  0.00  0.00    +0.000 OA
ATOM     16  N   UNL     1       5.758   3.593  13.811  0.00  0.00    +0.000 N 
ATOM     17  H   UNL     1       6.070   2.658  14.015  0.00  0.00    +0.000 HD
BRANCH  16  18
ATOM     18  C   UNL     1       5.635   3.800  12.353  0.00  0.00    +0.000 C 
ATOM     19  C   UNL     1       7.029   3.986  11.707  0.00  0.00    +0.000 C 
ATOM     20  C   UNL     1       7.821   2.677  11.638  0.00  0.00    +0.000 C 
ATOM     21  C   UNL     1       7.041   1.604  10.884  0.00  0.00    +0.000 C 
ATOM     22  C   UNL     1       5.631   1.424  11.442  0.00  0.00    +0.000 C 
ATOM     23  C   UNL     1       4.876   2.746  11.549  0.00  0.00    +0.000 C 
ENDBRANCH  16  18
ENDBRANCH  13  14
ENDBRANCH   1  13
BRANCH   2  24
ATOM     24  C   UNL     1       7.452   5.953  17.799  0.00  0.00    +0.000 C 
BRANCH  24  25
ATOM     25  C   UNL     1       8.033   7.137  18.581  0.00  0.00    +0.000 C 
BRANCH  25  26
ATOM     26  C   UNL     1       8.015   8.482  17.851  0.00  0.00    +0.000 C 
BRANCH  26  27
ATOM     27  C   UNL     1       8.803   9.562  18.567  0.00  0.00    +0.000 C 
ATOM     28  O   UNL     1       8.902   9.587  19.790  0.00  0.00    +0.000 OA
ATOM     29  N   UNL     1       9.368  10.476  17.700  0.00  0.00    +0.000 N 
ATOM     30  C   UNL     1      10.082  11.588  18.148  0.00  0.00    +0.000 A 
ATOM     31  C   UNL     1      11.055  11.488  19.135  0.00  0.00    +0.000 A 
ATOM     32  C   UNL     1      11.702  12.647  19.552  0.00  0.00    +0.000 A 
ATOM     33  C   UNL     1      11.331  13.865  18.998  0.00  0.00    +0.000 A 
ATOM     34  C   UNL     1      10.365  13.863  18.005  0.00  0.00    +0.000 A 
ATOM     35  N   UNL     1       9.763  12.747  17.538  0.00  0.00    +0.000 NA
ATOM     36  H   UNL     1       8.884  10.648  16.829  0.00  0.00    +0.000 HD
ENDBRANCH  26  27
ENDBRANCH  25  26
ENDBRANCH  24  25
ENDBRANCH   2  24
TORSDOF 10
ENDMDL
MODEL 5
REMARK VINA RESULT:      -7.9      3.932      7.825
REMARK  Name = 
REMARK  11 active torsions:
REMARK  status: ('A' for Active; 'I' for Inactive)
REMARK    1  A    between atoms: C_1  and  C_2
REMARK    2  A    between atoms: C_2  and  O_3
REMARK    3  A    between atoms: O_3  and  C_4
REMARK    4  A    between atoms: C_9  and  N_10
REMARK    5  A    between atoms: N_10  and  C_11
REMARK    6  A    between atoms: C_11  and  C_12
REMARK    7  A    between atoms: N_14  and  C_15
REMARK    8  A    between atoms: C_21  and  C_23
REMARK    9  A    between atoms: C_23  and  C_24
REMARK   10  A    between atoms: C_24  and  C_25
REMARK   11  A    between atoms: C_25  and  C_26
REMARK                            x       y       z     vdW  Elec       q    Type
REMARK                         _______ _______ _______ _____ _____    ______ ____
ROOT
ATOM      1  N   UNL     1       4.887   6.559  17.783  0.00  0.00    +0.000 N 
ATOM      2  C   UNL     1       3.760   7.308  17.373  0.00  0.00    +0.000 C 
ATOM      3  O   UNL     1       3.457   7.471  16.189  0.00  0.00    +0.000 OA
ENDROOT
BRANCH   1   9
ATOM      4  C   UNL     1       6.856   5.940  16.265  0.00  0.00    +0.000 A 
ATOM      5  C   UNL     1       7.360   5.077  15.263  0.00  0.00    +0.000 A 
ATOM      6  C   UNL     1       6.586   4.078  14.703  0.00  0.00    +0.000 A 
ATOM      7  C   UNL     1       5.292   3.903  15.137  0.00  0.00    +0.000 A 
ATOM      8  C   UNL     1       4.772   4.715  16.148  0.00  0.00    +0.000 A 
ATOM      9  C   UNL     1       5.534   5.748  16.748  0.00  0.00    +0.000 A 
BRANCH   4  10
ATOM     10  O   UNL     1       7.802   6.878  16.558  0.00  0.00    +0.000 OA
BRANCH  10  12
ATOM     11  C   UNL     1       8.051   8.919  17.888  0.00  0.00    +0.000 C 
ATOM     12  C   UNL     1       7.900   7.421  17.848  0.00  0.00    +0.000 C 
ENDBRANCH  10  12
ENDBRANCH   4  10
ENDBRANCH   1   9
BRANCH   1  13
ATOM     13  C   UNL     1       4.989   6.042  19.178  0.00  0.00    +0.000 C 
BRANCH  13  14
ATOM     14  C   UNL     1       4.826   4.498  19.444  0.00  0.00    +0.000 C 
ATOM     15  O   UNL     1       5.777   3.734  19.309  0.00  0.00    +0.000 OA
ATOM     16  N   UNL     1       3.610   4.096  19.949  0.00  0.00    +0.000 N 
ATOM     17  H   UNL     1       3.307   4.759  20.642  0.00  0.00    +0.000 HD
BRANCH  16  18
ATOM     18  C   UNL     1       3.090   2.746  20.252  0.00  0.00    +0.000 C 
ATOM     19  C   UNL     1       1.709   2.834  20.947  0.00  0.00    +0.000 C 
ATOM     20  C   UNL     1       0.594   3.245  19.981  0.00  0.00    +0.000 C 
ATOM     21  C   UNL     1       0.516   2.287  18.795  0.00  0.00    +0.000 C 
ATOM     22  C   UNL     1       1.870   2.114  18.110  0.00  0.00    +0.000 C 
ATOM     23  C   UNL     1       2.977   1.754  19.096  0.00  0.00    +0.000 C 
ENDBRANCH  16  18
ENDBRANCH  13  14
ENDBRANCH   1  13
BRANCH   2  24
ATOM     24  C   UNL     1       2.934   7.963  18.477  0.00  0.00    +0.000 C 
BRANCH  24  25
ATOM     25  C   UNL     1       1.668   8.698  18.020  0.00  0.00    +0.000 C 
BRANCH  25  26
ATOM     26  C   UNL     1       1.792  10.219  17.903  0.00  0.00    +0.000 C 
BRANCH  26  27
ATOM     27  C   UNL     1       1.130  10.963  19.046  0.00  0.00    +0.000 C 
ATOM     28  O   UNL     1       1.358  12.150  19.263  0.00  0.00    +0.000 OA
ATOM     29  N   UNL     1       0.276  10.165  19.780  0.00  0.00    +0.000 N 
ATOM     30  C   UNL     1      -0.390  10.630  20.915  0.00  0.00    +0.000 A 
ATOM     31  C   UNL     1      -1.053  11.851  20.929  0.00  0.00    +0.000 A 
ATOM     32  C   UNL     1      -1.667  12.261  22.108  0.00  0.00    +0.000 A 
ATOM     33  C   UNL     1      -1.567  11.459  23.238  0.00  0.00    +0.000 A 
ATOM     34  C   UNL     1      -0.903  10.249  23.121  0.00  0.00    +0.000 A 
ATOM     35  N   UNL     1      -0.350   9.797  21.974  0.00  0.00    +0.000 NA
ATOM     36  H   UNL     1       0.493   9.179  19.831  0.00  0.00    +0.000 HD
ENDBRANCH  26  27
ENDBRANCH  25  26
ENDBRANCH  24  25
ENDBRANCH   2  24
TORSDOF 10
ENDMDL
MODEL 6
REMARK VINA RESULT:      -7.7      7.418     11.235
REMARK  Name = 
REMARK  11 active torsions:
REMARK  status: ('A' for Active; 'I' for Inactive)
REMARK    1  A    between atoms: C_1  and  C_2
REMARK    2  A    between atoms: C_2  and  O_3
REMARK    3  A    between atoms: O_3  and  C_4
REMARK    4  A    between atoms: C_9  and  N_10
REMARK    5  A    between atoms: N_10  and  C_11
REMARK    6  A    between atoms: C_11  and  C_12
REMARK    7  A    between atoms: N_14  and  C_15
REMARK    8  A    between atoms: C_21  and  C_23
REMARK    9  A    between atoms: C_23  and  C_24
REMARK   10  A    between atoms: C_24  and  C_25
REMARK   11  A    between atoms: C_25  and  C_26
REMARK                            x       y       z     vdW  Elec       q    Type
REMARK                         _______ _______ _______ _____ _____    ______ ____
ROOT
ATOM      1  N   UNL     1       0.043  10.716  18.884  0.00  0.00    +0.000 N 
ATOM      2  C   UNL     1      -1.155  11.025  18.201  0.00  0.00    +0.000 C 
ATOM      3  O   UNL     1      -1.787  12.067  18.392  0.00  0.00    +0.000 OA
ENDROOT
BRANCH   1   9
ATOM      4  C   UNL     1       0.139  12.380  20.829  0.00  0.00    +0.000 A 
ATOM      5  C   UNL     1       0.841  13.436  21.457  0.00  0.00    +0.000 A 
ATOM      6  C   UNL     1       1.998  13.968  20.918  0.00  0.00    +0.000 A 
ATOM      7  C   UNL     1       2.493  13.451  19.743  0.00  0.00    +0.000 A 
ATOM      8  C   UNL     1       1.845  12.387  19.112  0.00  0.00    +0.000 A 
ATOM      9  C   UNL     1       0.659  11.814  19.636  0.00  0.00    +0.000 A 
BRANCH   4  10
ATOM     10  O   UNL     1      -1.002  12.128  21.532  0.00  0.00    +0.000 OA
BRANCH  10  12
ATOM     11  C   UNL     1      -0.645  10.165  22.950  0.00  0.00    +0.000 C 
ATOM     12  C   UNL     1      -0.945  11.637  22.845  0.00  0.00    +0.000 C 
ENDBRANCH  10  12
ENDBRANCH   4  10
ENDBRANCH   1   9
BRANCH   1  13
ATOM     13  C   UNL     1       0.977   9.685  18.350  0.00  0.00    +0.000 C 
BRANCH  13  14
ATOM     14  C   UNL     1       1.556   8.588  19.321  0.00  0.00    +0.000 C 
ATOM     15  O   UNL     1       1.306   8.618  20.522  0.00  0.00    +0.000 OA
ATOM     16  N   UNL     1       2.237   7.549  18.726  0.00  0.00    +0.000 N 
ATOM     17  H   UNL     1       1.748   7.273  17.891  0.00  0.00    +0.000 HD
BRANCH  16  18
ATOM     18  C   UNL     1       2.957   6.402  19.318  0.00  0.00    +0.000 C 
ATOM     19  C   UNL     1       2.024   5.173  19.435  0.00  0.00    +0.000 C 
ATOM     20  C   UNL     1       1.737   4.525  18.078  0.00  0.00    +0.000 C 
ATOM     21  C   UNL     1       3.032   4.126  17.376  0.00  0.00    +0.000 C 
ATOM     22  C   UNL     1       4.017   5.290  17.289  0.00  0.00    +0.000 C 
ATOM     23  C   UNL     1       4.252   5.953  18.643  0.00  0.00    +0.000 C 
ENDBRANCH  16  18
ENDBRANCH  13  14
ENDBRANCH   1  13
BRANCH   2  24
ATOM     24  C   UNL     1      -1.679   9.975  17.225  0.00  0.00    +0.000 C 
BRANCH  24  25
ATOM     25  C   UNL     1      -3.200   9.780  17.202  0.00  0.00    +0.000 C 
BRANCH  25  26
ATOM     26  C   UNL     1      -3.987  10.818  16.398  0.00  0.00    +0.000 C 
BRANCH  26  27
ATOM     27  C   UNL     1      -4.924  11.650  17.251  0.00  0.00    +0.000 C 
ATOM     28  O   UNL     1      -5.702  12.461  16.755  0.00  0.00    +0.000 OA
ATOM     29  N   UNL     1      -4.794  11.389  18.600  0.00  0.00    +0.000 N 
ATOM     30  C   UNL     1      -5.516  12.086  19.569  0.00  0.00    +0.000 A 
ATOM     31  C   UNL     1      -6.882  12.309  19.450  0.00  0.00    +0.000 A 
ATOM     32  C   UNL     1      -7.527  13.041  20.442  0.00  0.00    +0.000 A 
ATOM     33  C   UNL     1      -6.782  13.555  21.496  0.00  0.00    +0.000 A 
ATOM     34  C   UNL     1      -5.428  13.264  21.540  0.00  0.00    +0.000 A 
ATOM     35  N   UNL     1      -4.787  12.505  20.623  0.00  0.00    +0.000 NA
ATOM     36  H   UNL     1      -3.885  11.092  18.928  0.00  0.00    +0.000 HD
ENDBRANCH  26  27
ENDBRANCH  25  26
ENDBRANCH  24  25
ENDBRANCH   2  24
TORSDOF 10
ENDMDL
MODEL 7
REMARK VINA RESULT:      -7.6      5.707     10.519
REMARK  Name = 
REMARK  11 active torsions:
REMARK  status: ('A' for Active; 'I' for Inactive)
REMARK    1  A    between atoms: C_1  and  C_2
REMARK    2  A    between atoms: C_2  and  O_3
REMARK    3  A    between atoms: O_3  and  C_4
REMARK    4  A    between atoms: C_9  and  N_10
REMARK    5  A    between atoms: N_10  and  C_11
REMARK    6  A    between atoms: C_11  and  C_12
REMARK    7  A    between atoms: N_14  and  C_15
REMARK    8  A    between atoms: C_21  and  C_23
REMARK    9  A    between atoms: C_23  and  C_24
REMARK   10  A    between atoms: C_24  and  C_25
REMARK   11  A    between atoms: C_25  and  C_26
REMARK                            x       y       z     vdW  Elec       q    Type
REMARK                         _______ _______ _______ _____ _____    ______ ____
ROOT
ATOM      1  N   UNL     1       0.659   9.367  20.206  0.00  0.00    +0.000 N 
ATOM      2  C   UNL     1       1.486   8.476  19.484  0.00  0.00    +0.000 C 
ATOM      3  O   UNL     1       1.569   8.484  18.254  0.00  0.00    +0.000 OA
ENDROOT
BRANCH   1   9
ATOM      4  C   UNL     1       0.685  11.788  19.368  0.00  0.00    +0.000 A 
ATOM      5  C   UNL     1       0.048  12.785  18.592  0.00  0.00    +0.000 A 
ATOM      6  C   UNL     1      -1.150  12.551  17.943  0.00  0.00    +0.000 A 
ATOM      7  C   UNL     1      -1.738  11.311  18.040  0.00  0.00    +0.000 A 
ATOM      8  C   UNL     1      -1.122  10.293  18.770  0.00  0.00    +0.000 A 
ATOM      9  C   UNL     1       0.107  10.493  19.447  0.00  0.00    +0.000 A 
BRANCH   4  10
ATOM     10  O   UNL     1       1.790  12.327  19.960  0.00  0.00    +0.000 OA
BRANCH  10  12
ATOM     11  C   UNL     1       3.131  14.219  20.744  0.00  0.00    +0.000 C 
ATOM     12  C   UNL     1       2.123  13.676  19.766  0.00  0.00    +0.000 C 
ENDBRANCH  10  12
ENDBRANCH   4  10
ENDBRANCH   1   9
BRANCH   1  13
ATOM     13  C   UNL     1       0.889   9.609  21.659  0.00  0.00    +0.000 C 
BRANCH  13  14
ATOM     14  C   UNL     1      -0.270  10.219  22.534  0.00  0.00    +0.000 C 
ATOM     15  O   UNL     1      -0.902   9.516  23.317  0.00  0.00    +0.000 OA
ATOM     16  N   UNL     1      -0.434  11.584  22.456  0.00  0.00    +0.000 N 
ATOM     17  H   UNL     1       0.471  12.022  22.446  0.00  0.00    +0.000 HD
BRANCH  16  18
ATOM     18  C   UNL     1      -1.441  12.472  23.074  0.00  0.00    +0.000 C 
ATOM     19  C   UNL     1      -0.972  13.946  23.030  0.00  0.00    +0.000 C 
ATOM     20  C   UNL     1      -1.048  14.541  21.620  0.00  0.00    +0.000 C 
ATOM     21  C   UNL     1      -2.461  14.430  21.054  0.00  0.00    +0.000 C 
ATOM     22  C   UNL     1      -2.998  13.003  21.133  0.00  0.00    +0.000 C 
ATOM     23  C   UNL     1      -2.868  12.410  22.533  0.00  0.00    +0.000 C 
ENDBRANCH  16  18
ENDBRANCH  13  14
ENDBRANCH   1  13
BRANCH   2  24
ATOM     24  C   UNL     1       2.259   7.444  20.301  0.00  0.00    +0.000 C 
BRANCH  24  25
ATOM     25  C   UNL     1       1.528   6.126  20.582  0.00  0.00    +0.000 C 
BRANCH  25  26
ATOM     26  C   UNL     1       2.344   4.854  20.344  0.00  0.00    +0.000 C 
BRANCH  26  27
ATOM     27  C   UNL     1       3.062   4.845  19.009  0.00  0.00    +0.000 C 
ATOM     28  O   UNL     1       2.482   4.564  17.963  0.00  0.00    +0.000 OA
ATOM     29  N   UNL     1       4.397   5.179  19.117  0.00  0.00    +0.000 N 
ATOM     30  C   UNL     1       5.261   5.172  18.021  0.00  0.00    +0.000 A 
ATOM     31  C   UNL     1       4.915   5.758  16.809  0.00  0.00    +0.000 A 
ATOM     32  C   UNL     1       5.816   5.682  15.752  0.00  0.00    +0.000 A 
ATOM     33  C   UNL     1       7.010   4.996  15.929  0.00  0.00    +0.000 A 
ATOM     34  C   UNL     1       7.276   4.461  17.179  0.00  0.00    +0.000 A 
ATOM     35  N   UNL     1       6.447   4.572  18.241  0.00  0.00    +0.000 NA
ATOM     36  H   UNL     1       4.863   4.945  19.983  0.00  0.00    +0.000 HD
ENDBRANCH  26  27
ENDBRANCH  25  26
ENDBRANCH  24  25
ENDBRANCH   2  24
TORSDOF 10
ENDMDL
MODEL 8
REMARK VINA RESULT:      -7.6      6.570     10.961
REMARK  Name = 
REMARK  11 active torsions:
REMARK  status: ('A' for Active; 'I' for Inactive)
REMARK    1  A    between atoms: C_1  and  C_2
REMARK    2  A    between atoms: C_2  and  O_3
REMARK    3  A    between atoms: O_3  and  C_4
REMARK    4  A    between atoms: C_9  and  N_10
REMARK    5  A    between atoms: N_10  and  C_11
REMARK    6  A    between atoms: C_11  and  C_12
REMARK    7  A    between atoms: N_14  and  C_15
REMARK    8  A    between atoms: C_21  and  C_23
REMARK    9  A    between atoms: C_23  and  C_24
REMARK   10  A    between atoms: C_24  and  C_25
REMARK   11  A    between atoms: C_25  and  C_26
REMARK                            x       y       z     vdW  Elec       q    Type
REMARK                         _______ _______ _______ _____ _____    ______ ____
ROOT
ATOM      1  N   UNL     1       0.496  11.545  20.235  0.00  0.00    +0.000 N 
ATOM      2  C   UNL     1       0.345  10.610  19.185  0.00  0.00    +0.000 C 
ATOM      3  O   UNL     1      -0.692   9.970  19.000  0.00  0.00    +0.000 OA
ENDROOT
BRANCH   1   9
ATOM      4  C   UNL     1      -1.029  11.628  22.292  0.00  0.00    +0.000 A 
ATOM      5  C   UNL     1      -2.254  12.066  22.848  0.00  0.00    +0.000 A 
ATOM      6  C   UNL     1      -3.197  12.742  22.096  0.00  0.00    +0.000 A 
ATOM      7  C   UNL     1      -2.937  13.010  20.772  0.00  0.00    +0.000 A 
ATOM      8  C   UNL     1      -1.724  12.621  20.198  0.00  0.00    +0.000 A 
ATOM      9  C   UNL     1      -0.733  11.930  20.937  0.00  0.00    +0.000 A 
BRANCH   4  10
ATOM     10  O   UNL     1      -0.346  10.915  23.234  0.00  0.00    +0.000 OA
BRANCH  10  12
ATOM     11  C   UNL     1       1.084   9.072  22.489  0.00  0.00    +0.000 C 
ATOM     12  C   UNL     1      -0.207   9.523  23.120  0.00  0.00    +0.000 C 
ENDBRANCH  10  12
ENDBRANCH   4  10
ENDBRANCH   1   9
BRANCH   1  13
ATOM     13  C   UNL     1       1.571  12.576  20.185  0.00  0.00    +0.000 C 
BRANCH  13  14
ATOM     14  C   UNL     1       1.325  13.982  20.852  0.00  0.00    +0.000 C 
ATOM     15  O   UNL     1       1.581  14.168  22.038  0.00  0.00    +0.000 OA
ATOM     16  N   UNL     1       0.935  14.995  20.005  0.00  0.00    +0.000 N 
ATOM     17  H   UNL     1       1.464  14.930  19.151  0.00  0.00    +0.000 HD
BRANCH  16  18
ATOM     18  C   UNL     1       0.561  16.397  20.285  0.00  0.00    +0.000 C 
ATOM     19  C   UNL     1       1.689  17.363  19.851  0.00  0.00    +0.000 C 
ATOM     20  C   UNL     1       1.787  17.502  18.329  0.00  0.00    +0.000 C 
ATOM     21  C   UNL     1       0.458  17.960  17.735  0.00  0.00    +0.000 C 
ATOM     22  C   UNL     1      -0.704  17.077  18.184  0.00  0.00    +0.000 C 
ATOM     23  C   UNL     1      -0.754  16.910  19.700  0.00  0.00    +0.000 C 
ENDBRANCH  16  18
ENDBRANCH  13  14
ENDBRANCH   1  13
BRANCH   2  24
ATOM     24  C   UNL     1       1.562  10.381  18.291  0.00  0.00    +0.000 C 
BRANCH  24  25
ATOM     25  C   UNL     1       1.735   8.958  17.746  0.00  0.00    +0.000 C 
BRANCH  25  26
ATOM     26  C   UNL     1       2.195   7.912  18.764  0.00  0.00    +0.000 C 
BRANCH  26  27
ATOM     27  C   UNL     1       2.983   6.777  18.140  0.00  0.00    +0.000 C 
ATOM     28  O   UNL     1       2.494   5.663  17.976  0.00  0.00    +0.000 OA
ATOM     29  N   UNL     1       4.269   7.144  17.798  0.00  0.00    +0.000 N 
ATOM     30  C   UNL     1       5.189   6.238  17.267  0.00  0.00    +0.000 A 
ATOM     31  C   UNL     1       4.853   5.369  16.236  0.00  0.00    +0.000 A 
ATOM     32  C   UNL     1       5.815   4.472  15.781  0.00  0.00    +0.000 A 
ATOM     33  C   UNL     1       7.061   4.450  16.394  0.00  0.00    +0.000 A 
ATOM     34  C   UNL     1       7.310   5.368  17.401  0.00  0.00    +0.000 A 
ATOM     35  N   UNL     1       6.417   6.290  17.821  0.00  0.00    +0.000 NA
ATOM     36  H   UNL     1       4.708   7.866  18.353  0.00  0.00    +0.000 HD
ENDBRANCH  26  27
ENDBRANCH  25  26
ENDBRANCH  24  25
ENDBRANCH   2  24
TORSDOF 10
ENDMDL
MODEL 9
REMARK VINA RESULT:      -7.6      6.019      9.736
REMARK  Name = 
REMARK  11 active torsions:
REMARK  status: ('A' for Active; 'I' for Inactive)
REMARK    1  A    between atoms: C_1  and  C_2
REMARK    2  A    between atoms: C_2  and  O_3
REMARK    3  A    between atoms: O_3  and  C_4
REMARK    4  A    between atoms: C_9  and  N_10
REMARK    5  A    between atoms: N_10  and  C_11
REMARK    6  A    between atoms: C_11  and  C_12
REMARK    7  A    between atoms: N_14  and  C_15
REMARK    8  A    between atoms: C_21  and  C_23
REMARK    9  A    between atoms: C_23  and  C_24
REMARK   10  A    between atoms: C_24  and  C_25
REMARK   11  A    between atoms: C_25  and  C_26
REMARK                            x       y       z     vdW  Elec       q    Type
REMARK                         _______ _______ _______ _____ _____    ______ ____
ROOT
ATOM      1  N   UNL     1       2.428   7.135  18.516  0.00  0.00    +0.000 N 
ATOM      2  C   UNL     1       2.138   7.097  19.899  0.00  0.00    +0.000 C 
ATOM      3  O   UNL     1       2.236   6.072  20.578  0.00  0.00    +0.000 OA
ENDROOT
BRANCH   1   9
ATOM      4  C   UNL     1       2.520   4.698  17.732  0.00  0.00    +0.000 A 
ATOM      5  C   UNL     1       3.305   3.651  17.194  0.00  0.00    +0.000 A 
ATOM      6  C   UNL     1       4.653   3.808  16.933  0.00  0.00    +0.000 A 
ATOM      7  C   UNL     1       5.253   5.019  17.191  0.00  0.00    +0.000 A 
ATOM      8  C   UNL     1       4.503   6.085  17.692  0.00  0.00    +0.000 A 
ATOM      9  C   UNL     1       3.119   5.964  17.969  0.00  0.00    +0.000 A 
BRANCH   4  10
ATOM     10  O   UNL     1       1.261   4.231  17.969  0.00  0.00    +0.000 OA
BRANCH  10  12
ATOM     11  C   UNL     1       1.041   2.981  20.063  0.00  0.00    +0.000 C 
ATOM     12  C   UNL     1       1.060   2.973  18.557  0.00  0.00    +0.000 C 
ENDBRANCH  10  12
ENDBRANCH   4  10
ENDBRANCH   1   9
BRANCH   1  13
ATOM     13  C   UNL     1       2.698   8.432  17.832  0.00  0.00    +0.000 C 
BRANCH  13  14
ATOM     14  C   UNL     1       1.584   9.546  17.817  0.00  0.00    +0.000 C 
ATOM     15  O   UNL     1       0.418   9.264  17.555  0.00  0.00    +0.000 OA
ATOM     16  N   UNL     1       1.974  10.799  18.233  0.00  0.00    +0.000 N 
ATOM     17  H   UNL     1       2.580  10.705  19.031  0.00  0.00    +0.000 HD
BRANCH  16  18
ATOM     18  C   UNL     1       1.228  12.074  18.286  0.00  0.00    +0.000 C 
ATOM     19  C   UNL     1       0.554  12.257  19.667  0.00  0.00    +0.000 C 
ATOM     20  C   UNL     1       1.562  12.592  20.770  0.00  0.00    +0.000 C 
ATOM     21  C   UNL     1       2.366  13.841  20.417  0.00  0.00    +0.000 C 
ATOM     22  C   UNL     1       3.002  13.738  19.033  0.00  0.00    +0.000 C 
ATOM     23  C   UNL     1       1.991  13.356  17.956  0.00  0.00    +0.000 C 
ENDBRANCH  16  18
ENDBRANCH  13  14
ENDBRANCH   1  13
BRANCH   2  24
ATOM     24  C   UNL     1       1.642   8.395  20.532  0.00  0.00    +0.000 C 
BRANCH  24  25
ATOM     25  C   UNL     1       0.889   8.249  21.860  0.00  0.00    +0.000 C 
BRANCH  25  26
ATOM     26  C   UNL     1      -0.525   8.835  21.885  0.00  0.00    +0.000 C 
BRANCH  26  27
ATOM     27  C   UNL     1      -0.617  10.141  22.651  0.00  0.00    +0.000 C 
ATOM     28  O   UNL     1       0.245  10.481  23.457  0.00  0.00    +0.000 OA
ATOM     29  N   UNL     1      -1.750  10.865  22.338  0.00  0.00    +0.000 N 
ATOM     30  C   UNL     1      -2.066  12.068  22.972  0.00  0.00    +0.000 A 
ATOM     31  C   UNL     1      -1.124  13.072  23.155  0.00  0.00    +0.000 A 
ATOM     32  C   UNL     1      -1.506  14.230  23.825  0.00  0.00    +0.000 A 
ATOM     33  C   UNL     1      -2.801  14.330  24.318  0.00  0.00    +0.000 A 
ATOM     34  C   UNL     1      -3.676  13.285  24.068  0.00  0.00    +0.000 A 
ATOM     35  N   UNL     1      -3.350  12.176  23.369  0.00  0.00    +0.000 NA
ATOM     36  H   UNL     1      -2.569  10.344  22.057  0.00  0.00    +0.000 HD
ENDBRANCH  26  27
ENDBRANCH  25  26
ENDBRANCH  24  25
ENDBRANCH   2  24
TORSDOF 10
ENDMDL
