MODEL 1
REMARK VINA RESULT:      -7.3      0.000      0.000
REMARK  Name = 
REMARK  13 active torsions:
REMARK  status: ('A' for Active; 'I' for Inactive)
REMARK    1  A    between atoms: C_1  and  C_2
REMARK    2  A    between atoms: C_2  and  C_3
REMARK    3  A    between atoms: C_4  and  C_5
REMARK    4  A    between atoms: C_5  and  C_6
REMARK    5  A    between atoms: C_6  and  C_7
REMARK    6  A    between atoms: C_7  and  C_8
REMARK    7  A    between atoms: C_9  and  C_10
REMARK    8  A    between atoms: C_10  and  N_11
REMARK    9  A    between atoms: C_13  and  C_14
REMARK   10  A    between atoms: C_14  and  C_15
REMARK   11  A    between atoms: C_15  and  C_16
REMARK   12  A    between atoms: C_15  and  P_17
REMARK   13  A    between atoms: C_15  and  P_21
REMARK                            x       y       z     vdW  Elec       q    Type
REMARK                         _______ _______ _______ _____ _____    ______ ____
ROOT
ATOM      1  N   UNL     1       1.636   8.836  18.870  0.00  0.00    +0.000 N 
ATOM      2  C   UNL     1       2.314   7.779  18.374  0.00  0.00    +0.000 A 
ATOM      3  C   UNL     1       2.484   6.969  19.427  0.00  0.00    +0.000 A 
ATOM      4  N   UNL     1       1.759   7.442  20.501  0.00  0.00    +0.000 NA
ATOM      5  N   UNL     1       1.207   8.601  20.127  0.00  0.00    +0.000 NA
ENDROOT
BRANCH   1   6
ATOM      6  C   UNL     1       1.367  10.096  18.217  0.00  0.00    +0.000 C 
BRANCH   6   9
ATOM      7  C   UNL     1      -1.073  10.824  18.479  0.00  0.00    +0.000 C 
ATOM      8  C   UNL     1      -1.513   9.935  17.344  0.00  0.00    +0.000 C 
ATOM      9  C   UNL     1       0.223  10.864  18.859  0.00  0.00    +0.000 C 
BRANCH   7  10
ATOM     10  C   UNL     1      -2.023  11.842  19.077  0.00  0.00    +0.000 C 
BRANCH  10  11
ATOM     11  C   UNL     1      -1.468  12.696  20.225  0.00  0.00    +0.000 C 
BRANCH  11  15
ATOM     12  C   UNL     1      -3.310  12.332  23.653  0.00  0.00    +0.000 C 
ATOM     13  C   UNL     1      -2.270  12.198  22.580  0.00  0.00    +0.000 C 
ATOM     14  C   UNL     1      -1.128  11.241  22.839  0.00  0.00    +0.000 C 
ATOM     15  C   UNL     1      -2.423  12.816  21.390  0.00  0.00    +0.000 C 
ENDBRANCH  11  15
ENDBRANCH  10  11
ENDBRANCH   7  10
ENDBRANCH   6   9
ENDBRANCH   1   6
BRANCH   3  16
ATOM     16  C   UNL     1       3.320   5.737  19.542  0.00  0.00    +0.000 C 
BRANCH  16  17
ATOM     17  C   UNL     1       2.629   4.370  19.349  0.00  0.00    +0.000 C 
ATOM     18  C   UNL     1       1.598   4.605  18.195  0.00  0.00    +0.000 C 
BRANCH  17  19
ATOM     19  P   UNL     1       4.078   2.934  18.486  0.00  0.00    +0.000 P 
ATOM     20  O   UNL     1       5.111   2.707  19.620  0.00  0.00    +0.000 OA
ATOM     21  O   UNL     1       3.344   1.634  18.153  0.00  0.00    +0.000 OA
ATOM     22  O   UNL     1       4.678   3.601  17.253  0.00  0.00    +0.000 OA
ENDBRANCH  17  19
BRANCH  17  23
ATOM     23  P   UNL     1       1.952   3.402  20.745  0.00  0.00    +0.000 P 
ATOM     24  O   UNL     1       2.546   4.457  21.691  0.00  0.00    +0.000 OA
ATOM     25  O   UNL     1       0.530   3.452  20.163  0.00  0.00    +0.000 OA
ATOM     26  O   UNL     1       1.312   2.486  22.066  0.00  0.00    +0.000 OA
ENDBRANCH  17  23
ENDBRANCH  16  17
ENDBRANCH   3  16
TORSDOF 9
ENDMDL
MODEL 2
REMARK VINA RESULT:      -7.2      5.578      9.217
REMARK  Name = 
REMARK  13 active torsions:
REMARK  status: ('A' for Active; 'I' for Inactive)
REMARK    1  A    between atoms: C_1  and  C_2
REMARK    2  A    between atoms: C_2  and  C_3
REMARK    3  A    between atoms: C_4  and  C_5
REMARK    4  A    between atoms: C_5  and  C_6
REMARK    5  A    between atoms: C_6  and  C_7
REMARK    6  A    between atoms: C_7  and  C_8
REMARK    7  A    between atoms: C_9  and  C_10
REMARK    8  A    between atoms: C_10  and  N_11
REMARK    9  A    between atoms: C_13  and  C_14
REMARK   10  A    between atoms: C_14  and  C_15
REMARK   11  A    between atoms: C_15  and  C_16
REMARK   12  A    between atoms: C_15  and  P_17
REMARK   13  A    between atoms: C_15  and  P_21
REMARK                            x       y       z     vdW  Elec       q    Type
REMARK                         _______ _______ _______ _____ _____    ______ ____
ROOT
ATOM      1  N   UNL     1       5.788   5.712  15.663  0.00  0.00    +0.000 N 
ATOM      2  C   UNL     1       4.769   4.902  16.023  0.00  0.00    +0.000 A 
ATOM      3  C   UNL     1       4.097   5.602  16.944  0.00  0.00    +0.000 A 
ATOM      4  N   UNL     1       4.591   6.889  17.005  0.00  0.00    +0.000 NA
ATOM      5  N   UNL     1       5.635   6.952  16.172  0.00  0.00    +0.000 NA
ENDROOT
BRANCH   1   6
ATOM      6  C   UNL     1       6.935   5.380  14.851  0.00  0.00    +0.000 C 
BRANCH   6   9
ATOM      7  C   UNL     1       6.965   4.140  12.612  0.00  0.00    +0.000 C 
ATOM      8  C   UNL     1       7.609   5.311  11.914  0.00  0.00    +0.000 C 
ATOM      9  C   UNL     1       6.688   4.193  13.933  0.00  0.00    +0.000 C 
BRANCH   7  10
ATOM     10  C   UNL     1       6.424   2.969  11.817  0.00  0.00    +0.000 C 
BRANCH  10  11
ATOM     11  C   UNL     1       4.896   2.846  11.744  0.00  0.00    +0.000 C 
BRANCH  11  15
ATOM     12  C   UNL     1       2.657   4.781   9.191  0.00  0.00    +0.000 C 
ATOM     13  C   UNL     1       3.176   3.691  10.081  0.00  0.00    +0.000 C 
ATOM     14  C   UNL     1       2.523   2.332   9.962  0.00  0.00    +0.000 C 
ATOM     15  C   UNL     1       4.258   3.894  10.861  0.00  0.00    +0.000 C 
ENDBRANCH  11  15
ENDBRANCH  10  11
ENDBRANCH   7  10
ENDBRANCH   6   9
ENDBRANCH   1   6
BRANCH   3  16
ATOM     16  C   UNL     1       2.986   5.159  17.839  0.00  0.00    +0.000 C 
BRANCH  16  17
ATOM     17  C   UNL     1       3.349   4.339  19.096  0.00  0.00    +0.000 C 
ATOM     18  C   UNL     1       4.569   5.092  19.724  0.00  0.00    +0.000 C 
BRANCH  17  19
ATOM     19  P   UNL     1       1.745   4.564  20.606  0.00  0.00    +0.000 P 
ATOM     20  O   UNL     1       2.309   3.862  21.869  0.00  0.00    +0.000 OA
ATOM     21  O   UNL     1       1.522   6.054  20.869  0.00  0.00    +0.000 OA
ATOM     22  O   UNL     1       0.508   3.876  20.040  0.00  0.00    +0.000 OA
ENDBRANCH  17  19
BRANCH  17  23
ATOM     23  P   UNL     1       3.556   2.521  19.061  0.00  0.00    +0.000 P 
ATOM     24  O   UNL     1       2.947   2.536  17.651  0.00  0.00    +0.000 OA
ATOM     25  O   UNL     1       5.059   2.631  19.364  0.00  0.00    +0.000 OA
ATOM     26  O   UNL     1       3.751   0.803  19.027  0.00  0.00    +0.000 OA
ENDBRANCH  17  23
ENDBRANCH  16  17
ENDBRANCH   3  16
TORSDOF 9
ENDMDL
MODEL 3
REMARK VINA RESULT:      -7.1      1.662      2.463
REMARK  Name = 
REMARK  13 active torsions:
REMARK  status: ('A' for Active; 'I' for Inactive)
REMARK    1  A    between atoms: C_1  and  C_2
REMARK    2  A    between atoms: C_2  and  C_3
REMARK    3  A    between atoms: C_4  and  C_5
REMARK    4  A    between atoms: C_5  and  C_6
REMARK    5  A    between atoms: C_6  and  C_7
REMARK    6  A    between atoms: C_7  and  C_8
REMARK    7  A    between atoms: C_9  and  C_10
REMARK    8  A    between atoms: C_10  and  N_11
REMARK    9  A    between atoms: C_13  and  C_14
REMARK   10  A    between atoms: C_14  and  C_15
REMARK   11  A    between atoms: C_15  and  C_16
REMARK   12  A    between atoms: C_15  and  P_17
REMARK   13  A    between atoms: C_15  and  P_21
REMARK                            x       y       z     vdW  Elec       q    Type
REMARK                         _______ _______ _______ _____ _____    ______ ____
ROOT
ATOM      1  N   UNL     1       1.441   8.865  19.121  0.00  0.00    +0.000 N 
ATOM      2  C   UNL     1       2.110   7.848  18.535  0.00  0.00    +0.000 A 
ATOM      3  C   UNL     1       2.418   7.027  19.547  0.00  0.00    +0.000 A 
ATOM      4  N   UNL     1       1.785   7.445  20.698  0.00  0.00    +0.000 NA
ATOM      5  N   UNL     1       1.150   8.586  20.408  0.00  0.00    +0.000 NA
ENDROOT
BRANCH   1   6
ATOM      6  C   UNL     1       1.055  10.124  18.529  0.00  0.00    +0.000 C 
BRANCH   6   9
ATOM      7  C   UNL     1      -1.440  10.631  18.273  0.00  0.00    +0.000 C 
ATOM      8  C   UNL     1      -1.457  11.444  19.542  0.00  0.00    +0.000 C 
ATOM      9  C   UNL     1      -0.295  10.063  17.834  0.00  0.00    +0.000 C 
BRANCH   7  10
ATOM     10  C   UNL     1      -2.733  10.256  17.577  0.00  0.00    +0.000 C 
BRANCH  10  11
ATOM     11  C   UNL     1      -3.747  11.390  17.370  0.00  0.00    +0.000 C 
BRANCH  11  15
ATOM     12  C   UNL     1      -7.072  11.163  19.411  0.00  0.00    +0.000 C 
ATOM     13  C   UNL     1      -5.719  11.618  18.950  0.00  0.00    +0.000 C 
ATOM     14  C   UNL     1      -5.000  12.631  19.811  0.00  0.00    +0.000 C 
ATOM     15  C   UNL     1      -5.129  11.048  17.878  0.00  0.00    +0.000 C 
ENDBRANCH  11  15
ENDBRANCH  10  11
ENDBRANCH   7  10
ENDBRANCH   6   9
ENDBRANCH   1   6
BRANCH   3  16
ATOM     16  C   UNL     1       3.313   5.830  19.549  0.00  0.00    +0.000 C 
BRANCH  16  17
ATOM     17  C   UNL     1       2.669   4.442  19.344  0.00  0.00    +0.000 C 
ATOM     18  C   UNL     1       1.713   4.623  18.118  0.00  0.00    +0.000 C 
BRANCH  17  19
ATOM     19  P   UNL     1       4.207   3.023  18.618  0.00  0.00    +0.000 P 
ATOM     20  O   UNL     1       4.824   3.729  17.383  0.00  0.00    +0.000 OA
ATOM     21  O   UNL     1       5.257   2.831  19.713  0.00  0.00    +0.000 OA
ATOM     22  O   UNL     1       3.481   1.728  18.268  0.00  0.00    +0.000 OA
ENDBRANCH  17  19
BRANCH  17  23
ATOM     23  P   UNL     1       1.922   3.490  20.716  0.00  0.00    +0.000 P 
ATOM     24  O   UNL     1       2.646   4.433  21.689  0.00  0.00    +0.000 OA
ATOM     25  O   UNL     1       0.502   3.718  20.173  0.00  0.00    +0.000 OA
ATOM     26  O   UNL     1       1.215   2.591  22.014  0.00  0.00    +0.000 OA
ENDBRANCH  17  23
ENDBRANCH  16  17
ENDBRANCH   3  16
TORSDOF 9
ENDMDL
MODEL 4
REMARK VINA RESULT:      -7.0      1.360      3.204
REMARK  Name = 
REMARK  13 active torsions:
REMARK  status: ('A' for Active; 'I' for Inactive)
REMARK    1  A    between atoms: C_1  and  C_2
REMARK    2  A    between atoms: C_2  and  C_3
REMARK    3  A    between atoms: C_4  and  C_5
REMARK    4  A    between atoms: C_5  and  C_6
REMARK    5  A    between atoms: C_6  and  C_7
REMARK    6  A    between atoms: C_7  and  C_8
REMARK    7  A    between atoms: C_9  and  C_10
REMARK    8  A    between atoms: C_10  and  N_11
REMARK    9  A    between atoms: C_13  and  C_14
REMARK   10  A    between atoms: C_14  and  C_15
REMARK   11  A    between atoms: C_15  and  C_16
REMARK   12  A    between atoms: C_15  and  P_17
REMARK   13  A    between atoms: C_15  and  P_21
REMARK                            x       y       z     vdW  Elec       q    Type
REMARK                         _______ _______ _______ _____ _____    ______ ____
ROOT
ATOM      1  N   UNL     1       1.749   8.872  19.147  0.00  0.00    +0.000 N 
ATOM      2  C   UNL     1       2.449   7.872  18.570  0.00  0.00    +0.000 A 
ATOM      3  C   UNL     1       2.528   6.931  19.519  0.00  0.00    +0.000 A 
ATOM      4  N   UNL     1       1.731   7.279  20.590  0.00  0.00    +0.000 NA
ATOM      5  N   UNL     1       1.224   8.488  20.329  0.00  0.00    +0.000 NA
ENDROOT
BRANCH   1   6
ATOM      6  C   UNL     1       1.545  10.211  18.645  0.00  0.00    +0.000 C 
BRANCH   6   9
ATOM      7  C   UNL     1      -0.811  11.145  19.002  0.00  0.00    +0.000 C 
ATOM      8  C   UNL     1      -0.434  11.723  20.342  0.00  0.00    +0.000 C 
ATOM      9  C   UNL     1       0.102  10.485  18.255  0.00  0.00    +0.000 C 
BRANCH   7  10
ATOM     10  C   UNL     1      -2.259  11.104  18.556  0.00  0.00    +0.000 C 
BRANCH  10  11
ATOM     11  C   UNL     1      -2.767   9.759  18.021  0.00  0.00    +0.000 C 
BRANCH  11  15
ATOM     12  C   UNL     1      -3.449  10.202  14.198  0.00  0.00    +0.000 C 
ATOM     13  C   UNL     1      -3.508  10.408  15.683  0.00  0.00    +0.000 C 
ATOM     14  C   UNL     1      -4.554  11.366  16.207  0.00  0.00    +0.000 C 
ATOM     15  C   UNL     1      -2.739   9.673  16.512  0.00  0.00    +0.000 C 
ENDBRANCH  11  15
ENDBRANCH  10  11
ENDBRANCH   7  10
ENDBRANCH   6   9
ENDBRANCH   1   6
BRANCH   3  16
ATOM     16  C   UNL     1       3.338   5.676  19.534  0.00  0.00    +0.000 C 
BRANCH  16  17
ATOM     17  C   UNL     1       2.599   4.333  19.346  0.00  0.00    +0.000 C 
ATOM     18  C   UNL     1       1.609   4.586  18.161  0.00  0.00    +0.000 C 
BRANCH  17  19
ATOM     19  P   UNL     1       4.013   2.825  18.549  0.00  0.00    +0.000 P 
ATOM     20  O   UNL     1       5.019   2.597  19.707  0.00  0.00    +0.000 OA
ATOM     21  O   UNL     1       3.241   1.541  18.241  0.00  0.00    +0.000 OA
ATOM     22  O   UNL     1       4.655   3.437  17.309  0.00  0.00    +0.000 OA
ENDBRANCH  17  19
BRANCH  17  23
ATOM     23  P   UNL     1       1.848   3.418  20.741  0.00  0.00    +0.000 P 
ATOM     24  O   UNL     1       2.636   4.333  21.691  0.00  0.00    +0.000 OA
ATOM     25  O   UNL     1       0.425   3.704  20.234  0.00  0.00    +0.000 OA
ATOM     26  O   UNL     1       1.138   2.554  22.060  0.00  0.00    +0.000 OA
ENDBRANCH  17  23
ENDBRANCH  16  17
ENDBRANCH   3  16
TORSDOF 9
ENDMDL
MODEL 5
REMARK VINA RESULT:      -6.7      5.139      8.364
REMARK  Name = 
REMARK  13 active torsions:
REMARK  status: ('A' for Active; 'I' for Inactive)
REMARK    1  A    between atoms: C_1  and  C_2
REMARK    2  A    between atoms: C_2  and  C_3
REMARK    3  A    between atoms: C_4  and  C_5
REMARK    4  A    between atoms: C_5  and  C_6
REMARK    5  A    between atoms: C_6  and  C_7
REMARK    6  A    between atoms: C_7  and  C_8
REMARK    7  A    between atoms: C_9  and  C_10
REMARK    8  A    between atoms: C_10  and  N_11
REMARK    9  A    between atoms: C_13  and  C_14
REMARK   10  A    between atoms: C_14  and  C_15
REMARK   11  A    between atoms: C_15  and  C_16
REMARK   12  A    between atoms: C_15  and  P_17
REMARK   13  A    between atoms: C_15  and  P_21
REMARK                            x       y       z     vdW  Elec       q    Type
REMARK                         _______ _______ _______ _____ _____    ______ ____
ROOT
ATOM      1  N   UNL     1       2.929   7.528  18.248  0.00  0.00    +0.000 N 
ATOM      2  C   UNL     1       2.256   8.569  17.711  0.00  0.00    +0.000 A 
ATOM      3  C   UNL     1       1.380   8.923  18.659  0.00  0.00    +0.000 A 
ATOM      4  N   UNL     1       1.645   8.229  19.822  0.00  0.00    +0.000 NA
ATOM      5  N   UNL     1       2.640   7.377  19.557  0.00  0.00    +0.000 NA
ENDROOT
BRANCH   1   6
ATOM      6  C   UNL     1       3.849   6.635  17.583  0.00  0.00    +0.000 C 
BRANCH   6   9
ATOM      7  C   UNL     1       4.081   4.119  17.169  0.00  0.00    +0.000 C 
ATOM      8  C   UNL     1       5.167   4.337  16.146  0.00  0.00    +0.000 C 
ATOM      9  C   UNL     1       3.519   5.168  17.810  0.00  0.00    +0.000 C 
BRANCH   7  10
ATOM     10  C   UNL     1       3.452   2.753  17.351  0.00  0.00    +0.000 C 
BRANCH  10  11
ATOM     11  C   UNL     1       2.062   2.727  18.001  0.00  0.00    +0.000 C 
BRANCH  11  15
ATOM     12  C   UNL     1       1.694   2.493  21.885  0.00  0.00    +0.000 C 
ATOM     13  C   UNL     1       1.554   2.982  20.473  0.00  0.00    +0.000 C 
ATOM     14  C   UNL     1       0.912   4.336  20.272  0.00  0.00    +0.000 C 
ATOM     15  C   UNL     1       2.093   2.291  19.448  0.00  0.00    +0.000 C 
ENDBRANCH  11  15
ENDBRANCH  10  11
ENDBRANCH   7  10
ENDBRANCH   6   9
ENDBRANCH   1   6
BRANCH   3  16
ATOM     16  C   UNL     1       0.242   9.887  18.577  0.00  0.00    +0.000 C 
BRANCH  16  17
ATOM     17  C   UNL     1       0.321  11.177  19.422  0.00  0.00    +0.000 C 
ATOM     18  C   UNL     1       1.684  11.833  19.021  0.00  0.00    +0.000 C 
BRANCH  17  19
ATOM     19  P   UNL     1      -1.199  12.618  18.700  0.00  0.00    +0.000 P 
ATOM     20  O   UNL     1      -0.385  13.897  18.373  0.00  0.00    +0.000 OA
ATOM     21  O   UNL     1      -1.852  12.054  17.437  0.00  0.00    +0.000 OA
ATOM     22  O   UNL     1      -2.194  12.815  19.838  0.00  0.00    +0.000 OA
ENDBRANCH  17  19
BRANCH  17  23
ATOM     23  P   UNL     1       0.005  11.195  21.223  0.00  0.00    +0.000 P 
ATOM     24  O   UNL     1      -0.775   9.884  21.043  0.00  0.00    +0.000 OA
ATOM     25  O   UNL     1       1.507  11.282  21.541  0.00  0.00    +0.000 OA
ATOM     26  O   UNL     1      -0.294  11.212  22.927  0.00  0.00    +0.000 OA
ENDBRANCH  17  23
ENDBRANCH  16  17
ENDBRANCH   3  16
TORSDOF 9
ENDMDL
MODEL 6
REMARK VINA RESULT:      -6.7      2.689      4.400
REMARK  Name = 
REMARK  13 active torsions:
REMARK  status: ('A' for Active; 'I' for Inactive)
REMARK    1  A    between atoms: C_1  and  C_2
REMARK    2  A    between atoms: C_2  and  C_3
REMARK    3  A    between atoms: C_4  and  C_5
REMARK    4  A    between atoms: C_5  and  C_6
REMARK    5  A    between atoms: C_6  and  C_7
REMARK    6  A    between atoms: C_7  and  C_8
REMARK    7  A    between atoms: C_9  and  C_10
REMARK    8  A    between atoms: C_10  and  N_11
REMARK    9  A    between atoms: C_13  and  C_14
REMARK   10  A    between atoms: C_14  and  C_15
REMARK   11  A    between atoms: C_15  and  C_16
REMARK   12  A    between atoms: C_15  and  P_17
REMARK   13  A    between atoms: C_15  and  P_21
REMARK                            x       y       z     vdW  Elec       q    Type
REMARK                         _______ _______ _______ _____ _____    ______ ____
ROOT
ATOM      1  N   UNL     1       2.299   7.360  19.687  0.00  0.00    +0.000 N 
ATOM      2  C   UNL     1       2.872   6.147  19.531  0.00  0.00    +0.000 A 
ATOM      3  C   UNL     1       3.295   6.141  18.260  0.00  0.00    +0.000 A 
ATOM      4  N   UNL     1       3.147   7.398  17.712  0.00  0.00    +0.000 NA
ATOM      5  N   UNL     1       2.547   8.162  18.631  0.00  0.00    +0.000 NA
ENDROOT
BRANCH   1   6
ATOM      6  C   UNL     1       1.501   7.822  20.799  0.00  0.00    +0.000 C 
BRANCH   6   9
ATOM      7  C   UNL     1       0.056   9.853  21.381  0.00  0.00    +0.000 C 
ATOM      8  C   UNL     1       0.037   9.484  22.842  0.00  0.00    +0.000 C 
ATOM      9  C   UNL     1       0.734   9.098  20.489  0.00  0.00    +0.000 C 
BRANCH   7  10
ATOM     10  C   UNL     1      -0.847  10.946  20.847  0.00  0.00    +0.000 C 
BRANCH  10  11
ATOM     11  C   UNL     1      -0.519  11.474  19.444  0.00  0.00    +0.000 C 
BRANCH  11  15
ATOM     12  C   UNL     1      -2.938   9.827  16.854  0.00  0.00    +0.000 C 
ATOM     13  C   UNL     1      -2.408  10.744  17.916  0.00  0.00    +0.000 C 
ATOM     14  C   UNL     1      -3.395  11.679  18.577  0.00  0.00    +0.000 C 
ATOM     15  C   UNL     1      -1.131  10.642  18.340  0.00  0.00    +0.000 C 
ENDBRANCH  11  15
ENDBRANCH  10  11
ENDBRANCH   7  10
ENDBRANCH   6   9
ENDBRANCH   1   6
BRANCH   3  16
ATOM     16  C   UNL     1       3.837   5.006  17.454  0.00  0.00    +0.000 C 
BRANCH  16  17
ATOM     17  C   UNL     1       5.370   4.841  17.373  0.00  0.00    +0.000 C 
ATOM     18  C   UNL     1       5.585   3.509  16.580  0.00  0.00    +0.000 C 
BRANCH  17  19
ATOM     19  P   UNL     1       6.205   6.399  16.038  0.00  0.00    +0.000 P 
ATOM     20  O   UNL     1       6.615   7.544  17.000  0.00  0.00    +0.000 OA
ATOM     21  O   UNL     1       7.429   5.828  15.320  0.00  0.00    +0.000 OA
ATOM     22  O   UNL     1       5.092   6.795  15.074  0.00  0.00    +0.000 OA
ENDBRANCH  17  19
BRANCH  17  23
ATOM     23  P   UNL     1       6.458   5.002  18.835  0.00  0.00    +0.000 P 
ATOM     24  O   UNL     1       5.466   4.111  19.599  0.00  0.00    +0.000 OA
ATOM     25  O   UNL     1       7.676   4.482  18.054  0.00  0.00    +0.000 OA
ATOM     26  O   UNL     1       7.486   5.153  20.218  0.00  0.00    +0.000 OA
ENDBRANCH  17  23
ENDBRANCH  16  17
ENDBRANCH   3  16
TORSDOF 9
ENDMDL
MODEL 7
REMARK VINA RESULT:      -6.7      1.195      1.943
REMARK  Name = 
REMARK  13 active torsions:
REMARK  status: ('A' for Active; 'I' for Inactive)
REMARK    1  A    between atoms: C_1  and  C_2
REMARK    2  A    between atoms: C_2  and  C_3
REMARK    3  A    between atoms: C_4  and  C_5
REMARK    4  A    between atoms: C_5  and  C_6
REMARK    5  A    between atoms: C_6  and  C_7
REMARK    6  A    between atoms: C_7  and  C_8
REMARK    7  A    between atoms: C_9  and  C_10
REMARK    8  A    between atoms: C_10  and  N_11
REMARK    9  A    between atoms: C_13  and  C_14
REMARK   10  A    between atoms: C_14  and  C_15
REMARK   11  A    between atoms: C_15  and  C_16
REMARK   12  A    between atoms: C_15  and  P_17
REMARK   13  A    between atoms: C_15  and  P_21
REMARK                            x       y       z     vdW  Elec       q    Type
REMARK                         _______ _______ _______ _____ _____    ______ ____
ROOT
ATOM      1  N   UNL     1       1.760   8.609  18.254  0.00  0.00    +0.000 N 
ATOM      2  C   UNL     1       1.973   7.764  19.287  0.00  0.00    +0.000 A 
ATOM      3  C   UNL     1       2.960   6.964  18.863  0.00  0.00    +0.000 A 
ATOM      4  N   UNL     1       3.462   7.435  17.667  0.00  0.00    +0.000 NA
ATOM      5  N   UNL     1       2.717   8.487  17.312  0.00  0.00    +0.000 NA
ENDROOT
BRANCH   1   6
ATOM      6  C   UNL     1       0.673   9.545  18.092  0.00  0.00    +0.000 C 
BRANCH   6   9
ATOM      7  C   UNL     1       0.675  11.394  19.862  0.00  0.00    +0.000 C 
ATOM      8  C   UNL     1       1.626  12.238  19.053  0.00  0.00    +0.000 C 
ATOM      9  C   UNL     1       0.251  10.198  19.399  0.00  0.00    +0.000 C 
BRANCH   7  10
ATOM     10  C   UNL     1       0.337  11.764  21.292  0.00  0.00    +0.000 C 
BRANCH  10  11
ATOM     11  C   UNL     1      -0.762  10.933  21.967  0.00  0.00    +0.000 C 
BRANCH  11  15
ATOM     12  C   UNL     1      -3.273  13.183  23.944  0.00  0.00    +0.000 C 
ATOM     13  C   UNL     1      -2.640  12.407  22.827  0.00  0.00    +0.000 C 
ATOM     14  C   UNL     1      -3.238  12.567  21.448  0.00  0.00    +0.000 C 
ATOM     15  C   UNL     1      -1.511  11.697  23.035  0.00  0.00    +0.000 C 
ENDBRANCH  11  15
ENDBRANCH  10  11
ENDBRANCH   7  10
ENDBRANCH   6   9
ENDBRANCH   1   6
BRANCH   3  16
ATOM     16  C   UNL     1       3.498   5.721  19.490  0.00  0.00    +0.000 C 
BRANCH  16  17
ATOM     17  C   UNL     1       2.707   4.409  19.299  0.00  0.00    +0.000 C 
ATOM     18  C   UNL     1       1.709   4.713  18.132  0.00  0.00    +0.000 C 
BRANCH  17  19
ATOM     19  P   UNL     1       4.050   2.858  18.464  0.00  0.00    +0.000 P 
ATOM     20  O   UNL     1       4.735   3.556  17.260  0.00  0.00    +0.000 OA
ATOM     21  O   UNL     1       5.081   2.476  19.527  0.00  0.00    +0.000 OA
ATOM     22  O   UNL     1       3.167   1.685  18.055  0.00  0.00    +0.000 OA
ENDBRANCH  17  19
BRANCH  17  23
ATOM     23  P   UNL     1       1.942   3.507  20.695  0.00  0.00    +0.000 P 
ATOM     24  O   UNL     1       2.274   4.716  21.583  0.00  0.00    +0.000 OA
ATOM     25  O   UNL     1       0.623   3.324  19.926  0.00  0.00    +0.000 OA
ATOM     26  O   UNL     1       1.219   2.655  22.016  0.00  0.00    +0.000 OA
ENDBRANCH  17  23
ENDBRANCH  16  17
ENDBRANCH   3  16
TORSDOF 9
ENDMDL
MODEL 8
REMARK VINA RESULT:      -6.6      0.840      1.452
REMARK  Name = 
REMARK  13 active torsions:
REMARK  status: ('A' for Active; 'I' for Inactive)
REMARK    1  A    between atoms: C_1  and  C_2
REMARK    2  A    between atoms: C_2  and  C_3
REMARK    3  A    between atoms: C_4  and  C_5
REMARK    4  A    between atoms: C_5  and  C_6
REMARK    5  A    between atoms: C_6  and  C_7
REMARK    6  A    between atoms: C_7  and  C_8
REMARK    7  A    between atoms: C_9  and  C_10
REMARK    8  A    between atoms: C_10  and  N_11
REMARK    9  A    between atoms: C_13  and  C_14
REMARK   10  A    between atoms: C_14  and  C_15
REMARK   11  A    between atoms: C_15  and  C_16
REMARK   12  A    between atoms: C_15  and  P_17
REMARK   13  A    between atoms: C_15  and  P_21
REMARK                            x       y       z     vdW  Elec       q    Type
REMARK                         _______ _______ _______ _____ _____    ______ ____
ROOT
ATOM      1  N   UNL     1       1.619   8.844  18.846  0.00  0.00    +0.000 N 
ATOM      2  C   UNL     1       2.322   7.793  18.369  0.00  0.00    +0.000 A 
ATOM      3  C   UNL     1       2.482   6.992  19.430  0.00  0.00    +0.000 A 
ATOM      4  N   UNL     1       1.729   7.461  20.487  0.00  0.00    +0.000 NA
ATOM      5  N   UNL     1       1.169   8.610  20.095  0.00  0.00    +0.000 NA
ENDROOT
BRANCH   1   6
ATOM      6  C   UNL     1       1.345  10.096  18.180  0.00  0.00    +0.000 C 
BRANCH   6   9
ATOM      7  C   UNL     1      -1.103  10.802  18.429  0.00  0.00    +0.000 C 
ATOM      8  C   UNL     1      -1.532   9.890  17.308  0.00  0.00    +0.000 C 
ATOM      9  C   UNL     1       0.193  10.862  18.810  0.00  0.00    +0.000 C 
BRANCH   7  10
ATOM     10  C   UNL     1      -2.064  11.819  19.011  0.00  0.00    +0.000 C 
BRANCH  10  11
ATOM     11  C   UNL     1      -1.756  12.308  20.433  0.00  0.00    +0.000 C 
BRANCH  11  15
ATOM     12  C   UNL     1      -3.959  15.330  21.569  0.00  0.00    +0.000 C 
ATOM     13  C   UNL     1      -3.459  13.927  21.391  0.00  0.00    +0.000 C 
ATOM     14  C   UNL     1      -4.354  12.808  21.871  0.00  0.00    +0.000 C 
ATOM     15  C   UNL     1      -2.314  13.684  20.720  0.00  0.00    +0.000 C 
ENDBRANCH  11  15
ENDBRANCH  10  11
ENDBRANCH   7  10
ENDBRANCH   6   9
ENDBRANCH   1   6
BRANCH   3  16
ATOM     16  C   UNL     1       3.333   5.773  19.568  0.00  0.00    +0.000 C 
BRANCH  16  17
ATOM     17  C   UNL     1       2.667   4.395  19.361  0.00  0.00    +0.000 C 
ATOM     18  C   UNL     1       1.694   4.602  18.153  0.00  0.00    +0.000 C 
BRANCH  17  19
ATOM     19  P   UNL     1       4.173   2.962  18.595  0.00  0.00    +0.000 P 
ATOM     20  O   UNL     1       3.346   1.707  18.216  0.00  0.00    +0.000 OA
ATOM     21  O   UNL     1       4.842   3.564  17.359  0.00  0.00    +0.000 OA
ATOM     22  O   UNL     1       5.158   2.711  19.732  0.00  0.00    +0.000 OA
ENDBRANCH  17  19
BRANCH  17  23
ATOM     23  P   UNL     1       1.930   3.440  20.736  0.00  0.00    +0.000 P 
ATOM     24  O   UNL     1       2.565   4.450  21.703  0.00  0.00    +0.000 OA
ATOM     25  O   UNL     1       0.518   3.570  20.141  0.00  0.00    +0.000 OA
ATOM     26  O   UNL     1       1.233   2.538  22.036  0.00  0.00    +0.000 OA
ENDBRANCH  17  23
ENDBRANCH  16  17
ENDBRANCH   3  16
TORSDOF 9
ENDMDL
MODEL 9
REMARK VINA RESULT:      -6.5      1.370      2.118
REMARK  Name = 
REMARK  13 active torsions:
REMARK  status: ('A' for Active; 'I' for Inactive)
REMARK    1  A    between atoms: C_1  and  C_2
REMARK    2  A    between atoms: C_2  and  C_3
REMARK    3  A    between atoms: C_4  and  C_5
REMARK    4  A    between atoms: C_5  and  C_6
REMARK    5  A    between atoms: C_6  and  C_7
REMARK    6  A    between atoms: C_7  and  C_8
REMARK    7  A    between atoms: C_9  and  C_10
REMARK    8  A    between atoms: C_10  and  N_11
REMARK    9  A    between atoms: C_13  and  C_14
REMARK   10  A    between atoms: C_14  and  C_15
REMARK   11  A    between atoms: C_15  and  C_16
REMARK   12  A    between atoms: C_15  and  P_17
REMARK   13  A    between atoms: C_15  and  P_21
REMARK                            x       y       z     vdW  Elec       q    Type
REMARK                         _______ _______ _______ _____ _____    ______ ____
ROOT
ATOM      1  N   UNL     1       2.035   8.371  17.994  0.00  0.00    +0.000 N 
ATOM      2  C   UNL     1       2.056   7.659  19.142  0.00  0.00    +0.000 A 
ATOM      3  C   UNL     1       3.038   6.766  18.961  0.00  0.00    +0.000 A 
ATOM      4  N   UNL     1       3.723   7.054  17.798  0.00  0.00    +0.000 NA
ATOM      5  N   UNL     1       3.099   8.084  17.216  0.00  0.00    +0.000 NA
ENDROOT
BRANCH   1   6
ATOM      6  C   UNL     1       1.040   9.327  17.568  0.00  0.00    +0.000 C 
BRANCH   6   9
ATOM      7  C   UNL     1      -0.648  10.724  18.890  0.00  0.00    +0.000 C 
ATOM      8  C   UNL     1      -1.784  10.283  18.003  0.00  0.00    +0.000 C 
ATOM      9  C   UNL     1       0.606  10.267  18.681  0.00  0.00    +0.000 C 
BRANCH   7  10
ATOM     10  C   UNL     1      -0.840  11.842  19.895  0.00  0.00    +0.000 C 
BRANCH  10  11
ATOM     11  C   UNL     1      -1.277  11.420  21.305  0.00  0.00    +0.000 C 
BRANCH  11  15
ATOM     12  C   UNL     1       1.333   9.259  23.251  0.00  0.00    +0.000 C 
ATOM     13  C   UNL     1       0.214   9.641  22.328  0.00  0.00    +0.000 C 
ATOM     14  C   UNL     1      -0.589   8.518  21.712  0.00  0.00    +0.000 C 
ATOM     15  C   UNL     1      -0.130  10.935  22.160  0.00  0.00    +0.000 C 
ENDBRANCH  11  15
ENDBRANCH  10  11
ENDBRANCH   7  10
ENDBRANCH   6   9
ENDBRANCH   1   6
BRANCH   3  16
ATOM     16  C   UNL     1       3.409   5.591  19.805  0.00  0.00    +0.000 C 
BRANCH  16  17
ATOM     17  C   UNL     1       2.685   4.253  19.546  0.00  0.00    +0.000 C 
ATOM     18  C   UNL     1       1.679   4.562  18.387  0.00  0.00    +0.000 C 
BRANCH  17  19
ATOM     19  P   UNL     1       4.108   2.811  18.649  0.00  0.00    +0.000 P 
ATOM     20  O   UNL     1       3.220   1.609  18.233  0.00  0.00    +0.000 OA
ATOM     21  O   UNL     1       4.756   3.457  17.424  0.00  0.00    +0.000 OA
ATOM     22  O   UNL     1       5.121   2.461  19.734  0.00  0.00    +0.000 OA
ENDBRANCH  17  19
BRANCH  17  23
ATOM     23  P   UNL     1       1.958   3.249  20.892  0.00  0.00    +0.000 P 
ATOM     24  O   UNL     1       2.302   4.395  21.855  0.00  0.00    +0.000 OA
ATOM     25  O   UNL     1       0.623   3.110  20.141  0.00  0.00    +0.000 OA
ATOM     26  O   UNL     1       1.270   2.301  22.165  0.00  0.00    +0.000 OA
ENDBRANCH  17  23
ENDBRANCH  16  17
ENDBRANCH   3  16
TORSDOF 9
ENDMDL
