MODEL 1
REMARK VINA RESULT:      -7.8      0.000      0.000
REMARK  Name = 
REMARK  9 active torsions:
REMARK  status: ('A' for Active; 'I' for Inactive)
REMARK    1  A    between atoms: C_1  and  O_2
REMARK    2  A    between atoms: O_2  and  C_3
REMARK    3  A    between atoms: C_8  and  C_9
REMARK    4  A    between atoms: N_11  and  C_12
REMARK    5  A    between atoms: C_12  and  C_13
REMARK    6  A    between atoms: C_13  and  C_14
REMARK    7  A    between atoms: C_14  and  C_16
REMARK    8  A    between atoms: C_16  and  N_17
REMARK    9  A    between atoms: N_20  and  C_21
REMARK                            x       y       z     vdW  Elec       q    Type
REMARK                         _______ _______ _______ _____ _____    ______ ____
ROOT
ATOM      1  C   UNL     1       6.799   5.465  19.453  0.00  0.00    +0.000 C 
ENDROOT
BRANCH   1   2
ATOM      2  C   UNL     1       5.468   5.074  18.822  0.00  0.00    +0.000 C 
ATOM      3  F   UNL     1       5.453   3.721  18.639  0.00  0.00    +0.000 F 
BRANCH   2   4
ATOM      4  C   UNL     1       4.236   5.443  19.661  0.00  0.00    +0.000 C 
BRANCH   4   5
ATOM      5  N   UNL     1       2.946   5.395  18.939  0.00  0.00    +0.000 NA
ATOM      6  C   UNL     1       1.787   5.510  19.859  0.00  0.00    +0.000 C 
ATOM      7  C   UNL     1       1.697   6.850  20.628  0.00  0.00    +0.000 C 
ATOM      8  N   UNL     1       1.825   8.008  19.720  0.00  0.00    +0.000 N 
ATOM      9  C   UNL     1       2.849   7.924  18.663  0.00  0.00    +0.000 C 
ATOM     10  C   UNL     1       2.848   6.533  17.992  0.00  0.00    +0.000 C 
BRANCH   8  11
ATOM     11  C   UNL     1       0.934   9.076  19.737  0.00  0.00    +0.000 A 
ATOM     12  C   UNL     1       0.375   9.511  18.518  0.00  0.00    +0.000 A 
ATOM     13  C   UNL     1      -0.466  10.622  18.438  0.00  0.00    +0.000 A 
ATOM     14  C   UNL     1      -0.763  11.351  19.580  0.00  0.00    +0.000 A 
ATOM     15  C   UNL     1      -0.247  10.947  20.811  0.00  0.00    +0.000 A 
ATOM     16 CL   UNL     1      -0.662  11.920  22.184  0.00  0.00    +0.000 Cl
ATOM     17  C   UNL     1       0.575   9.806  20.904  0.00  0.00    +0.000 A 
ATOM     18 CL   UNL     1       1.054   9.259  22.493  0.00  0.00    +0.000 Cl
ENDBRANCH   8  11
ENDBRANCH   4   5
ENDBRANCH   2   4
ENDBRANCH   1   2
BRANCH   1  19
ATOM     19  C   UNL     1       7.794   5.953  18.407  0.00  0.00    +0.000 C 
BRANCH  19  22
ATOM     20  C   UNL     1       7.930   8.356  17.902  0.00  0.00    +0.000 C 
ATOM     21  O   UNL     1       7.159   8.251  16.951  0.00  0.00    +0.000 OA
ATOM     22  N   UNL     1       8.274   7.284  18.693  0.00  0.00    +0.000 N 
ATOM     23  H   UNL     1       8.895   7.448  19.477  0.00  0.00    +0.000 HD
BRANCH  20  29
ATOM     24  C   UNL     1      10.464  13.646  19.283  0.00  0.00    +0.000 A 
ATOM     25  C   UNL     1      10.797  12.915  20.431  0.00  0.00    +0.000 A 
ATOM     26  C   UNL     1      10.413  11.572  20.574  0.00  0.00    +0.000 A 
ATOM     27  C   UNL     1       9.684  11.014  19.528  0.00  0.00    +0.000 A 
ATOM     28  O   UNL     1       9.212   9.732  19.470  0.00  0.00    +0.000 OA
ATOM     29  C   UNL     1       8.551   9.606  18.273  0.00  0.00    +0.000 A 
ATOM     30  C   UNL     1       8.611  10.795  17.576  0.00  0.00    +0.000 A 
ATOM     31  C   UNL     1       9.332  11.711  18.378  0.00  0.00    +0.000 A 
ATOM     32  C   UNL     1       9.719  13.053  18.256  0.00  0.00    +0.000 A 
BRANCH  24  34
ATOM     33  C   UNL     1      10.201  15.552  17.903  0.00  0.00    +0.000 C 
ATOM     34  O   UNL     1      10.765  14.966  19.069  0.00  0.00    +0.000 OA
ENDBRANCH  24  34
ENDBRANCH  20  29
ENDBRANCH  19  22
ENDBRANCH   1  19
TORSDOF 8
ENDMDL
MODEL 2
REMARK VINA RESULT:      -7.6      1.781      2.379
REMARK  Name = 
REMARK  9 active torsions:
REMARK  status: ('A' for Active; 'I' for Inactive)
REMARK    1  A    between atoms: C_1  and  O_2
REMARK    2  A    between atoms: O_2  and  C_3
REMARK    3  A    between atoms: C_8  and  C_9
REMARK    4  A    between atoms: N_11  and  C_12
REMARK    5  A    between atoms: C_12  and  C_13
REMARK    6  A    between atoms: C_13  and  C_14
REMARK    7  A    between atoms: C_14  and  C_16
REMARK    8  A    between atoms: C_16  and  N_17
REMARK    9  A    between atoms: N_20  and  C_21
REMARK                            x       y       z     vdW  Elec       q    Type
REMARK                         _______ _______ _______ _____ _____    ______ ____
ROOT
ATOM      1  C   UNL     1       5.488   5.837  16.008  0.00  0.00    +0.000 C 
ENDROOT
BRANCH   1   2
ATOM      2  C   UNL     1       4.713   4.613  16.482  0.00  0.00    +0.000 C 
ATOM      3  F   UNL     1       5.403   3.492  16.118  0.00  0.00    +0.000 F 
BRANCH   2   4
ATOM      4  C   UNL     1       4.492   4.551  18.000  0.00  0.00    +0.000 C 
BRANCH   4   5
ATOM      5  N   UNL     1       3.096   4.312  18.424  0.00  0.00    +0.000 NA
ATOM      6  C   UNL     1       2.900   4.568  19.872  0.00  0.00    +0.000 C 
ATOM      7  C   UNL     1       3.144   6.033  20.312  0.00  0.00    +0.000 C 
ATOM      8  N   UNL     1       2.411   6.987  19.458  0.00  0.00    +0.000 N 
ATOM      9  C   UNL     1       2.412   6.729  18.006  0.00  0.00    +0.000 C 
ATOM     10  C   UNL     1       2.180   5.232  17.704  0.00  0.00    +0.000 C 
BRANCH   8  11
ATOM     11  C   UNL     1       1.618   8.005  19.979  0.00  0.00    +0.000 A 
ATOM     12  C   UNL     1       1.038   7.827  21.252  0.00  0.00    +0.000 A 
ATOM     13  C   UNL     1       0.169   8.765  21.812  0.00  0.00    +0.000 A 
ATOM     14  C   UNL     1      -0.166   9.910  21.105  0.00  0.00    +0.000 A 
ATOM     15  C   UNL     1       0.398  10.136  19.849  0.00  0.00    +0.000 A 
ATOM     16 CL   UNL     1      -0.081  11.587  19.032  0.00  0.00    +0.000 Cl
ATOM     17  C   UNL     1       1.303   9.210  19.293  0.00  0.00    +0.000 A 
ATOM     18 CL   UNL     1       2.099   9.629  17.794  0.00  0.00    +0.000 Cl
ENDBRANCH   8  11
ENDBRANCH   4   5
ENDBRANCH   2   4
ENDBRANCH   1   2
BRANCH   1  19
ATOM     19  C   UNL     1       6.922   5.827  16.524  0.00  0.00    +0.000 C 
BRANCH  19  22
ATOM     20  C   UNL     1       7.954   7.460  18.046  0.00  0.00    +0.000 C 
ATOM     21  O   UNL     1       8.118   6.614  18.922  0.00  0.00    +0.000 OA
ATOM     22  N   UNL     1       7.402   7.156  16.823  0.00  0.00    +0.000 N 
ATOM     23  H   UNL     1       7.319   7.897  16.137  0.00  0.00    +0.000 HD
BRANCH  20  29
ATOM     24  C   UNL     1       9.578  13.199  18.906  0.00  0.00    +0.000 A 
ATOM     25  C   UNL     1       8.666  13.364  17.856  0.00  0.00    +0.000 A 
ATOM     26  C   UNL     1       7.995  12.264  17.296  0.00  0.00    +0.000 A 
ATOM     27  C   UNL     1       8.287  11.013  17.831  0.00  0.00    +0.000 A 
ATOM     28  O   UNL     1       7.751   9.821  17.430  0.00  0.00    +0.000 OA
ATOM     29  C   UNL     1       8.315   8.848  18.218  0.00  0.00    +0.000 A 
ATOM     30  C   UNL     1       9.194   9.419  19.115  0.00  0.00    +0.000 A 
ATOM     31  C   UNL     1       9.190  10.812  18.869  0.00  0.00    +0.000 A 
ATOM     32  C   UNL     1       9.855  11.922  19.410  0.00  0.00    +0.000 A 
BRANCH  24  34
ATOM     33  C   UNL     1      11.687  14.242  19.170  0.00  0.00    +0.000 C 
ATOM     34  O   UNL     1      10.303  14.204  19.491  0.00  0.00    +0.000 OA
ENDBRANCH  24  34
ENDBRANCH  20  29
ENDBRANCH  19  22
ENDBRANCH   1  19
TORSDOF 8
ENDMDL
MODEL 3
REMARK VINA RESULT:      -7.5      4.185      9.441
REMARK  Name = 
REMARK  9 active torsions:
REMARK  status: ('A' for Active; 'I' for Inactive)
REMARK    1  A    between atoms: C_1  and  O_2
REMARK    2  A    between atoms: O_2  and  C_3
REMARK    3  A    between atoms: C_8  and  C_9
REMARK    4  A    between atoms: N_11  and  C_12
REMARK    5  A    between atoms: C_12  and  C_13
REMARK    6  A    between atoms: C_13  and  C_14
REMARK    7  A    between atoms: C_14  and  C_16
REMARK    8  A    between atoms: C_16  and  N_17
REMARK    9  A    between atoms: N_20  and  C_21
REMARK                            x       y       z     vdW  Elec       q    Type
REMARK                         _______ _______ _______ _____ _____    ______ ____
ROOT
ATOM      1  C   UNL     1       9.100   9.935  18.942  0.00  0.00    +0.000 C 
ENDROOT
BRANCH   1   2
ATOM      2  C   UNL     1       9.926  11.174  18.618  0.00  0.00    +0.000 C 
ATOM      3  F   UNL     1      10.415  11.051  17.349  0.00  0.00    +0.000 F 
BRANCH   2   4
ATOM      4  C   UNL     1       9.144  12.493  18.690  0.00  0.00    +0.000 C 
BRANCH   4   5
ATOM      5  N   UNL     1       9.873  13.624  19.303  0.00  0.00    +0.000 NA
ATOM      6  C   UNL     1       8.954  14.678  19.801  0.00  0.00    +0.000 C 
ATOM      7  C   UNL     1       8.004  14.228  20.938  0.00  0.00    +0.000 C 
ATOM      8  N   UNL     1       8.739  13.549  22.024  0.00  0.00    +0.000 N 
ATOM      9  C   UNL     1       9.791  12.594  21.630  0.00  0.00    +0.000 C 
ATOM     10  C   UNL     1      10.651  13.154  20.476  0.00  0.00    +0.000 C 
BRANCH   8  11
ATOM     11  C   UNL     1       8.577  13.886  23.364  0.00  0.00    +0.000 A 
ATOM     12  C   UNL     1       9.071  15.128  23.814  0.00  0.00    +0.000 A 
ATOM     13  C   UNL     1       9.017  15.509  25.155  0.00  0.00    +0.000 A 
ATOM     14  C   UNL     1       8.483  14.647  26.101  0.00  0.00    +0.000 A 
ATOM     15  C   UNL     1       7.967  13.415  25.699  0.00  0.00    +0.000 A 
ATOM     16 CL   UNL     1       7.327  12.396  26.946  0.00  0.00    +0.000 Cl
ATOM     17  C   UNL     1       7.986  13.039  24.341  0.00  0.00    +0.000 A 
ATOM     18 CL   UNL     1       7.178  11.558  23.881  0.00  0.00    +0.000 Cl
ENDBRANCH   8  11
ENDBRANCH   4   5
ENDBRANCH   2   4
ENDBRANCH   1   2
BRANCH   1  19
ATOM     19  C   UNL     1       8.438   9.360  17.696  0.00  0.00    +0.000 C 
BRANCH  19  22
ATOM     20  C   UNL     1       7.206   7.265  17.315  0.00  0.00    +0.000 C 
ATOM     21  O   UNL     1       7.970   6.921  16.417  0.00  0.00    +0.000 OA
ATOM     22  N   UNL     1       7.378   8.435  18.021  0.00  0.00    +0.000 N 
ATOM     23  H   UNL     1       6.724   8.645  18.767  0.00  0.00    +0.000 HD
BRANCH  20  29
ATOM     24  C   UNL     1       2.529   3.872  19.027  0.00  0.00    +0.000 A 
ATOM     25  C   UNL     1       1.844   4.975  18.501  0.00  0.00    +0.000 A 
ATOM     26  C   UNL     1       2.536   6.068  17.954  0.00  0.00    +0.000 A 
ATOM     27  C   UNL     1       3.927   6.000  17.969  0.00  0.00    +0.000 A 
ATOM     28  O   UNL     1       4.784   6.953  17.495  0.00  0.00    +0.000 OA
ATOM     29  C   UNL     1       6.056   6.485  17.710  0.00  0.00    +0.000 A 
ATOM     30  C   UNL     1       6.005   5.243  18.309  0.00  0.00    +0.000 A 
ATOM     31  C   UNL     1       4.639   4.925  18.488  0.00  0.00    +0.000 A 
ATOM     32  C   UNL     1       3.929   3.846  19.036  0.00  0.00    +0.000 A 
BRANCH  24  34
ATOM     33  C   UNL     1       0.923   2.141  18.852  0.00  0.00    +0.000 C 
ATOM     34  O   UNL     1       1.943   2.779  19.610  0.00  0.00    +0.000 OA
ENDBRANCH  24  34
ENDBRANCH  20  29
ENDBRANCH  19  22
ENDBRANCH   1  19
TORSDOF 8
ENDMDL
MODEL 4
REMARK VINA RESULT:      -7.5      4.928      7.595
REMARK  Name = 
REMARK  9 active torsions:
REMARK  status: ('A' for Active; 'I' for Inactive)
REMARK    1  A    between atoms: C_1  and  O_2
REMARK    2  A    between atoms: O_2  and  C_3
REMARK    3  A    between atoms: C_8  and  C_9
REMARK    4  A    between atoms: N_11  and  C_12
REMARK    5  A    between atoms: C_12  and  C_13
REMARK    6  A    between atoms: C_13  and  C_14
REMARK    7  A    between atoms: C_14  and  C_16
REMARK    8  A    between atoms: C_16  and  N_17
REMARK    9  A    between atoms: N_20  and  C_21
REMARK                            x       y       z     vdW  Elec       q    Type
REMARK                         _______ _______ _______ _____ _____    ______ ____
ROOT
ATOM      1  C   UNL     1       1.409   8.424  21.097  0.00  0.00    +0.000 C 
ENDROOT
BRANCH   1   2
ATOM      2  C   UNL     1       0.029   9.061  21.214  0.00  0.00    +0.000 C 
ATOM      3  F   UNL     1      -0.709   8.341  22.110  0.00  0.00    +0.000 F 
BRANCH   2   4
ATOM      4  C   UNL     1       0.044  10.521  21.691  0.00  0.00    +0.000 C 
BRANCH   4   5
ATOM      5  N   UNL     1      -0.761  11.457  20.877  0.00  0.00    +0.000 NA
ATOM      6  C   UNL     1      -0.632  12.859  21.348  0.00  0.00    +0.000 C 
ATOM      7  C   UNL     1       0.793  13.452  21.240  0.00  0.00    +0.000 C 
ATOM      8  N   UNL     1       1.369  13.244  19.897  0.00  0.00    +0.000 N 
ATOM      9  C   UNL     1       1.158  11.925  19.271  0.00  0.00    +0.000 C 
ATOM     10  C   UNL     1      -0.295  11.439  19.469  0.00  0.00    +0.000 C 
BRANCH   8  11
ATOM     11  C   UNL     1       1.956  14.271  19.164  0.00  0.00    +0.000 A 
ATOM     12  C   UNL     1       3.325  14.177  18.843  0.00  0.00    +0.000 A 
ATOM     13  C   UNL     1       4.006  15.198  18.178  0.00  0.00    +0.000 A 
ATOM     14  C   UNL     1       3.339  16.363  17.827  0.00  0.00    +0.000 A 
ATOM     15  C   UNL     1       1.979  16.492  18.109  0.00  0.00    +0.000 A 
ATOM     16 CL   UNL     1       1.228  17.983  17.643  0.00  0.00    +0.000 Cl
ATOM     17  C   UNL     1       1.278  15.451  18.749  0.00  0.00    +0.000 A 
ATOM     18 CL   UNL     1      -0.454  15.606  18.925  0.00  0.00    +0.000 Cl
ENDBRANCH   8  11
ENDBRANCH   4   5
ENDBRANCH   2   4
ENDBRANCH   1   2
BRANCH   1  19
ATOM     19  C   UNL     1       1.316   6.955  20.700  0.00  0.00    +0.000 C 
BRANCH  19  22
ATOM     20  C   UNL     1       3.022   5.501  19.688  0.00  0.00    +0.000 C 
ATOM     21  O   UNL     1       2.963   4.701  20.618  0.00  0.00    +0.000 OA
ATOM     22  N   UNL     1       2.226   6.623  19.629  0.00  0.00    +0.000 N 
ATOM     23  H   UNL     1       2.309   7.227  18.820  0.00  0.00    +0.000 HD
BRANCH  20  29
ATOM     24  C   UNL     1       6.916   5.020  15.114  0.00  0.00    +0.000 A 
ATOM     25  C   UNL     1       6.104   3.909  14.854  0.00  0.00    +0.000 A 
ATOM     26  C   UNL     1       5.011   3.597  15.680  0.00  0.00    +0.000 A 
ATOM     27  C   UNL     1       4.785   4.440  16.764  0.00  0.00    +0.000 A 
ATOM     28  O   UNL     1       3.785   4.313  17.688  0.00  0.00    +0.000 OA
ATOM     29  C   UNL     1       3.933   5.348  18.578  0.00  0.00    +0.000 A 
ATOM     30  C   UNL     1       5.012   6.128  18.217  0.00  0.00    +0.000 A 
ATOM     31  C   UNL     1       5.573   5.548  17.055  0.00  0.00    +0.000 A 
ATOM     32  C   UNL     1       6.664   5.838  16.223  0.00  0.00    +0.000 A 
BRANCH  24  34
ATOM     33  C   UNL     1       7.889   5.301  12.974  0.00  0.00    +0.000 C 
ATOM     34  O   UNL     1       8.020   5.383  14.387  0.00  0.00    +0.000 OA
ENDBRANCH  24  34
ENDBRANCH  20  29
ENDBRANCH  19  22
ENDBRANCH   1  19
TORSDOF 8
ENDMDL
MODEL 5
REMARK VINA RESULT:      -7.4      5.448      8.621
REMARK  Name = 
REMARK  9 active torsions:
REMARK  status: ('A' for Active; 'I' for Inactive)
REMARK    1  A    between atoms: C_1  and  O_2
REMARK    2  A    between atoms: O_2  and  C_3
REMARK    3  A    between atoms: C_8  and  C_9
REMARK    4  A    between atoms: N_11  and  C_12
REMARK    5  A    between atoms: C_12  and  C_13
REMARK    6  A    between atoms: C_13  and  C_14
REMARK    7  A    between atoms: C_14  and  C_16
REMARK    8  A    between atoms: C_16  and  N_17
REMARK    9  A    between atoms: N_20  and  C_21
REMARK                            x       y       z     vdW  Elec       q    Type
REMARK                         _______ _______ _______ _____ _____    ______ ____
ROOT
ATOM      1  C   UNL     1       2.250   4.399  21.438  0.00  0.00    +0.000 C 
ENDROOT
BRANCH   1   2
ATOM      2  C   UNL     1       2.433   2.918  21.126  0.00  0.00    +0.000 C 
ATOM      3  F   UNL     1       2.005   2.191  22.200  0.00  0.00    +0.000 F 
BRANCH   2   4
ATOM      4  C   UNL     1       1.657   2.429  19.895  0.00  0.00    +0.000 C 
BRANCH   4   5
ATOM      5  N   UNL     1       2.443   1.625  18.935  0.00  0.00    +0.000 NA
ATOM      6  C   UNL     1       2.240   2.072  17.534  0.00  0.00    +0.000 C 
ATOM      7  C   UNL     1       2.714   3.515  17.237  0.00  0.00    +0.000 C 
ATOM      8  N   UNL     1       4.090   3.746  17.718  0.00  0.00    +0.000 N 
ATOM      9  C   UNL     1       4.442   3.199  19.041  0.00  0.00    +0.000 C 
ATOM     10  C   UNL     1       3.893   1.766  19.217  0.00  0.00    +0.000 C 
BRANCH   8  11
ATOM     11  C   UNL     1       5.079   4.314  16.920  0.00  0.00    +0.000 A 
ATOM     12  C   UNL     1       5.427   3.673  15.714  0.00  0.00    +0.000 A 
ATOM     13  C   UNL     1       6.460   4.134  14.896  0.00  0.00    +0.000 A 
ATOM     14  C   UNL     1       7.194   5.250  15.269  0.00  0.00    +0.000 A 
ATOM     15  C   UNL     1       6.873   5.927  16.445  0.00  0.00    +0.000 A 
ATOM     16 CL   UNL     1       7.848   7.305  16.839  0.00  0.00    +0.000 Cl
ATOM     17  C   UNL     1       5.810   5.486  17.258  0.00  0.00    +0.000 A 
ATOM     18 CL   UNL     1       5.354   6.471  18.629  0.00  0.00    +0.000 Cl
ENDBRANCH   8  11
ENDBRANCH   4   5
ENDBRANCH   2   4
ENDBRANCH   1   2
BRANCH   1  19
ATOM     19  C   UNL     1       1.499   5.118  20.324  0.00  0.00    +0.000 C 
BRANCH  19  22
ATOM     20  C   UNL     1       1.461   7.576  20.403  0.00  0.00    +0.000 C 
ATOM     21  O   UNL     1       2.415   7.665  19.635  0.00  0.00    +0.000 OA
ATOM     22  N   UNL     1       0.924   6.364  20.773  0.00  0.00    +0.000 N 
ATOM     23  H   UNL     1       0.120   6.365  21.391  0.00  0.00    +0.000 HD
BRANCH  20  29
ATOM     24  C   UNL     1      -1.310  12.260  22.991  0.00  0.00    +0.000 A 
ATOM     25  C   UNL     1      -0.523  12.938  22.051  0.00  0.00    +0.000 A 
ATOM     26  C   UNL     1       0.326  12.241  21.175  0.00  0.00    +0.000 A 
ATOM     27  C   UNL     1       0.347  10.854  21.295  0.00  0.00    +0.000 A 
ATOM     28  O   UNL     1       1.102   9.994  20.547  0.00  0.00    +0.000 OA
ATOM     29  C   UNL     1       0.820   8.727  20.995  0.00  0.00    +0.000 A 
ATOM     30  C   UNL     1      -0.111   8.784  22.012  0.00  0.00    +0.000 A 
ATOM     31  C   UNL     1      -0.417  10.150  22.218  0.00  0.00    +0.000 A 
ATOM     32  C   UNL     1      -1.252  10.864  23.089  0.00  0.00    +0.000 A 
BRANCH  24  34
ATOM     33  C   UNL     1      -3.514  12.919  23.550  0.00  0.00    +0.000 C 
ATOM     34  O   UNL     1      -2.140  12.853  23.906  0.00  0.00    +0.000 OA
ENDBRANCH  24  34
ENDBRANCH  20  29
ENDBRANCH  19  22
ENDBRANCH   1  19
TORSDOF 8
ENDMDL
MODEL 6
REMARK VINA RESULT:      -7.3      1.141      1.579
REMARK  Name = 
REMARK  9 active torsions:
REMARK  status: ('A' for Active; 'I' for Inactive)
REMARK    1  A    between atoms: C_1  and  O_2
REMARK    2  A    between atoms: O_2  and  C_3
REMARK    3  A    between atoms: C_8  and  C_9
REMARK    4  A    between atoms: N_11  and  C_12
REMARK    5  A    between atoms: C_12  and  C_13
REMARK    6  A    between atoms: C_13  and  C_14
REMARK    7  A    between atoms: C_14  and  C_16
REMARK    8  A    between atoms: C_16  and  N_17
REMARK    9  A    between atoms: N_20  and  C_21
REMARK                            x       y       z     vdW  Elec       q    Type
REMARK                         _______ _______ _______ _____ _____    ______ ____
ROOT
ATOM      1  C   UNL     1       5.378   6.427  17.064  0.00  0.00    +0.000 C 
ENDROOT
BRANCH   1   2
ATOM      2  C   UNL     1       5.072   5.335  18.083  0.00  0.00    +0.000 C 
ATOM      3  F   UNL     1       6.244   4.934  18.658  0.00  0.00    +0.000 F 
BRANCH   2   4
ATOM      4  C   UNL     1       4.125   5.768  19.211  0.00  0.00    +0.000 C 
BRANCH   4   5
ATOM      5  N   UNL     1       2.684   5.601  18.922  0.00  0.00    +0.000 NA
ATOM      6  C   UNL     1       1.844   5.815  20.127  0.00  0.00    +0.000 C 
ATOM      7  C   UNL     1       1.910   7.244  20.720  0.00  0.00    +0.000 C 
ATOM      8  N   UNL     1       1.698   8.274  19.683  0.00  0.00    +0.000 N 
ATOM      9  C   UNL     1       2.366   8.070  18.385  0.00  0.00    +0.000 C 
ATOM     10  C   UNL     1       2.246   6.602  17.918  0.00  0.00    +0.000 C 
BRANCH   8  11
ATOM     11  C   UNL     1       0.792   9.319  19.838  0.00  0.00    +0.000 A 
ATOM     12  C   UNL     1       0.166   9.848  18.691  0.00  0.00    +0.000 A 
ATOM     13  C   UNL     1      -0.695  10.945  18.751  0.00  0.00    +0.000 A 
ATOM     14  C   UNL     1      -0.945  11.564  19.967  0.00  0.00    +0.000 A 
ATOM     15  C   UNL     1      -0.362  11.064  21.130  0.00  0.00    +0.000 A 
ATOM     16 CL   UNL     1      -0.721  11.904  22.603  0.00  0.00    +0.000 Cl
ATOM     17  C   UNL     1       0.481   9.936  21.081  0.00  0.00    +0.000 A 
ATOM     18 CL   UNL     1       1.048   9.261  22.591  0.00  0.00    +0.000 Cl
ENDBRANCH   8  11
ENDBRANCH   4   5
ENDBRANCH   2   4
ENDBRANCH   1   2
BRANCH   1  19
ATOM     19  C   UNL     1       6.869   6.506  16.759  0.00  0.00    +0.000 C 
BRANCH  19  22
ATOM     20  C   UNL     1       8.157   8.026  18.200  0.00  0.00    +0.000 C 
ATOM     21  O   UNL     1       8.435   7.125  18.987  0.00  0.00    +0.000 OA
ATOM     22  N   UNL     1       7.417   7.807  17.060  0.00  0.00    +0.000 N 
ATOM     23  H   UNL     1       7.247   8.592  16.442  0.00  0.00    +0.000 HD
BRANCH  20  29
ATOM     24  C   UNL     1       9.985  13.685  19.178  0.00  0.00    +0.000 A 
ATOM     25  C   UNL     1       9.161  13.889  18.064  0.00  0.00    +0.000 A 
ATOM     26  C   UNL     1       8.481  12.821  17.456  0.00  0.00    +0.000 A 
ATOM     27  C   UNL     1       8.674  11.559  18.011  0.00  0.00    +0.000 A 
ATOM     28  O   UNL     1       8.112  10.392  17.572  0.00  0.00    +0.000 OA
ATOM     29  C   UNL     1       8.570   9.396  18.398  0.00  0.00    +0.000 A 
ATOM     30  C   UNL     1       9.407   9.928  19.357  0.00  0.00    +0.000 A 
ATOM     31  C   UNL     1       9.488  11.319  19.113  0.00  0.00    +0.000 A 
ATOM     32  C   UNL     1      10.163  12.398  19.701  0.00  0.00    +0.000 A 
BRANCH  24  34
ATOM     33  C   UNL     1      10.355  14.915  21.167  0.00  0.00    +0.000 C 
ATOM     34  O   UNL     1      10.712  14.656  19.816  0.00  0.00    +0.000 OA
ENDBRANCH  24  34
ENDBRANCH  20  29
ENDBRANCH  19  22
ENDBRANCH   1  19
TORSDOF 8
ENDMDL
MODEL 7
REMARK VINA RESULT:      -7.3      5.386      8.294
REMARK  Name = 
REMARK  9 active torsions:
REMARK  status: ('A' for Active; 'I' for Inactive)
REMARK    1  A    between atoms: C_1  and  O_2
REMARK    2  A    between atoms: O_2  and  C_3
REMARK    3  A    between atoms: C_8  and  C_9
REMARK    4  A    between atoms: N_11  and  C_12
REMARK    5  A    between atoms: C_12  and  C_13
REMARK    6  A    between atoms: C_13  and  C_14
REMARK    7  A    between atoms: C_14  and  C_16
REMARK    8  A    between atoms: C_16  and  N_17
REMARK    9  A    between atoms: N_20  and  C_21
REMARK                            x       y       z     vdW  Elec       q    Type
REMARK                         _______ _______ _______ _____ _____    ______ ____
ROOT
ATOM      1  C   UNL     1       2.258   4.380  21.488  0.00  0.00    +0.000 C 
ENDROOT
BRANCH   1   2
ATOM      2  C   UNL     1       2.385   2.876  21.278  0.00  0.00    +0.000 C 
ATOM      3  F   UNL     1       1.763   2.237  22.312  0.00  0.00    +0.000 F 
BRANCH   2   4
ATOM      4  C   UNL     1       1.761   2.364  19.972  0.00  0.00    +0.000 C 
BRANCH   4   5
ATOM      5  N   UNL     1       2.665   1.569  19.112  0.00  0.00    +0.000 NA
ATOM      6  C   UNL     1       2.486   1.885  17.673  0.00  0.00    +0.000 C 
ATOM      7  C   UNL     1       2.834   3.341  17.278  0.00  0.00    +0.000 C 
ATOM      8  N   UNL     1       4.158   3.743  17.793  0.00  0.00    +0.000 N 
ATOM      9  C   UNL     1       4.497   3.336  19.169  0.00  0.00    +0.000 C 
ATOM     10  C   UNL     1       4.080   1.874  19.439  0.00  0.00    +0.000 C 
BRANCH   8  11
ATOM     11  C   UNL     1       5.125   4.342  16.991  0.00  0.00    +0.000 A 
ATOM     12  C   UNL     1       5.470   3.725  15.771  0.00  0.00    +0.000 A 
ATOM     13  C   UNL     1       6.482   4.219  14.946  0.00  0.00    +0.000 A 
ATOM     14  C   UNL     1       7.200   5.343  15.327  0.00  0.00    +0.000 A 
ATOM     15  C   UNL     1       6.881   5.997  16.518  0.00  0.00    +0.000 A 
ATOM     16 CL   UNL     1       7.834   7.387  16.920  0.00  0.00    +0.000 Cl
ATOM     17  C   UNL     1       5.838   5.523  17.337  0.00  0.00    +0.000 A 
ATOM     18 CL   UNL     1       5.380   6.477  18.729  0.00  0.00    +0.000 Cl
ENDBRANCH   8  11
ENDBRANCH   4   5
ENDBRANCH   2   4
ENDBRANCH   1   2
BRANCH   1  19
ATOM     19  C   UNL     1       1.548   5.053  20.320  0.00  0.00    +0.000 C 
BRANCH  19  22
ATOM     20  C   UNL     1       1.553   7.508  20.177  0.00  0.00    +0.000 C 
ATOM     21  O   UNL     1       2.472   7.508  19.362  0.00  0.00    +0.000 OA
ATOM     22  N   UNL     1       1.014   6.345  20.679  0.00  0.00    +0.000 N 
ATOM     23  H   UNL     1       0.240   6.418  21.329  0.00  0.00    +0.000 HD
BRANCH  20  29
ATOM     24  C   UNL     1      -0.852  12.662  22.168  0.00  0.00    +0.000 A 
ATOM     25  C   UNL     1      -1.298  11.789  23.169  0.00  0.00    +0.000 A 
ATOM     26  C   UNL     1      -0.972  10.423  23.139  0.00  0.00    +0.000 A 
ATOM     27  C   UNL     1      -0.195   9.987  22.070  0.00  0.00    +0.000 A 
ATOM     28  O   UNL     1       0.227   8.705  21.852  0.00  0.00    +0.000 OA
ATOM     29  C   UNL     1       0.959   8.720  20.690  0.00  0.00    +0.000 A 
ATOM     30  C   UNL     1       1.006  10.002  20.181  0.00  0.00    +0.000 A 
ATOM     31  C   UNL     1       0.260  10.824  21.058  0.00  0.00    +0.000 A 
ATOM     32  C   UNL     1      -0.082  12.183  21.101  0.00  0.00    +0.000 A 
BRANCH  24  34
ATOM     33  C   UNL     1      -0.267  14.787  21.303  0.00  0.00    +0.000 C 
ATOM     34  O   UNL     1      -1.146  13.998  22.094  0.00  0.00    +0.000 OA
ENDBRANCH  24  34
ENDBRANCH  20  29
ENDBRANCH  19  22
ENDBRANCH   1  19
TORSDOF 8
ENDMDL
MODEL 8
REMARK VINA RESULT:      -7.2      4.980     10.066
REMARK  Name = 
REMARK  9 active torsions:
REMARK  status: ('A' for Active; 'I' for Inactive)
REMARK    1  A    between atoms: C_1  and  O_2
REMARK    2  A    between atoms: O_2  and  C_3
REMARK    3  A    between atoms: C_8  and  C_9
REMARK    4  A    between atoms: N_11  and  C_12
REMARK    5  A    between atoms: C_12  and  C_13
REMARK    6  A    between atoms: C_13  and  C_14
REMARK    7  A    between atoms: C_14  and  C_16
REMARK    8  A    between atoms: C_16  and  N_17
REMARK    9  A    between atoms: N_20  and  C_21
REMARK                            x       y       z     vdW  Elec       q    Type
REMARK                         _______ _______ _______ _____ _____    ______ ____
ROOT
ATOM      1  C   UNL     1       1.756  12.863  19.820  0.00  0.00    +0.000 C 
ENDROOT
BRANCH   1   2
ATOM      2  C   UNL     1       2.595  13.864  19.035  0.00  0.00    +0.000 C 
ATOM      3  F   UNL     1       1.809  14.932  18.710  0.00  0.00    +0.000 F 
BRANCH   2   4
ATOM      4  C   UNL     1       3.817  14.401  19.795  0.00  0.00    +0.000 C 
BRANCH   4   5
ATOM      5  N   UNL     1       4.358  15.681  19.290  0.00  0.00    +0.000 NA
ATOM      6  C   UNL     1       5.502  16.163  20.104  0.00  0.00    +0.000 C 
ATOM      7  C   UNL     1       6.744  15.240  20.091  0.00  0.00    +0.000 C 
ATOM      8  N   UNL     1       7.135  14.872  18.716  0.00  0.00    +0.000 N 
ATOM      9  C   UNL     1       6.051  14.528  17.777  0.00  0.00    +0.000 C 
ATOM     10  C   UNL     1       4.866  15.511  17.907  0.00  0.00    +0.000 C 
BRANCH   8  11
ATOM     11  C   UNL     1       8.441  14.985  18.251  0.00  0.00    +0.000 A 
ATOM     12  C   UNL     1       8.897  16.244  17.811  0.00  0.00    +0.000 A 
ATOM     13  C   UNL     1      10.167  16.426  17.260  0.00  0.00    +0.000 A 
ATOM     14  C   UNL     1      11.021  15.343  17.113  0.00  0.00    +0.000 A 
ATOM     15  C   UNL     1      10.619  14.081  17.551  0.00  0.00    +0.000 A 
ATOM     16 CL   UNL     1      11.744  12.784  17.320  0.00  0.00    +0.000 Cl
ATOM     17  C   UNL     1       9.352  13.898  18.139  0.00  0.00    +0.000 A 
ATOM     18 CL   UNL     1       8.973  12.330  18.815  0.00  0.00    +0.000 Cl
ENDBRANCH   8  11
ENDBRANCH   4   5
ENDBRANCH   2   4
ENDBRANCH   1   2
BRANCH   1  19
ATOM     19  C   UNL     1       0.929  11.978  18.896  0.00  0.00    +0.000 C 
BRANCH  19  22
ATOM     20  C   UNL     1       1.104   9.621  19.576  0.00  0.00    +0.000 C 
ATOM     21  O   UNL     1       0.223   9.748  20.422  0.00  0.00    +0.000 OA
ATOM     22  N   UNL     1       1.495  10.657  18.758  0.00  0.00    +0.000 N 
ATOM     23  H   UNL     1       2.211  10.475  18.064  0.00  0.00    +0.000 HD
BRANCH  20  29
ATOM     24  C   UNL     1       4.016   4.393  18.866  0.00  0.00    +0.000 A 
ATOM     25  C   UNL     1       4.373   5.029  17.670  0.00  0.00    +0.000 A 
ATOM     26  C   UNL     1       3.921   6.325  17.373  0.00  0.00    +0.000 A 
ATOM     27  C   UNL     1       3.101   6.935  18.318  0.00  0.00    +0.000 A 
ATOM     28  O   UNL     1       2.553   8.184  18.223  0.00  0.00    +0.000 OA
ATOM     29  C   UNL     1       1.817   8.383  19.365  0.00  0.00    +0.000 A 
ATOM     30  C   UNL     1       1.905   7.273  20.179  0.00  0.00    +0.000 A 
ATOM     31  C   UNL     1       2.723   6.331  19.512  0.00  0.00    +0.000 A 
ATOM     32  C   UNL     1       3.178   5.034  19.787  0.00  0.00    +0.000 A 
BRANCH  24  34
ATOM     33  C   UNL     1       3.477   2.087  18.857  0.00  0.00    +0.000 C 
ATOM     34  O   UNL     1       4.379   3.122  19.227  0.00  0.00    +0.000 OA
ENDBRANCH  24  34
ENDBRANCH  20  29
ENDBRANCH  19  22
ENDBRANCH   1  19
TORSDOF 8
ENDMDL
MODEL 9
REMARK VINA RESULT:      -7.2      5.521      8.445
REMARK  Name = 
REMARK  9 active torsions:
REMARK  status: ('A' for Active; 'I' for Inactive)
REMARK    1  A    between atoms: C_1  and  O_2
REMARK    2  A    between atoms: O_2  and  C_3
REMARK    3  A    between atoms: C_8  and  C_9
REMARK    4  A    between atoms: N_11  and  C_12
REMARK    5  A    between atoms: C_12  and  C_13
REMARK    6  A    between atoms: C_13  and  C_14
REMARK    7  A    between atoms: C_14  and  C_16
REMARK    8  A    between atoms: C_16  and  N_17
REMARK    9  A    between atoms: N_20  and  C_21
REMARK                            x       y       z     vdW  Elec       q    Type
REMARK                         _______ _______ _______ _____ _____    ______ ____
ROOT
ATOM      1  C   UNL     1       0.085   9.146  21.026  0.00  0.00    +0.000 C 
ENDROOT
BRANCH   1   2
ATOM      2  C   UNL     1       0.560  10.342  20.209  0.00  0.00    +0.000 C 
ATOM      3  F   UNL     1       0.117  10.196  18.925  0.00  0.00    +0.000 F 
BRANCH   2   4
ATOM      4  C   UNL     1       0.059  11.699  20.722  0.00  0.00    +0.000 C 
BRANCH   4   5
ATOM      5  N   UNL     1      -1.255  11.669  21.400  0.00  0.00    +0.000 NA
ATOM      6  C   UNL     1      -1.187  12.226  22.775  0.00  0.00    +0.000 C 
ATOM      7  C   UNL     1      -0.798  13.722  22.852  0.00  0.00    +0.000 C 
ATOM      8  N   UNL     1      -1.618  14.545  21.940  0.00  0.00    +0.000 N 
ATOM      9  C   UNL     1      -1.879  14.002  20.594  0.00  0.00    +0.000 C 
ATOM     10  C   UNL     1      -2.233  12.500  20.656  0.00  0.00    +0.000 C 
BRANCH   8  11
ATOM     11  C   UNL     1      -2.259  15.709  22.352  0.00  0.00    +0.000 A 
ATOM     12  C   UNL     1      -1.774  16.950  21.888  0.00  0.00    +0.000 A 
ATOM     13  C   UNL     1      -2.311  18.166  22.314  0.00  0.00    +0.000 A 
ATOM     14  C   UNL     1      -3.345  18.182  23.238  0.00  0.00    +0.000 A 
ATOM     15  C   UNL     1      -3.868  16.979  23.711  0.00  0.00    +0.000 A 
ATOM     16 CL   UNL     1      -5.152  17.092  24.870  0.00  0.00    +0.000 Cl
ATOM     17  C   UNL     1      -3.353  15.747  23.260  0.00  0.00    +0.000 A 
ATOM     18 CL   UNL     1      -4.158  14.280  23.764  0.00  0.00    +0.000 Cl
ENDBRANCH   8  11
ENDBRANCH   4   5
ENDBRANCH   2   4
ENDBRANCH   1   2
BRANCH   1  19
ATOM     19  C   UNL     1       1.254   8.287  21.493  0.00  0.00    +0.000 C 
BRANCH  19  22
ATOM     20  C   UNL     1       2.027   6.373  20.156  0.00  0.00    +0.000 C 
ATOM     21  O   UNL     1       1.388   5.575  20.838  0.00  0.00    +0.000 OA
ATOM     22  N   UNL     1       1.996   7.730  20.387  0.00  0.00    +0.000 N 
ATOM     23  H   UNL     1       2.527   8.332  19.769  0.00  0.00    +0.000 HD
BRANCH  20  29
ATOM     24  C   UNL     1       5.523   4.491  15.623  0.00  0.00    +0.000 A 
ATOM     25  C   UNL     1       5.662   5.877  15.472  0.00  0.00    +0.000 A 
ATOM     26  C   UNL     1       5.011   6.771  16.337  0.00  0.00    +0.000 A 
ATOM     27  C   UNL     1       4.222   6.212  17.338  0.00  0.00    +0.000 A 
ATOM     28  O   UNL     1       3.504   6.901  18.276  0.00  0.00    +0.000 OA
ATOM     29  C   UNL     1       2.874   5.966  19.059  0.00  0.00    +0.000 A 
ATOM     30  C   UNL     1       3.196   4.696  18.626  0.00  0.00    +0.000 A 
ATOM     31  C   UNL     1       4.057   4.843  17.514  0.00  0.00    +0.000 A 
ATOM     32  C   UNL     1       4.710   3.966  16.635  0.00  0.00    +0.000 A 
BRANCH  24  34
ATOM     33  C   UNL     1       5.972   3.771  13.412  0.00  0.00    +0.000 C 
ATOM     34  O   UNL     1       6.090   3.544  14.810  0.00  0.00    +0.000 OA
ENDBRANCH  24  34
ENDBRANCH  20  29
ENDBRANCH  19  22
ENDBRANCH   1  19
TORSDOF 8
ENDMDL
