MODEL 1
REMARK VINA RESULT:      -7.0      0.000      0.000
REMARK  Name = 
REMARK  13 active torsions:
REMARK  status: ('A' for Active; 'I' for Inactive)
REMARK    1  A    between atoms: C_1  and  C_2
REMARK    2  A    between atoms: C_2  and  C_3
REMARK    3  A    between atoms: C_2  and  C_4
REMARK    4  A    between atoms: N_6  and  C_7
REMARK    5  A    between atoms: C_7  and  C_8
REMARK    6  A    between atoms: C_8  and  C_9
REMARK    7  A    between atoms: C_9  and  N_10
REMARK    8  A    between atoms: N_10  and  C_11
REMARK    9  A    between atoms: C_11  and  C_12
REMARK   10  A    between atoms: C_12  and  O_13
REMARK   11  A    between atoms: C_12  and  C_14
REMARK   12  A    between atoms: C_14  and  O_15
REMARK   13  A    between atoms: O_15  and  C_16
REMARK                            x       y       z     vdW  Elec       q    Type
REMARK                         _______ _______ _______ _____ _____    ______ ____
ROOT
ATOM      1  N   UNL     1       6.830   4.144  18.154  0.00  0.00    +0.000 NA
ATOM      2  H   UNL     1       7.033   4.766  18.937  0.00  0.00    +0.000 HD
ENDROOT
BRANCH   1   3
ATOM      3  C   UNL     1       7.576   4.641  16.993  0.00  0.00    +0.000 C 
BRANCH   3   4
ATOM      4  C   UNL     1       6.600   5.065  15.893  0.00  0.00    +0.000 C 
BRANCH   4   5
ATOM      5  C   UNL     1       7.148   4.689  14.520  0.00  0.00    +0.000 C 
BRANCH   5   8
ATOM      6  C   UNL     1       6.390   3.520  12.479  0.00  0.00    +0.000 C 
ATOM      7  O   UNL     1       7.156   4.153  11.764  0.00  0.00    +0.000 OA
ATOM      8  N   UNL     1       6.315   3.715  13.844  0.00  0.00    +0.000 N 
ATOM      9  H   UNL     1       5.688   3.149  14.397  0.00  0.00    +0.000 HD
BRANCH   6  11
ATOM     10  C   UNL     1       4.253   3.139  11.212  0.00  0.00    +0.000 C 
ATOM     11  C   UNL     1       5.415   2.471  11.947  0.00  0.00    +0.000 C 
ATOM     12  C   UNL     1       6.119   1.479  11.022  0.00  0.00    +0.000 C 
ENDBRANCH   6  11
ENDBRANCH   5   8
ENDBRANCH   4   5
ENDBRANCH   3   4
ENDBRANCH   1   3
BRANCH   1  13
ATOM     13  C   UNL     1       5.377   4.134  17.880  0.00  0.00    +0.000 C 
BRANCH  13  14
ATOM     14  C   UNL     1       4.592   5.034  18.863  0.00  0.00    +0.000 C 
BRANCH  14  15
ATOM     15  O   UNL     1       5.520   5.662  19.760  0.00  0.00    +0.000 OA
ATOM     16  H   UNL     1       6.201   6.072  19.192  0.00  0.00    +0.000 HD
ENDBRANCH  14  15
BRANCH  14  17
ATOM     17  C   UNL     1       3.779   6.096  18.112  0.00  0.00    +0.000 C 
BRANCH  17  18
ATOM     18  O   UNL     1       2.463   6.195  18.658  0.00  0.00    +0.000 OA
BRANCH  18  19
ATOM     19  C   UNL     1       1.949   5.024  19.150  0.00  0.00    +0.000 A 
ATOM     20  C   UNL     1       1.619   4.075  18.183  0.00  0.00    +0.000 A 
ATOM     21  C   UNL     1       1.062   2.851  18.555  0.00  0.00    +0.000 A 
ATOM     22  C   UNL     1       0.850   2.564  19.903  0.00  0.00    +0.000 A 
ATOM     23  C   UNL     1       1.206   3.496  20.873  0.00  0.00    +0.000 A 
ATOM     24  C   UNL     1       1.758   4.721  20.500  0.00  0.00    +0.000 A 
ENDBRANCH  18  19
ENDBRANCH  17  18
ENDBRANCH  14  17
ENDBRANCH  13  14
ENDBRANCH   1  13
TORSDOF 11
ENDMDL
MODEL 2
REMARK VINA RESULT:      -6.8      2.304      3.247
REMARK  Name = 
REMARK  13 active torsions:
REMARK  status: ('A' for Active; 'I' for Inactive)
REMARK    1  A    between atoms: C_1  and  C_2
REMARK    2  A    between atoms: C_2  and  C_3
REMARK    3  A    between atoms: C_2  and  C_4
REMARK    4  A    between atoms: N_6  and  C_7
REMARK    5  A    between atoms: C_7  and  C_8
REMARK    6  A    between atoms: C_8  and  C_9
REMARK    7  A    between atoms: C_9  and  N_10
REMARK    8  A    between atoms: N_10  and  C_11
REMARK    9  A    between atoms: C_11  and  C_12
REMARK   10  A    between atoms: C_12  and  O_13
REMARK   11  A    between atoms: C_12  and  C_14
REMARK   12  A    between atoms: C_14  and  O_15
REMARK   13  A    between atoms: O_15  and  C_16
REMARK                            x       y       z     vdW  Elec       q    Type
REMARK                         _______ _______ _______ _____ _____    ______ ____
ROOT
ATOM      1  N   UNL     1       5.007   3.136  17.106  0.00  0.00    +0.000 NA
ATOM      2  H   UNL     1       5.892   3.084  17.611  0.00  0.00    +0.000 HD
ENDROOT
BRANCH   1   3
ATOM      3  C   UNL     1       5.069   4.310  16.229  0.00  0.00    +0.000 C 
BRANCH   3   4
ATOM      4  C   UNL     1       6.517   4.790  16.110  0.00  0.00    +0.000 C 
BRANCH   4   5
ATOM      5  C   UNL     1       7.020   4.617  14.679  0.00  0.00    +0.000 C 
BRANCH   5   8
ATOM      6  C   UNL     1       6.366   3.513  12.568  0.00  0.00    +0.000 C 
ATOM      7  O   UNL     1       7.145   4.189  11.907  0.00  0.00    +0.000 OA
ATOM      8  N   UNL     1       6.234   3.654  13.935  0.00  0.00    +0.000 N 
ATOM      9  H   UNL     1       5.599   3.053  14.441  0.00  0.00    +0.000 HD
BRANCH   6  11
ATOM     10  C   UNL     1       4.274   3.138  11.226  0.00  0.00    +0.000 C 
ATOM     11  C   UNL     1       5.435   2.466  11.958  0.00  0.00    +0.000 C 
ATOM     12  C   UNL     1       6.192   1.540  11.005  0.00  0.00    +0.000 C 
ENDBRANCH   6  11
ENDBRANCH   5   8
ENDBRANCH   4   5
ENDBRANCH   3   4
ENDBRANCH   1   3
BRANCH   1  13
ATOM     13  C   UNL     1       3.886   3.252  18.062  0.00  0.00    +0.000 C 
BRANCH  13  14
ATOM     14  C   UNL     1       2.844   4.303  17.613  0.00  0.00    +0.000 C 
BRANCH  14  15
ATOM     15  O   UNL     1       1.610   3.635  17.310  0.00  0.00    +0.000 OA
ATOM     16  H   UNL     1       1.761   3.172  16.464  0.00  0.00    +0.000 HD
ENDBRANCH  14  15
BRANCH  14  17
ATOM     17  C   UNL     1       2.619   5.361  18.701  0.00  0.00    +0.000 C 
BRANCH  17  18
ATOM     18  O   UNL     1       2.994   6.654  18.226  0.00  0.00    +0.000 OA
BRANCH  18  19
ATOM     19  C   UNL     1       2.279   7.697  18.754  0.00  0.00    +0.000 A 
ATOM     20  C   UNL     1       1.996   8.728  17.859  0.00  0.00    +0.000 A 
ATOM     21  C   UNL     1       1.296   9.858  18.282  0.00  0.00    +0.000 A 
ATOM     22  C   UNL     1       0.860   9.954  19.603  0.00  0.00    +0.000 A 
ATOM     23  C   UNL     1       1.115   8.913  20.492  0.00  0.00    +0.000 A 
ATOM     24  C   UNL     1       1.819   7.786  20.070  0.00  0.00    +0.000 A 
ENDBRANCH  18  19
ENDBRANCH  17  18
ENDBRANCH  14  17
ENDBRANCH  13  14
ENDBRANCH   1  13
TORSDOF 11
ENDMDL
MODEL 3
REMARK VINA RESULT:      -6.8      3.383      5.302
REMARK  Name = 
REMARK  13 active torsions:
REMARK  status: ('A' for Active; 'I' for Inactive)
REMARK    1  A    between atoms: C_1  and  C_2
REMARK    2  A    between atoms: C_2  and  C_3
REMARK    3  A    between atoms: C_2  and  C_4
REMARK    4  A    between atoms: N_6  and  C_7
REMARK    5  A    between atoms: C_7  and  C_8
REMARK    6  A    between atoms: C_8  and  C_9
REMARK    7  A    between atoms: C_9  and  N_10
REMARK    8  A    between atoms: N_10  and  C_11
REMARK    9  A    between atoms: C_11  and  C_12
REMARK   10  A    between atoms: C_12  and  O_13
REMARK   11  A    between atoms: C_12  and  C_14
REMARK   12  A    between atoms: C_14  and  O_15
REMARK   13  A    between atoms: O_15  and  C_16
REMARK                            x       y       z     vdW  Elec       q    Type
REMARK                         _______ _______ _______ _____ _____    ______ ____
ROOT
ATOM      1  N   UNL     1       1.478   1.963  18.928  0.00  0.00    +0.000 NA
ATOM      2  H   UNL     1       1.374   1.610  19.879  0.00  0.00    +0.000 HD
ENDROOT
BRANCH   1   3
ATOM      3  C   UNL     1       2.866   1.720  18.518  0.00  0.00    +0.000 C 
BRANCH   3   4
ATOM      4  C   UNL     1       3.378   2.907  17.699  0.00  0.00    +0.000 C 
BRANCH   4   5
ATOM      5  C   UNL     1       4.633   3.494  18.339  0.00  0.00    +0.000 C 
BRANCH   5   8
ATOM      6  C   UNL     1       6.528   4.930  17.667  0.00  0.00    +0.000 C 
ATOM      7  O   UNL     1       7.297   4.377  18.444  0.00  0.00    +0.000 OA
ATOM      8  N   UNL     1       5.202   4.566  17.547  0.00  0.00    +0.000 N 
ATOM      9  H   UNL     1       4.614   5.033  16.871  0.00  0.00    +0.000 HD
BRANCH   6  11
ATOM     10  C   UNL     1       5.748   6.576  15.936  0.00  0.00    +0.000 C 
ATOM     11  C   UNL     1       6.937   6.097  16.770  0.00  0.00    +0.000 C 
ATOM     12  C   UNL     1       7.503   7.256  17.590  0.00  0.00    +0.000 C 
ENDBRANCH   6  11
ENDBRANCH   5   8
ENDBRANCH   4   5
ENDBRANCH   3   4
ENDBRANCH   1   3
BRANCH   1  13
ATOM     13  C   UNL     1       1.162   3.406  18.885  0.00  0.00    +0.000 C 
BRANCH  13  14
ATOM     14  C   UNL     1       0.961   4.000  20.299  0.00  0.00    +0.000 C 
BRANCH  14  15
ATOM     15  O   UNL     1       0.816   2.925  21.239  0.00  0.00    +0.000 OA
ATOM     16  H   UNL     1       1.068   2.115  20.755  0.00  0.00    +0.000 HD
ENDBRANCH  14  15
BRANCH  14  17
ATOM     17  C   UNL     1       2.142   4.896  20.696  0.00  0.00    +0.000 C 
BRANCH  17  18
ATOM     18  O   UNL     1       1.699   6.233  20.927  0.00  0.00    +0.000 OA
BRANCH  18  19
ATOM     19  C   UNL     1       1.928   7.107  19.897  0.00  0.00    +0.000 A 
ATOM     20  C   UNL     1       1.276   8.334  20.010  0.00  0.00    +0.000 A 
ATOM     21  C   UNL     1       1.407   9.299  19.013  0.00  0.00    +0.000 A 
ATOM     22  C   UNL     1       2.210   9.047  17.901  0.00  0.00    +0.000 A 
ATOM     23  C   UNL     1       2.887   7.835  17.798  0.00  0.00    +0.000 A 
ATOM     24  C   UNL     1       2.751   6.868  18.794  0.00  0.00    +0.000 A 
ENDBRANCH  18  19
ENDBRANCH  17  18
ENDBRANCH  14  17
ENDBRANCH  13  14
ENDBRANCH   1  13
TORSDOF 11
ENDMDL
MODEL 4
REMARK VINA RESULT:      -6.7      1.502      1.936
REMARK  Name = 
REMARK  13 active torsions:
REMARK  status: ('A' for Active; 'I' for Inactive)
REMARK    1  A    between atoms: C_1  and  C_2
REMARK    2  A    between atoms: C_2  and  C_3
REMARK    3  A    between atoms: C_2  and  C_4
REMARK    4  A    between atoms: N_6  and  C_7
REMARK    5  A    between atoms: C_7  and  C_8
REMARK    6  A    between atoms: C_8  and  C_9
REMARK    7  A    between atoms: C_9  and  N_10
REMARK    8  A    between atoms: N_10  and  C_11
REMARK    9  A    between atoms: C_11  and  C_12
REMARK   10  A    between atoms: C_12  and  O_13
REMARK   11  A    between atoms: C_12  and  C_14
REMARK   12  A    between atoms: C_14  and  O_15
REMARK   13  A    between atoms: O_15  and  C_16
REMARK                            x       y       z     vdW  Elec       q    Type
REMARK                         _______ _______ _______ _____ _____    ______ ____
ROOT
ATOM      1  N   UNL     1       6.138   5.989  16.414  0.00  0.00    +0.000 NA
ATOM      2  H   UNL     1       5.203   5.589  16.500  0.00  0.00    +0.000 HD
ENDROOT
BRANCH   1   3
ATOM      3  C   UNL     1       6.989   4.984  15.767  0.00  0.00    +0.000 C 
BRANCH   3   4
ATOM      4  C   UNL     1       6.126   3.829  15.254  0.00  0.00    +0.000 C 
BRANCH   4   5
ATOM      5  C   UNL     1       5.681   4.094  13.818  0.00  0.00    +0.000 C 
BRANCH   5   8
ATOM      6  C   UNL     1       5.573   2.678  11.796  0.00  0.00    +0.000 C 
ATOM      7  O   UNL     1       4.414   2.999  11.565  0.00  0.00    +0.000 OA
ATOM      8  N   UNL     1       6.277   3.164  12.880  0.00  0.00    +0.000 N 
ATOM      9  H   UNL     1       7.241   2.893  13.013  0.00  0.00    +0.000 HD
BRANCH   6  11
ATOM     10  C   UNL     1       7.859   1.980  11.018  0.00  0.00    +0.000 C 
ATOM     11  C   UNL     1       6.360   1.690  10.936  0.00  0.00    +0.000 C 
ATOM     12  C   UNL     1       6.081   0.247  11.355  0.00  0.00    +0.000 C 
ENDBRANCH   6  11
ENDBRANCH   5   8
ENDBRANCH   4   5
ENDBRANCH   3   4
ENDBRANCH   1   3
BRANCH   1  13
ATOM     13  C   UNL     1       6.662   6.342  17.750  0.00  0.00    +0.000 C 
BRANCH  13  14
ATOM     14  C   UNL     1       6.891   5.094  18.634  0.00  0.00    +0.000 C 
BRANCH  14  15
ATOM     15  O   UNL     1       7.499   5.505  19.868  0.00  0.00    +0.000 OA
ATOM     16  H   UNL     1       8.354   5.907  19.621  0.00  0.00    +0.000 HD
ENDBRANCH  14  15
BRANCH  14  17
ATOM     17  C   UNL     1       5.572   4.362  18.911  0.00  0.00    +0.000 C 
BRANCH  17  18
ATOM     18  O   UNL     1       4.516   5.298  19.125  0.00  0.00    +0.000 OA
BRANCH  18  19
ATOM     19  C   UNL     1       3.281   4.742  19.333  0.00  0.00    +0.000 A 
ATOM     20  C   UNL     1       2.804   3.958  18.283  0.00  0.00    +0.000 A 
ATOM     21  C   UNL     1       1.548   3.359  18.362  0.00  0.00    +0.000 A 
ATOM     22  C   UNL     1       0.766   3.527  19.504  0.00  0.00    +0.000 A 
ATOM     23  C   UNL     1       1.250   4.284  20.567  0.00  0.00    +0.000 A 
ATOM     24  C   UNL     1       2.505   4.888  20.486  0.00  0.00    +0.000 A 
ENDBRANCH  18  19
ENDBRANCH  17  18
ENDBRANCH  14  17
ENDBRANCH  13  14
ENDBRANCH   1  13
TORSDOF 11
ENDMDL
MODEL 5
REMARK VINA RESULT:      -6.6      1.338      1.723
REMARK  Name = 
REMARK  13 active torsions:
REMARK  status: ('A' for Active; 'I' for Inactive)
REMARK    1  A    between atoms: C_1  and  C_2
REMARK    2  A    between atoms: C_2  and  C_3
REMARK    3  A    between atoms: C_2  and  C_4
REMARK    4  A    between atoms: N_6  and  C_7
REMARK    5  A    between atoms: C_7  and  C_8
REMARK    6  A    between atoms: C_8  and  C_9
REMARK    7  A    between atoms: C_9  and  N_10
REMARK    8  A    between atoms: N_10  and  C_11
REMARK    9  A    between atoms: C_11  and  C_12
REMARK   10  A    between atoms: C_12  and  O_13
REMARK   11  A    between atoms: C_12  and  C_14
REMARK   12  A    between atoms: C_14  and  O_15
REMARK   13  A    between atoms: O_15  and  C_16
REMARK                            x       y       z     vdW  Elec       q    Type
REMARK                         _______ _______ _______ _____ _____    ______ ____
ROOT
ATOM      1  N   UNL     1       6.698   4.704  18.323  0.00  0.00    +0.000 NA
ATOM      2  H   UNL     1       7.455   4.704  19.006  0.00  0.00    +0.000 HD
ENDROOT
BRANCH   1   3
ATOM      3  C   UNL     1       7.173   5.428  17.139  0.00  0.00    +0.000 C 
BRANCH   3   4
ATOM      4  C   UNL     1       7.351   4.451  15.974  0.00  0.00    +0.000 C 
BRANCH   4   5
ATOM      5  C   UNL     1       6.679   4.995  14.716  0.00  0.00    +0.000 C 
BRANCH   5   8
ATOM      6  C   UNL     1       6.284   3.687  12.658  0.00  0.00    +0.000 C 
ATOM      7  O   UNL     1       7.149   4.294  12.038  0.00  0.00    +0.000 OA
ATOM      8  N   UNL     1       5.982   3.962  13.976  0.00  0.00    +0.000 N 
ATOM      9  H   UNL     1       5.281   3.415  14.454  0.00  0.00    +0.000 HD
BRANCH   6  11
ATOM     10  C   UNL     1       4.289   3.185  11.214  0.00  0.00    +0.000 C 
ATOM     11  C   UNL     1       5.426   2.584  12.040  0.00  0.00    +0.000 C 
ATOM     12  C   UNL     1       6.266   1.647  11.173  0.00  0.00    +0.000 C 
ENDBRANCH   6  11
ENDBRANCH   5   8
ENDBRANCH   4   5
ENDBRANCH   3   4
ENDBRANCH   1   3
BRANCH   1  13
ATOM     13  C   UNL     1       5.501   5.356  18.894  0.00  0.00    +0.000 C 
BRANCH  13  14
ATOM     14  C   UNL     1       4.192   4.833  18.257  0.00  0.00    +0.000 C 
BRANCH  14  15
ATOM     15  O   UNL     1       3.765   5.758  17.246  0.00  0.00    +0.000 OA
ATOM     16  H   UNL     1       3.885   6.647  17.632  0.00  0.00    +0.000 HD
ENDBRANCH  14  15
BRANCH  14  17
ATOM     17  C   UNL     1       4.391   3.438  17.650  0.00  0.00    +0.000 C 
BRANCH  17  18
ATOM     18  O   UNL     1       3.229   2.634  17.855  0.00  0.00    +0.000 OA
BRANCH  18  19
ATOM     19  C   UNL     1       2.672   2.728  19.104  0.00  0.00    +0.000 A 
ATOM     20  C   UNL     1       1.348   3.165  19.125  0.00  0.00    +0.000 A 
ATOM     21  C   UNL     1       0.677   3.326  20.337  0.00  0.00    +0.000 A 
ATOM     22  C   UNL     1       1.324   3.033  21.536  0.00  0.00    +0.000 A 
ATOM     23  C   UNL     1       2.636   2.568  21.518  0.00  0.00    +0.000 A 
ATOM     24  C   UNL     1       3.308   2.411  20.306  0.00  0.00    +0.000 A 
ENDBRANCH  18  19
ENDBRANCH  17  18
ENDBRANCH  14  17
ENDBRANCH  13  14
ENDBRANCH   1  13
TORSDOF 11
ENDMDL
MODEL 6
REMARK VINA RESULT:      -6.6      2.576      4.507
REMARK  Name = 
REMARK  13 active torsions:
REMARK  status: ('A' for Active; 'I' for Inactive)
REMARK    1  A    between atoms: C_1  and  C_2
REMARK    2  A    between atoms: C_2  and  C_3
REMARK    3  A    between atoms: C_2  and  C_4
REMARK    4  A    between atoms: N_6  and  C_7
REMARK    5  A    between atoms: C_7  and  C_8
REMARK    6  A    between atoms: C_8  and  C_9
REMARK    7  A    between atoms: C_9  and  N_10
REMARK    8  A    between atoms: N_10  and  C_11
REMARK    9  A    between atoms: C_11  and  C_12
REMARK   10  A    between atoms: C_12  and  O_13
REMARK   11  A    between atoms: C_12  and  C_14
REMARK   12  A    between atoms: C_14  and  O_15
REMARK   13  A    between atoms: O_15  and  C_16
REMARK                            x       y       z     vdW  Elec       q    Type
REMARK                         _______ _______ _______ _____ _____    ______ ____
ROOT
ATOM      1  N   UNL     1       4.741   3.918  16.696  0.00  0.00    +0.000 NA
ATOM      2  H   UNL     1       3.839   4.075  16.246  0.00  0.00    +0.000 HD
ENDROOT
BRANCH   1   3
ATOM      3  C   UNL     1       5.616   3.270  15.713  0.00  0.00    +0.000 C 
BRANCH   3   4
ATOM      4  C   UNL     1       5.773   4.173  14.487  0.00  0.00    +0.000 C 
BRANCH   4   5
ATOM      5  C   UNL     1       7.101   4.924  14.545  0.00  0.00    +0.000 C 
BRANCH   5   8
ATOM      6  C   UNL     1       6.527   6.463  16.391  0.00  0.00    +0.000 C 
ATOM      7  O   UNL     1       5.545   6.896  15.801  0.00  0.00    +0.000 OA
ATOM      8  N   UNL     1       7.351   5.495  15.854  0.00  0.00    +0.000 N 
ATOM      9  H   UNL     1       8.133   5.148  16.391  0.00  0.00    +0.000 HD
BRANCH   6  11
ATOM     10  C   UNL     1       7.650   5.840  18.551  0.00  0.00    +0.000 C 
ATOM     11  C   UNL     1       6.967   6.961  17.767  0.00  0.00    +0.000 C 
ATOM     12  C   UNL     1       7.903   8.163  17.648  0.00  0.00    +0.000 C 
ENDBRANCH   6  11
ENDBRANCH   5   8
ENDBRANCH   4   5
ENDBRANCH   3   4
ENDBRANCH   1   3
BRANCH   1  13
ATOM     13  C   UNL     1       4.570   3.066  17.891  0.00  0.00    +0.000 C 
BRANCH  13  14
ATOM     14  C   UNL     1       3.497   1.973  17.678  0.00  0.00    +0.000 C 
BRANCH  14  15
ATOM     15  O   UNL     1       3.928   0.765  18.323  0.00  0.00    +0.000 OA
ATOM     16  H   UNL     1       4.645   0.409  17.764  0.00  0.00    +0.000 HD
ENDBRANCH  14  15
BRANCH  14  17
ATOM     17  C   UNL     1       2.138   2.415  18.235  0.00  0.00    +0.000 C 
BRANCH  17  18
ATOM     18  O   UNL     1       1.726   3.642  17.633  0.00  0.00    +0.000 OA
BRANCH  18  19
ATOM     19  C   UNL     1       1.881   4.754  18.418  0.00  0.00    +0.000 A 
ATOM     20  C   UNL     1       1.607   4.561  19.772  0.00  0.00    +0.000 A 
ATOM     21  C   UNL     1       1.703   5.623  20.671  0.00  0.00    +0.000 A 
ATOM     22  C   UNL     1       2.091   6.884  20.220  0.00  0.00    +0.000 A 
ATOM     23  C   UNL     1       2.394   7.074  18.875  0.00  0.00    +0.000 A 
ATOM     24  C   UNL     1       2.294   6.013  17.975  0.00  0.00    +0.000 A 
ENDBRANCH  18  19
ENDBRANCH  17  18
ENDBRANCH  14  17
ENDBRANCH  13  14
ENDBRANCH   1  13
TORSDOF 11
ENDMDL
MODEL 7
REMARK VINA RESULT:      -6.6      1.787      2.554
REMARK  Name = 
REMARK  13 active torsions:
REMARK  status: ('A' for Active; 'I' for Inactive)
REMARK    1  A    between atoms: C_1  and  C_2
REMARK    2  A    between atoms: C_2  and  C_3
REMARK    3  A    between atoms: C_2  and  C_4
REMARK    4  A    between atoms: N_6  and  C_7
REMARK    5  A    between atoms: C_7  and  C_8
REMARK    6  A    between atoms: C_8  and  C_9
REMARK    7  A    between atoms: C_9  and  N_10
REMARK    8  A    between atoms: N_10  and  C_11
REMARK    9  A    between atoms: C_11  and  C_12
REMARK   10  A    between atoms: C_12  and  O_13
REMARK   11  A    between atoms: C_12  and  C_14
REMARK   12  A    between atoms: C_14  and  O_15
REMARK   13  A    between atoms: O_15  and  C_16
REMARK                            x       y       z     vdW  Elec       q    Type
REMARK                         _______ _______ _______ _____ _____    ______ ____
ROOT
ATOM      1  N   UNL     1       4.977   6.386  17.210  0.00  0.00    +0.000 NA
ATOM      2  H   UNL     1       4.878   6.094  18.182  0.00  0.00    +0.000 HD
ENDROOT
BRANCH   1   3
ATOM      3  C   UNL     1       6.140   7.278  17.136  0.00  0.00    +0.000 C 
BRANCH   3   4
ATOM      4  C   UNL     1       7.426   6.449  17.126  0.00  0.00    +0.000 C 
BRANCH   4   5
ATOM      5  C   UNL     1       7.112   4.980  16.853  0.00  0.00    +0.000 C 
BRANCH   5   8
ATOM      6  C   UNL     1       6.389   4.398  14.563  0.00  0.00    +0.000 C 
ATOM      7  O   UNL     1       5.203   4.518  14.845  0.00  0.00    +0.000 OA
ATOM      8  N   UNL     1       7.397   4.604  15.483  0.00  0.00    +0.000 N 
ATOM      9  H   UNL     1       8.362   4.521  15.196  0.00  0.00    +0.000 HD
BRANCH   6  11
ATOM     10  C   UNL     1       5.736   3.425  12.340  0.00  0.00    +0.000 C 
ATOM     11  C   UNL     1       6.885   3.981  13.179  0.00  0.00    +0.000 C 
ATOM     12  C   UNL     1       7.548   5.151  12.453  0.00  0.00    +0.000 C 
ENDBRANCH   6  11
ENDBRANCH   5   8
ENDBRANCH   4   5
ENDBRANCH   3   4
ENDBRANCH   1   3
BRANCH   1  13
ATOM     13  C   UNL     1       3.752   7.081  16.763  0.00  0.00    +0.000 C 
BRANCH  13  14
ATOM     14  C   UNL     1       3.155   7.981  17.870  0.00  0.00    +0.000 C 
BRANCH  14  15
ATOM     15  O   UNL     1       2.300   8.961  17.262  0.00  0.00    +0.000 OA
ATOM     16  H   UNL     1       1.452   8.906  17.742  0.00  0.00    +0.000 HD
ENDBRANCH  14  15
BRANCH  14  17
ATOM     17  C   UNL     1       2.367   7.153  18.893  0.00  0.00    +0.000 C 
BRANCH  17  18
ATOM     18  O   UNL     1       3.112   5.997  19.280  0.00  0.00    +0.000 OA
BRANCH  18  19
ATOM     19  C   UNL     1       2.377   4.848  19.404  0.00  0.00    +0.000 A 
ATOM     20  C   UNL     1       2.488   3.960  18.334  0.00  0.00    +0.000 A 
ATOM     21  C   UNL     1       1.768   2.766  18.329  0.00  0.00    +0.000 A 
ATOM     22  C   UNL     1       0.944   2.444  19.407  0.00  0.00    +0.000 A 
ATOM     23  C   UNL     1       0.854   3.313  20.491  0.00  0.00    +0.000 A 
ATOM     24  C   UNL     1       1.570   4.510  20.493  0.00  0.00    +0.000 A 
ENDBRANCH  18  19
ENDBRANCH  17  18
ENDBRANCH  14  17
ENDBRANCH  13  14
ENDBRANCH   1  13
TORSDOF 11
ENDMDL
MODEL 8
REMARK VINA RESULT:      -6.6      1.057      1.688
REMARK  Name = 
REMARK  13 active torsions:
REMARK  status: ('A' for Active; 'I' for Inactive)
REMARK    1  A    between atoms: C_1  and  C_2
REMARK    2  A    between atoms: C_2  and  C_3
REMARK    3  A    between atoms: C_2  and  C_4
REMARK    4  A    between atoms: N_6  and  C_7
REMARK    5  A    between atoms: C_7  and  C_8
REMARK    6  A    between atoms: C_8  and  C_9
REMARK    7  A    between atoms: C_9  and  N_10
REMARK    8  A    between atoms: N_10  and  C_11
REMARK    9  A    between atoms: C_11  and  C_12
REMARK   10  A    between atoms: C_12  and  O_13
REMARK   11  A    between atoms: C_12  and  C_14
REMARK   12  A    between atoms: C_14  and  O_15
REMARK   13  A    between atoms: O_15  and  C_16
REMARK                            x       y       z     vdW  Elec       q    Type
REMARK                         _______ _______ _______ _____ _____    ______ ____
ROOT
ATOM      1  N   UNL     1       7.223   5.947  16.434  0.00  0.00    +0.000 NA
ATOM      2  H   UNL     1       6.855   6.020  15.486  0.00  0.00    +0.000 HD
ENDROOT
BRANCH   1   3
ATOM      3  C   UNL     1       7.278   4.521  16.776  0.00  0.00    +0.000 C 
BRANCH   3   4
ATOM      4  C   UNL     1       6.532   3.707  15.717  0.00  0.00    +0.000 C 
BRANCH   4   5
ATOM      5  C   UNL     1       6.229   4.572  14.497  0.00  0.00    +0.000 C 
BRANCH   5   8
ATOM      6  C   UNL     1       6.286   3.674  12.195  0.00  0.00    +0.000 C 
ATOM      7  O   UNL     1       7.370   4.194  11.959  0.00  0.00    +0.000 OA
ATOM      8  N   UNL     1       5.648   3.805  13.412  0.00  0.00    +0.000 N 
ATOM      9  H   UNL     1       4.769   3.334  13.570  0.00  0.00    +0.000 HD
BRANCH   6  11
ATOM     10  C   UNL     1       5.847   1.368  11.300  0.00  0.00    +0.000 C 
ATOM     11  C   UNL     1       5.507   2.852  11.170  0.00  0.00    +0.000 C 
ATOM     12  C   UNL     1       4.000   3.061  11.322  0.00  0.00    +0.000 C 
ENDBRANCH   6  11
ENDBRANCH   5   8
ENDBRANCH   4   5
ENDBRANCH   3   4
ENDBRANCH   1   3
BRANCH   1  13
ATOM     13  C   UNL     1       6.351   6.681  17.375  0.00  0.00    +0.000 C 
BRANCH  13  14
ATOM     14  C   UNL     1       5.575   5.728  18.314  0.00  0.00    +0.000 C 
BRANCH  14  15
ATOM     15  O   UNL     1       6.257   5.661  19.575  0.00  0.00    +0.000 OA
ATOM     16  H   UNL     1       6.976   5.012  19.453  0.00  0.00    +0.000 HD
ENDBRANCH  14  15
BRANCH  14  17
ATOM     17  C   UNL     1       4.131   6.205  18.517  0.00  0.00    +0.000 C 
BRANCH  17  18
ATOM     18  O   UNL     1       3.236   5.444  17.706  0.00  0.00    +0.000 OA
BRANCH  18  19
ATOM     19  C   UNL     1       2.412   4.592  18.394  0.00  0.00    +0.000 A 
ATOM     20  C   UNL     1       1.977   5.065  19.631  0.00  0.00    +0.000 A 
ATOM     21  C   UNL     1       1.155   4.279  20.439  0.00  0.00    +0.000 A 
ATOM     22  C   UNL     1       0.748   3.019  20.002  0.00  0.00    +0.000 A 
ATOM     23  C   UNL     1       1.155   2.555  18.755  0.00  0.00    +0.000 A 
ATOM     24  C   UNL     1       1.981   3.339  17.949  0.00  0.00    +0.000 A 
ENDBRANCH  18  19
ENDBRANCH  17  18
ENDBRANCH  14  17
ENDBRANCH  13  14
ENDBRANCH   1  13
TORSDOF 11
ENDMDL
MODEL 9
REMARK VINA RESULT:      -6.6      1.831      2.650
REMARK  Name = 
REMARK  13 active torsions:
REMARK  status: ('A' for Active; 'I' for Inactive)
REMARK    1  A    between atoms: C_1  and  C_2
REMARK    2  A    between atoms: C_2  and  C_3
REMARK    3  A    between atoms: C_2  and  C_4
REMARK    4  A    between atoms: N_6  and  C_7
REMARK    5  A    between atoms: C_7  and  C_8
REMARK    6  A    between atoms: C_8  and  C_9
REMARK    7  A    between atoms: C_9  and  N_10
REMARK    8  A    between atoms: N_10  and  C_11
REMARK    9  A    between atoms: C_11  and  C_12
REMARK   10  A    between atoms: C_12  and  O_13
REMARK   11  A    between atoms: C_12  and  C_14
REMARK   12  A    between atoms: C_14  and  O_15
REMARK   13  A    between atoms: O_15  and  C_16
REMARK                            x       y       z     vdW  Elec       q    Type
REMARK                         _______ _______ _______ _____ _____    ______ ____
ROOT
ATOM      1  N   UNL     1       4.717   4.023  16.837  0.00  0.00    +0.000 NA
ATOM      2  H   UNL     1       4.773   3.573  15.923  0.00  0.00    +0.000 HD
ENDROOT
BRANCH   1   3
ATOM      3  C   UNL     1       5.806   5.003  16.912  0.00  0.00    +0.000 C 
BRANCH   3   4
ATOM      4  C   UNL     1       6.980   4.538  16.047  0.00  0.00    +0.000 C 
BRANCH   4   5
ATOM      5  C   UNL     1       6.751   4.919  14.588  0.00  0.00    +0.000 C 
BRANCH   5   8
ATOM      6  C   UNL     1       6.372   3.586  12.542  0.00  0.00    +0.000 C 
ATOM      7  O   UNL     1       7.249   4.178  11.925  0.00  0.00    +0.000 OA
ATOM      8  N   UNL     1       6.056   3.881  13.853  0.00  0.00    +0.000 N 
ATOM      9  H   UNL     1       5.344   3.346  14.329  0.00  0.00    +0.000 HD
BRANCH   6  11
ATOM     10  C   UNL     1       4.314   3.077  11.191  0.00  0.00    +0.000 C 
ATOM     11  C   UNL     1       5.513   2.481  11.929  0.00  0.00    +0.000 C 
ATOM     12  C   UNL     1       6.331   1.605  10.980  0.00  0.00    +0.000 C 
ENDBRANCH   6  11
ENDBRANCH   5   8
ENDBRANCH   4   5
ENDBRANCH   3   4
ENDBRANCH   1   3
BRANCH   1  13
ATOM     13  C   UNL     1       4.844   3.013  17.908  0.00  0.00    +0.000 C 
BRANCH  13  14
ATOM     14  C   UNL     1       3.580   2.129  18.027  0.00  0.00    +0.000 C 
BRANCH  14  15
ATOM     15  O   UNL     1       3.972   0.812  18.441  0.00  0.00    +0.000 OA
ATOM     16  H   UNL     1       3.160   0.388  18.780  0.00  0.00    +0.000 HD
ENDBRANCH  14  15
BRANCH  14  17
ATOM     17  C   UNL     1       2.581   2.723  19.028  0.00  0.00    +0.000 C 
BRANCH  17  18
ATOM     18  O   UNL     1       1.762   3.705  18.393  0.00  0.00    +0.000 OA
BRANCH  18  19
ATOM     19  C   UNL     1       1.896   4.978  18.882  0.00  0.00    +0.000 A 
ATOM     20  C   UNL     1       1.503   5.142  20.209  0.00  0.00    +0.000 A 
ATOM     21  C   UNL     1       1.567   6.397  20.815  0.00  0.00    +0.000 A 
ATOM     22  C   UNL     1       2.044   7.493  20.097  0.00  0.00    +0.000 A 
ATOM     23  C   UNL     1       2.465   7.328  18.781  0.00  0.00    +0.000 A 
ATOM     24  C   UNL     1       2.396   6.074  18.174  0.00  0.00    +0.000 A 
ENDBRANCH  18  19
ENDBRANCH  17  18
ENDBRANCH  14  17
ENDBRANCH  13  14
ENDBRANCH   1  13
TORSDOF 11
ENDMDL
