MODEL 1
REMARK VINA RESULT:      -6.3      0.000      0.000
REMARK  Name = 
REMARK  1 active torsions:
REMARK  status: ('A' for Active; 'I' for Inactive)
REMARK    1  A    between atoms: O_1  and  C_2
REMARK                            x       y       z     vdW  Elec       q    Type
REMARK                         _______ _______ _______ _____ _____    ______ ____
ROOT
ATOM      1  C   UNL     1       6.468   4.866  16.983  0.00  0.00    +0.000 C 
ATOM      2  C   UNL     1       6.352   6.397  16.976  0.00  0.00    +0.000 C 
ATOM      3  N   UNL     1       4.993   6.880  17.260  0.00  0.00    +0.000 NA
ATOM      4  C   UNL     1       4.306   6.118  18.037  0.00  0.00    +0.000 C 
ATOM      5  S   UNL     1       2.657   6.582  18.500  0.00  0.00    +0.000 S 
ATOM      6  C   UNL     1       2.513   5.107  19.492  0.00  0.00    +0.000 A 
ATOM      7  C   UNL     1       1.416   4.712  20.241  0.00  0.00    +0.000 A 
ATOM      8  C   UNL     1       1.501   3.517  20.952  0.00  0.00    +0.000 A 
ATOM      9  C   UNL     1       2.672   2.747  20.905  0.00  0.00    +0.000 A 
ATOM     10  C   UNL     1       3.774   3.160  20.141  0.00  0.00    +0.000 A 
ATOM     11  C   UNL     1       3.697   4.345  19.422  0.00  0.00    +0.000 A 
ATOM     12  N   UNL     1       4.664   4.907  18.595  0.00  0.00    +0.000 N 
ATOM     13  C   UNL     1       5.967   4.336  18.335  0.00  0.00    +0.000 C 
ENDROOT
BRANCH   1  14
ATOM     14  O   UNL     1       7.817   4.459  16.761  0.00  0.00    +0.000 OA
ATOM     15  H   UNL     1       8.254   5.175  16.266  0.00  0.00    +0.000 HD
ENDBRANCH   1  14
TORSDOF 1
ENDMDL
MODEL 2
REMARK VINA RESULT:      -6.2      1.882      2.401
REMARK  Name = 
REMARK  1 active torsions:
REMARK  status: ('A' for Active; 'I' for Inactive)
REMARK    1  A    between atoms: O_1  and  C_2
REMARK                            x       y       z     vdW  Elec       q    Type
REMARK                         _______ _______ _______ _____ _____    ______ ____
ROOT
ATOM      1  C   UNL     1       5.946   5.982  17.128  0.00  0.00    +0.000 C 
ATOM      2  C   UNL     1       5.838   5.032  15.928  0.00  0.00    +0.000 C 
ATOM      3  N   UNL     1       5.239   3.732  16.265  0.00  0.00    +0.000 NA
ATOM      4  C   UNL     1       4.379   3.771  17.222  0.00  0.00    +0.000 C 
ATOM      5  S   UNL     1       3.545   2.288  17.722  0.00  0.00    +0.000 S 
ATOM      6  C   UNL     1       2.634   3.206  18.950  0.00  0.00    +0.000 A 
ATOM      7  C   UNL     1       1.691   2.705  19.833  0.00  0.00    +0.000 A 
ATOM      8  C   UNL     1       1.086   3.592  20.723  0.00  0.00    +0.000 A 
ATOM      9  C   UNL     1       1.431   4.951  20.710  0.00  0.00    +0.000 A 
ATOM     10  C   UNL     1       2.388   5.442  19.810  0.00  0.00    +0.000 A 
ATOM     11  C   UNL     1       3.003   4.566  18.926  0.00  0.00    +0.000 A 
ATOM     12  N   UNL     1       3.984   4.853  17.982  0.00  0.00    +0.000 N 
ATOM     13  C   UNL     1       4.552   6.162  17.748  0.00  0.00    +0.000 C 
ENDROOT
BRANCH   1  14
ATOM     14  O   UNL     1       6.477   7.245  16.730  0.00  0.00    +0.000 OA
ATOM     15  H   UNL     1       6.381   7.303  15.762  0.00  0.00    +0.000 HD
ENDBRANCH   1  14
TORSDOF 1
ENDMDL
MODEL 3
REMARK VINA RESULT:      -6.1      1.276      1.276
REMARK  Name = 
REMARK  1 active torsions:
REMARK  status: ('A' for Active; 'I' for Inactive)
REMARK    1  A    between atoms: O_1  and  C_2
REMARK                            x       y       z     vdW  Elec       q    Type
REMARK                         _______ _______ _______ _____ _____    ______ ____
ROOT
ATOM      1  C   UNL     1       5.139   4.509  15.652  0.00  0.00    +0.000 C 
ATOM      2  C   UNL     1       5.614   5.919  16.032  0.00  0.00    +0.000 C 
ATOM      3  N   UNL     1       4.652   6.654  16.866  0.00  0.00    +0.000 NA
ATOM      4  C   UNL     1       3.936   5.913  17.637  0.00  0.00    +0.000 C 
ATOM      5  S   UNL     1       2.752   6.656  18.728  0.00  0.00    +0.000 S 
ATOM      6  C   UNL     1       2.302   5.045  19.348  0.00  0.00    +0.000 A 
ATOM      7  C   UNL     1       1.353   4.762  20.318  0.00  0.00    +0.000 A 
ATOM      8  C   UNL     1       1.147   3.428  20.666  0.00  0.00    +0.000 A 
ATOM      9  C   UNL     1       1.889   2.413  20.048  0.00  0.00    +0.000 A 
ATOM     10  C   UNL     1       2.846   2.716  19.068  0.00  0.00    +0.000 A 
ATOM     11  C   UNL     1       3.053   4.040  18.706  0.00  0.00    +0.000 A 
ATOM     12  N   UNL     1       3.931   4.537  17.748  0.00  0.00    +0.000 N 
ATOM     13  C   UNL     1       4.815   3.731  16.936  0.00  0.00    +0.000 C 
ENDROOT
BRANCH   1  14
ATOM     14  O   UNL     1       6.136   3.825  14.896  0.00  0.00    +0.000 OA
ATOM     15  H   UNL     1       6.340   4.381  14.122  0.00  0.00    +0.000 HD
ENDBRANCH   1  14
TORSDOF 1
ENDMDL
MODEL 4
REMARK VINA RESULT:      -6.1      2.763      5.196
REMARK  Name = 
REMARK  1 active torsions:
REMARK  status: ('A' for Active; 'I' for Inactive)
REMARK    1  A    between atoms: O_1  and  C_2
REMARK                            x       y       z     vdW  Elec       q    Type
REMARK                         _______ _______ _______ _____ _____    ______ ____
ROOT
ATOM      1  C   UNL     1       2.230   2.383  18.736  0.00  0.00    +0.000 C 
ATOM      2  C   UNL     1       2.109   3.460  19.823  0.00  0.00    +0.000 C 
ATOM      3  N   UNL     1       3.363   4.187  20.066  0.00  0.00    +0.000 NA
ATOM      4  C   UNL     1       4.125   4.299  19.035  0.00  0.00    +0.000 C 
ATOM      5  S   UNL     1       5.660   5.180  19.161  0.00  0.00    +0.000 S 
ATOM      6  C   UNL     1       5.987   4.871  17.435  0.00  0.00    +0.000 A 
ATOM      7  C   UNL     1       7.098   5.277  16.713  0.00  0.00    +0.000 A 
ATOM      8  C   UNL     1       7.168   4.933  15.364  0.00  0.00    +0.000 A 
ATOM      9  C   UNL     1       6.133   4.199  14.767  0.00  0.00    +0.000 A 
ATOM     10  C   UNL     1       5.015   3.795  15.512  0.00  0.00    +0.000 A 
ATOM     11  C   UNL     1       4.940   4.124  16.858  0.00  0.00    +0.000 A 
ATOM     12  N   UNL     1       3.934   3.798  17.763  0.00  0.00    +0.000 N 
ATOM     13  C   UNL     1       2.748   3.035  17.445  0.00  0.00    +0.000 C 
ENDROOT
BRANCH   1  14
ATOM     14  O   UNL     1       0.971   1.754  18.502  0.00  0.00    +0.000 OA
ATOM     15  H   UNL     1       0.538   1.650  19.369  0.00  0.00    +0.000 HD
ENDBRANCH   1  14
TORSDOF 1
ENDMDL
MODEL 5
REMARK VINA RESULT:      -6.0      1.533      1.572
REMARK  Name = 
REMARK  1 active torsions:
REMARK  status: ('A' for Active; 'I' for Inactive)
REMARK    1  A    between atoms: O_1  and  C_2
REMARK                            x       y       z     vdW  Elec       q    Type
REMARK                         _______ _______ _______ _____ _____    ______ ____
ROOT
ATOM      1  C   UNL     1       6.255   5.246  15.821  0.00  0.00    +0.000 C 
ATOM      2  C   UNL     1       6.429   6.506  16.681  0.00  0.00    +0.000 C 
ATOM      3  N   UNL     1       5.185   6.944  17.331  0.00  0.00    +0.000 NA
ATOM      4  C   UNL     1       4.367   5.993  17.619  0.00  0.00    +0.000 C 
ATOM      5  S   UNL     1       2.837   6.359  18.437  0.00  0.00    +0.000 S 
ATOM      6  C   UNL     1       2.419   4.626  18.447  0.00  0.00    +0.000 A 
ATOM      7  C   UNL     1       1.268   4.050  18.962  0.00  0.00    +0.000 A 
ATOM      8  C   UNL     1       1.128   2.667  18.872  0.00  0.00    +0.000 A 
ATOM      9  C   UNL     1       2.133   1.891  18.277  0.00  0.00    +0.000 A 
ATOM     10  C   UNL     1       3.292   2.489  17.760  0.00  0.00    +0.000 A 
ATOM     11  C   UNL     1       3.438   3.867  17.837  0.00  0.00    +0.000 A 
ATOM     12  N   UNL     1       4.493   4.642  17.365  0.00  0.00    +0.000 N 
ATOM     13  C   UNL     1       5.664   4.127  16.692  0.00  0.00    +0.000 C 
ENDROOT
BRANCH   1  14
ATOM     14  O   UNL     1       7.503   4.835  15.266  0.00  0.00    +0.000 OA
ATOM     15  H   UNL     1       7.790   4.046  15.760  0.00  0.00    +0.000 HD
ENDBRANCH   1  14
TORSDOF 1
ENDMDL
MODEL 6
REMARK VINA RESULT:      -5.9      1.796      2.077
REMARK  Name = 
REMARK  1 active torsions:
REMARK  status: ('A' for Active; 'I' for Inactive)
REMARK    1  A    between atoms: O_1  and  C_2
REMARK                            x       y       z     vdW  Elec       q    Type
REMARK                         _______ _______ _______ _____ _____    ______ ____
ROOT
ATOM      1  C   UNL     1       6.770   4.869  18.275  0.00  0.00    +0.000 C 
ATOM      2  C   UNL     1       6.538   4.784  16.760  0.00  0.00    +0.000 C 
ATOM      3  N   UNL     1       5.416   3.908  16.391  0.00  0.00    +0.000 NA
ATOM      4  C   UNL     1       4.469   3.855  17.260  0.00  0.00    +0.000 C 
ATOM      5  S   UNL     1       3.030   2.867  16.944  0.00  0.00    +0.000 S 
ATOM      6  C   UNL     1       2.333   3.367  18.507  0.00  0.00    +0.000 A 
ATOM      7  C   UNL     1       1.111   2.982  19.035  0.00  0.00    +0.000 A 
ATOM      8  C   UNL     1       0.744   3.486  20.281  0.00  0.00    +0.000 A 
ATOM      9  C   UNL     1       1.596   4.363  20.968  0.00  0.00    +0.000 A 
ATOM     10  C   UNL     1       2.830   4.744  20.420  0.00  0.00    +0.000 A 
ATOM     11  C   UNL     1       3.210   4.239  19.184  0.00  0.00    +0.000 A 
ATOM     12  N   UNL     1       4.393   4.477  18.491  0.00  0.00    +0.000 N 
ATOM     13  C   UNL     1       5.469   5.324  18.953  0.00  0.00    +0.000 C 
ENDROOT
BRANCH   1  14
ATOM     14  O   UNL     1       7.829   5.777  18.575  0.00  0.00    +0.000 OA
ATOM     15  H   UNL     1       8.236   5.476  19.408  0.00  0.00    +0.000 HD
ENDBRANCH   1  14
TORSDOF 1
ENDMDL
MODEL 7
REMARK VINA RESULT:      -5.9      2.888      5.194
REMARK  Name = 
REMARK  1 active torsions:
REMARK  status: ('A' for Active; 'I' for Inactive)
REMARK    1  A    between atoms: O_1  and  C_2
REMARK                            x       y       z     vdW  Elec       q    Type
REMARK                         _______ _______ _______ _____ _____    ______ ____
ROOT
ATOM      1  C   UNL     1       1.852   5.914  20.266  0.00  0.00    +0.000 C 
ATOM      2  C   UNL     1       2.181   4.602  20.991  0.00  0.00    +0.000 C 
ATOM      3  N   UNL     1       2.604   3.524  20.084  0.00  0.00    +0.000 NA
ATOM      4  C   UNL     1       3.216   3.925  19.025  0.00  0.00    +0.000 C 
ATOM      5  S   UNL     1       3.817   2.742  17.849  0.00  0.00    +0.000 S 
ATOM      6  C   UNL     1       4.468   4.062  16.842  0.00  0.00    +0.000 A 
ATOM      7  C   UNL     1       5.145   3.935  15.640  0.00  0.00    +0.000 A 
ATOM      8  C   UNL     1       5.575   5.097  15.002  0.00  0.00    +0.000 A 
ATOM      9  C   UNL     1       5.327   6.352  15.575  0.00  0.00    +0.000 A 
ATOM     10  C   UNL     1       4.640   6.464  16.792  0.00  0.00    +0.000 A 
ATOM     11  C   UNL     1       4.198   5.314  17.432  0.00  0.00    +0.000 A 
ATOM     12  N   UNL     1       3.486   5.218  18.623  0.00  0.00    +0.000 N 
ATOM     13  C   UNL     1       3.070   6.341  19.433  0.00  0.00    +0.000 C 
ENDROOT
BRANCH   1  14
ATOM     14  O   UNL     1       1.507   6.936  21.199  0.00  0.00    +0.000 OA
ATOM     15  H   UNL     1       1.519   6.531  22.085  0.00  0.00    +0.000 HD
ENDBRANCH   1  14
TORSDOF 1
ENDMDL
MODEL 8
REMARK VINA RESULT:      -5.8      2.549      4.741
REMARK  Name = 
REMARK  1 active torsions:
REMARK  status: ('A' for Active; 'I' for Inactive)
REMARK    1  A    between atoms: O_1  and  C_2
REMARK                            x       y       z     vdW  Elec       q    Type
REMARK                         _______ _______ _______ _____ _____    ______ ____
ROOT
ATOM      1  C   UNL     1       2.599   3.666  20.707  0.00  0.00    +0.000 C 
ATOM      2  C   UNL     1       1.545   4.782  20.725  0.00  0.00    +0.000 C 
ATOM      3  N   UNL     1       1.976   6.003  20.028  0.00  0.00    +0.000 NA
ATOM      4  C   UNL     1       2.783   5.802  19.046  0.00  0.00    +0.000 C 
ATOM      5  S   UNL     1       3.366   7.174  18.085  0.00  0.00    +0.000 S 
ATOM      6  C   UNL     1       4.304   6.063  17.054  0.00  0.00    +0.000 A 
ATOM      7  C   UNL     1       5.105   6.404  15.975  0.00  0.00    +0.000 A 
ATOM      8  C   UNL     1       5.761   5.381  15.293  0.00  0.00    +0.000 A 
ATOM      9  C   UNL     1       5.602   4.048  15.695  0.00  0.00    +0.000 A 
ATOM     10  C   UNL     1       4.789   3.718  16.789  0.00  0.00    +0.000 A 
ATOM     11  C   UNL     1       4.138   4.730  17.482  0.00  0.00    +0.000 A 
ATOM     12  N   UNL     1       3.315   4.610  18.597  0.00  0.00    +0.000 N 
ATOM     13  C   UNL     1       2.979   3.364  19.249  0.00  0.00    +0.000 C 
ENDROOT
BRANCH   1  14
ATOM     14  O   UNL     1       2.104   2.490  21.344  0.00  0.00    +0.000 OA
ATOM     15  H   UNL     1       2.048   1.797  20.661  0.00  0.00    +0.000 HD
ENDBRANCH   1  14
TORSDOF 1
ENDMDL
MODEL 9
REMARK VINA RESULT:      -5.8      2.193      2.385
REMARK  Name = 
REMARK  1 active torsions:
REMARK  status: ('A' for Active; 'I' for Inactive)
REMARK    1  A    between atoms: O_1  and  C_2
REMARK                            x       y       z     vdW  Elec       q    Type
REMARK                         _______ _______ _______ _____ _____    ______ ____
ROOT
ATOM      1  C   UNL     1       5.874   4.204  14.351  0.00  0.00    +0.000 C 
ATOM      2  C   UNL     1       6.793   5.291  14.927  0.00  0.00    +0.000 C 
ATOM      3  N   UNL     1       6.102   6.215  15.839  0.00  0.00    +0.000 NA
ATOM      4  C   UNL     1       5.123   5.692  16.490  0.00  0.00    +0.000 C 
ATOM      5  S   UNL     1       4.212   6.672  17.654  0.00  0.00    +0.000 S 
ATOM      6  C   UNL     1       3.182   5.268  18.041  0.00  0.00    +0.000 A 
ATOM      7  C   UNL     1       2.135   5.229  18.948  0.00  0.00    +0.000 A 
ATOM      8  C   UNL     1       1.448   4.027  19.107  0.00  0.00    +0.000 A 
ATOM      9  C   UNL     1       1.821   2.896  18.367  0.00  0.00    +0.000 A 
ATOM     10  C   UNL     1       2.883   2.952  17.453  0.00  0.00    +0.000 A 
ATOM     11  C   UNL     1       3.568   4.146  17.279  0.00  0.00    +0.000 A 
ATOM     12  N   UNL     1       4.624   4.407  16.412  0.00  0.00    +0.000 N 
ATOM     13  C   UNL     1       5.215   3.443  15.511  0.00  0.00    +0.000 C 
ENDROOT
BRANCH   1  14
ATOM     14  O   UNL     1       6.610   3.304  13.523  0.00  0.00    +0.000 OA
ATOM     15  H   UNL     1       6.764   3.758  12.675  0.00  0.00    +0.000 HD
ENDBRANCH   1  14
TORSDOF 1
ENDMDL
