MODEL 1
REMARK VINA RESULT:      -8.1      0.000      0.000
REMARK  Name = 
REMARK  6 active torsions:
REMARK  status: ('A' for Active; 'I' for Inactive)
REMARK    1  A    between atoms: C_1  and  C_2
REMARK    2  A    between atoms: C_5  and  C_6
REMARK    3  A    between atoms: N_11  and  C_12
REMARK    4  A    between atoms: C_12  and  C_13
REMARK    5  A    between atoms: C_13  and  C_14
REMARK    6  A    between atoms: N_16  and  C_17
REMARK                            x       y       z     vdW  Elec       q    Type
REMARK                         _______ _______ _______ _____ _____    ______ ____
ROOT
ATOM      1  C   UNL     1       2.135   8.201  19.474  0.00  0.00    +0.000 C 
ATOM      2  C   UNL     1       2.439   6.898  19.529  0.00  0.00    +0.000 C 
ATOM      3  S   UNL     1       1.875   5.737  20.659  0.00  0.00    +0.000 S 
ATOM      4  C   UNL     1       2.857   4.452  19.967  0.00  0.00    +0.000 C 
ATOM      5  S   UNL     1       2.832   2.906  20.590  0.00  0.00    +0.000 S 
ATOM      6  N   UNL     1       3.594   4.943  18.906  0.00  0.00    +0.000 N 
ATOM      7  C   UNL     1       3.377   6.270  18.568  0.00  0.00    +0.000 C 
ATOM      8  O   UNL     1       3.871   6.863  17.621  0.00  0.00    +0.000 OA
ENDROOT
BRANCH   1  13
ATOM      9  C   UNL     1      -1.449  10.833  23.151  0.00  0.00    +0.000 C 
ATOM     10  C   UNL     1      -0.500  10.183  22.188  0.00  0.00    +0.000 A 
ATOM     11  C   UNL     1      -0.648  10.351  20.807  0.00  0.00    +0.000 A 
ATOM     12  C   UNL     1       0.217   9.708  19.920  0.00  0.00    +0.000 A 
ATOM     13  C   UNL     1       1.242   8.889  20.405  0.00  0.00    +0.000 A 
ATOM     14  C   UNL     1       1.408   8.736  21.784  0.00  0.00    +0.000 A 
ATOM     15  C   UNL     1       0.540   9.379  22.670  0.00  0.00    +0.000 A 
ENDBRANCH   1  13
BRANCH   6  16
ATOM     16  C   UNL     1       4.468   4.137  18.048  0.00  0.00    +0.000 C 
BRANCH  16  17
ATOM     17  C   UNL     1       5.961   4.369  18.308  0.00  0.00    +0.000 C 
BRANCH  17  18
ATOM     18  C   UNL     1       6.713   4.346  16.996  0.00  0.00    +0.000 C 
ATOM     19  O   UNL     1       7.933   4.227  16.965  0.00  0.00    +0.000 OA
ATOM     20  N   UNL     1       5.883   4.492  15.893  0.00  0.00    +0.000 N 
ATOM     21  H   UNL     1       4.924   4.768  16.062  0.00  0.00    +0.000 HD
BRANCH  20  22
ATOM     22  C   UNL     1       6.323   4.494  14.549  0.00  0.00    +0.000 A 
ATOM     23  C   UNL     1       5.810   3.640  13.574  0.00  0.00    +0.000 A 
ATOM     24  C   UNL     1       6.359   3.629  12.295  0.00  0.00    +0.000 A 
ATOM     25  C   UNL     1       7.399   4.497  12.020  0.00  0.00    +0.000 A 
ATOM     26  N   UNL     1       7.886   5.387  12.913  0.00  0.00    +0.000 NA
ATOM     27  C   UNL     1       7.332   5.369  14.151  0.00  0.00    +0.000 A 
ENDBRANCH  20  22
ENDBRANCH  17  18
ENDBRANCH  16  17
ENDBRANCH   6  16
TORSDOF 5
ENDMDL
MODEL 2
REMARK VINA RESULT:      -8.0      1.095      1.560
REMARK  Name = 
REMARK  6 active torsions:
REMARK  status: ('A' for Active; 'I' for Inactive)
REMARK    1  A    between atoms: C_1  and  C_2
REMARK    2  A    between atoms: C_5  and  C_6
REMARK    3  A    between atoms: N_11  and  C_12
REMARK    4  A    between atoms: C_12  and  C_13
REMARK    5  A    between atoms: C_13  and  C_14
REMARK    6  A    between atoms: N_16  and  C_17
REMARK                            x       y       z     vdW  Elec       q    Type
REMARK                         _______ _______ _______ _____ _____    ______ ____
ROOT
ATOM      1  C   UNL     1       2.272   8.430  18.217  0.00  0.00    +0.000 C 
ATOM      2  C   UNL     1       2.561   7.204  18.673  0.00  0.00    +0.000 C 
ATOM      3  S   UNL     1       1.835   6.377  19.988  0.00  0.00    +0.000 S 
ATOM      4  C   UNL     1       2.905   4.990  19.824  0.00  0.00    +0.000 C 
ATOM      5  S   UNL     1       2.786   3.673  20.840  0.00  0.00    +0.000 S 
ATOM      6  N   UNL     1       3.790   5.199  18.784  0.00  0.00    +0.000 N 
ATOM      7  C   UNL     1       3.628   6.373  18.065  0.00  0.00    +0.000 C 
ATOM      8  O   UNL     1       4.256   6.703  17.071  0.00  0.00    +0.000 OA
ENDROOT
BRANCH   1  13
ATOM      9  C   UNL     1      -1.699  11.990  20.421  0.00  0.00    +0.000 C 
ATOM     10  C   UNL     1      -0.682  11.035  19.870  0.00  0.00    +0.000 A 
ATOM     11  C   UNL     1       0.405  10.615  20.644  0.00  0.00    +0.000 A 
ATOM     12  C   UNL     1       1.368   9.758  20.105  0.00  0.00    +0.000 A 
ATOM     13  C   UNL     1       1.253   9.312  18.785  0.00  0.00    +0.000 A 
ATOM     14  C   UNL     1       0.157   9.710  18.014  0.00  0.00    +0.000 A 
ATOM     15  C   UNL     1      -0.804  10.568  18.555  0.00  0.00    +0.000 A 
ENDBRANCH   1  13
BRANCH   6  16
ATOM     16  C   UNL     1       4.778   4.223  18.315  0.00  0.00    +0.000 C 
BRANCH  16  17
ATOM     17  C   UNL     1       6.223   4.731  18.392  0.00  0.00    +0.000 C 
BRANCH  17  18
ATOM     18  C   UNL     1       6.901   4.534  17.054  0.00  0.00    +0.000 C 
ATOM     19  O   UNL     1       8.080   4.205  16.982  0.00  0.00    +0.000 OA
ATOM     20  N   UNL     1       6.060   4.784  15.979  0.00  0.00    +0.000 N 
ATOM     21  H   UNL     1       5.171   5.227  16.172  0.00  0.00    +0.000 HD
BRANCH  20  22
ATOM     22  C   UNL     1       6.434   4.665  14.620  0.00  0.00    +0.000 A 
ATOM     23  C   UNL     1       5.864   3.740  13.747  0.00  0.00    +0.000 A 
ATOM     24  C   UNL     1       6.349   3.611  12.449  0.00  0.00    +0.000 A 
ATOM     25  C   UNL     1       7.385   4.436  12.052  0.00  0.00    +0.000 A 
ATOM     26  N   UNL     1       7.927   5.390  12.842  0.00  0.00    +0.000 NA
ATOM     27  C   UNL     1       7.433   5.486  14.101  0.00  0.00    +0.000 A 
ENDBRANCH  20  22
ENDBRANCH  17  18
ENDBRANCH  16  17
ENDBRANCH   6  16
TORSDOF 5
ENDMDL
MODEL 3
REMARK VINA RESULT:      -7.9      4.747      8.887
REMARK  Name = 
REMARK  6 active torsions:
REMARK  status: ('A' for Active; 'I' for Inactive)
REMARK    1  A    between atoms: C_1  and  C_2
REMARK    2  A    between atoms: C_5  and  C_6
REMARK    3  A    between atoms: N_11  and  C_12
REMARK    4  A    between atoms: C_12  and  C_13
REMARK    5  A    between atoms: C_13  and  C_14
REMARK    6  A    between atoms: N_16  and  C_17
REMARK                            x       y       z     vdW  Elec       q    Type
REMARK                         _______ _______ _______ _____ _____    ______ ____
ROOT
ATOM      1  C   UNL     1       2.320   7.844  18.203  0.00  0.00    +0.000 C 
ATOM      2  C   UNL     1       1.832   8.479  19.277  0.00  0.00    +0.000 C 
ATOM      3  S   UNL     1       1.415   7.801  20.796  0.00  0.00    +0.000 S 
ATOM      4  C   UNL     1       0.837   9.338  21.426  0.00  0.00    +0.000 C 
ATOM      5  S   UNL     1       0.231   9.473  22.973  0.00  0.00    +0.000 S 
ATOM      6  N   UNL     1       0.965  10.320  20.461  0.00  0.00    +0.000 N 
ATOM      7  C   UNL     1       1.557   9.936  19.268  0.00  0.00    +0.000 C 
ATOM      8  O   UNL     1       1.826  10.668  18.328  0.00  0.00    +0.000 OA
ENDROOT
BRANCH   1  13
ATOM      9  C   UNL     1       3.345   2.169  18.027  0.00  0.00    +0.000 C 
ATOM     10  C   UNL     1       3.099   3.648  18.040  0.00  0.00    +0.000 A 
ATOM     11  C   UNL     1       4.118   4.545  18.378  0.00  0.00    +0.000 A 
ATOM     12  C   UNL     1       3.865   5.918  18.425  0.00  0.00    +0.000 A 
ATOM     13  C   UNL     1       2.589   6.408  18.135  0.00  0.00    +0.000 A 
ATOM     14  C   UNL     1       1.572   5.519  17.774  0.00  0.00    +0.000 A 
ATOM     15  C   UNL     1       1.828   4.146  17.728  0.00  0.00    +0.000 A 
ENDBRANCH   1  13
BRANCH   6  16
ATOM     16  C   UNL     1       0.649  11.737  20.661  0.00  0.00    +0.000 C 
BRANCH  16  17
ATOM     17  C   UNL     1      -0.852  12.043  20.600  0.00  0.00    +0.000 C 
BRANCH  17  18
ATOM     18  C   UNL     1      -1.310  12.049  19.158  0.00  0.00    +0.000 C 
ATOM     19  O   UNL     1      -0.959  12.933  18.384  0.00  0.00    +0.000 OA
ATOM     20  N   UNL     1      -2.151  10.989  18.853  0.00  0.00    +0.000 N 
ATOM     21  H   UNL     1      -2.511  10.439  19.623  0.00  0.00    +0.000 HD
BRANCH  20  22
ATOM     22  C   UNL     1      -2.713  10.748  17.577  0.00  0.00    +0.000 A 
ATOM     23  C   UNL     1      -2.134   9.903  16.632  0.00  0.00    +0.000 A 
ATOM     24  C   UNL     1      -2.690   9.790  15.361  0.00  0.00    +0.000 A 
ATOM     25  C   UNL     1      -3.832  10.515  15.078  0.00  0.00    +0.000 A 
ATOM     26  N   UNL     1      -4.464  11.298  15.981  0.00  0.00    +0.000 NA
ATOM     27  C   UNL     1      -3.895  11.388  17.209  0.00  0.00    +0.000 A 
ENDBRANCH  20  22
ENDBRANCH  17  18
ENDBRANCH  16  17
ENDBRANCH   6  16
TORSDOF 5
ENDMDL
MODEL 4
REMARK VINA RESULT:      -7.7      1.308      1.624
REMARK  Name = 
REMARK  6 active torsions:
REMARK  status: ('A' for Active; 'I' for Inactive)
REMARK    1  A    between atoms: C_1  and  C_2
REMARK    2  A    between atoms: C_5  and  C_6
REMARK    3  A    between atoms: N_11  and  C_12
REMARK    4  A    between atoms: C_12  and  C_13
REMARK    5  A    between atoms: C_13  and  C_14
REMARK    6  A    between atoms: N_16  and  C_17
REMARK                            x       y       z     vdW  Elec       q    Type
REMARK                         _______ _______ _______ _____ _____    ______ ____
ROOT
ATOM      1  C   UNL     1       2.165   8.581  18.113  0.00  0.00    +0.000 C 
ATOM      2  C   UNL     1       2.505   7.380  18.599  0.00  0.00    +0.000 C 
ATOM      3  S   UNL     1       1.910   6.616  20.014  0.00  0.00    +0.000 S 
ATOM      4  C   UNL     1       2.973   5.227  19.821  0.00  0.00    +0.000 C 
ATOM      5  S   UNL     1       2.959   3.962  20.907  0.00  0.00    +0.000 S 
ATOM      6  N   UNL     1       3.757   5.389  18.695  0.00  0.00    +0.000 N 
ATOM      7  C   UNL     1       3.519   6.525  17.937  0.00  0.00    +0.000 C 
ATOM      8  O   UNL     1       4.052   6.808  16.875  0.00  0.00    +0.000 OA
ENDROOT
BRANCH   1  13
ATOM      9  C   UNL     1      -1.704  12.071  20.592  0.00  0.00    +0.000 C 
ATOM     10  C   UNL     1      -0.688  11.193  19.923  0.00  0.00    +0.000 A 
ATOM     11  C   UNL     1      -0.928  10.650  18.656  0.00  0.00    +0.000 A 
ATOM     12  C   UNL     1       0.007   9.801  18.061  0.00  0.00    +0.000 A 
ATOM     13  C   UNL     1       1.195   9.485  18.728  0.00  0.00    +0.000 A 
ATOM     14  C   UNL     1       1.450  10.042  19.985  0.00  0.00    +0.000 A 
ATOM     15  C   UNL     1       0.512  10.891  20.578  0.00  0.00    +0.000 A 
ENDBRANCH   1  13
BRANCH   6  16
ATOM     16  C   UNL     1       4.707   4.395  18.186  0.00  0.00    +0.000 C 
BRANCH  16  17
ATOM     17  C   UNL     1       6.173   4.817  18.337  0.00  0.00    +0.000 C 
BRANCH  17  18
ATOM     18  C   UNL     1       6.909   4.564  17.040  0.00  0.00    +0.000 C 
ATOM     19  O   UNL     1       8.088   4.225  17.035  0.00  0.00    +0.000 OA
ATOM     20  N   UNL     1       6.121   4.777  15.919  0.00  0.00    +0.000 N 
ATOM     21  H   UNL     1       5.227   5.233  16.054  0.00  0.00    +0.000 HD
BRANCH  20  22
ATOM     22  C   UNL     1       6.555   4.603  14.584  0.00  0.00    +0.000 A 
ATOM     23  C   UNL     1       7.529   5.400  13.985  0.00  0.00    +0.000 A 
ATOM     24  C   UNL     1       7.836   5.236  12.638  0.00  0.00    +0.000 A 
ATOM     25  C   UNL     1       7.170   4.254  11.928  0.00  0.00    +0.000 A 
ATOM     26  N   UNL     1       6.265   3.416  12.481  0.00  0.00    +0.000 NA
ATOM     27  C   UNL     1       5.986   3.605  13.795  0.00  0.00    +0.000 A 
ENDBRANCH  20  22
ENDBRANCH  17  18
ENDBRANCH  16  17
ENDBRANCH   6  16
TORSDOF 5
ENDMDL
MODEL 5
REMARK VINA RESULT:      -7.6      4.535     10.416
REMARK  Name = 
REMARK  6 active torsions:
REMARK  status: ('A' for Active; 'I' for Inactive)
REMARK    1  A    between atoms: C_1  and  C_2
REMARK    2  A    between atoms: C_5  and  C_6
REMARK    3  A    between atoms: N_11  and  C_12
REMARK    4  A    between atoms: C_12  and  C_13
REMARK    5  A    between atoms: C_13  and  C_14
REMARK    6  A    between atoms: N_16  and  C_17
REMARK                            x       y       z     vdW  Elec       q    Type
REMARK                         _______ _______ _______ _____ _____    ______ ____
ROOT
ATOM      1  C   UNL     1       2.506   7.138  17.907  0.00  0.00    +0.000 C 
ATOM      2  C   UNL     1       2.001   7.936  18.856  0.00  0.00    +0.000 C 
ATOM      3  S   UNL     1       1.564   7.512  20.459  0.00  0.00    +0.000 S 
ATOM      4  C   UNL     1       0.973   9.129  20.823  0.00  0.00    +0.000 C 
ATOM      5  S   UNL     1       0.345   9.510  22.319  0.00  0.00    +0.000 S 
ATOM      6  N   UNL     1       1.113   9.941  19.713  0.00  0.00    +0.000 N 
ATOM      7  C   UNL     1       1.723   9.371  18.607  0.00  0.00    +0.000 C 
ATOM      8  O   UNL     1       2.004   9.942  17.564  0.00  0.00    +0.000 OA
ENDROOT
BRANCH   1  13
ATOM      9  C   UNL     1       3.619   1.505  18.481  0.00  0.00    +0.000 C 
ATOM     10  C   UNL     1       3.309   2.968  18.365  0.00  0.00    +0.000 A 
ATOM     11  C   UNL     1       2.043   3.406  17.959  0.00  0.00    +0.000 A 
ATOM     12  C   UNL     1       1.779   4.769  17.816  0.00  0.00    +0.000 A 
ATOM     13  C   UNL     1       2.779   5.711  18.076  0.00  0.00    +0.000 A 
ATOM     14  C   UNL     1       4.038   5.281  18.504  0.00  0.00    +0.000 A 
ATOM     15  C   UNL     1       4.300   3.916  18.646  0.00  0.00    +0.000 A 
ENDBRANCH   1  13
BRANCH   6  16
ATOM     16  C   UNL     1       0.791  11.371  19.676  0.00  0.00    +0.000 C 
BRANCH  16  17
ATOM     17  C   UNL     1      -0.415  11.702  18.790  0.00  0.00    +0.000 C 
BRANCH  17  18
ATOM     18  C   UNL     1      -1.613  12.010  19.660  0.00  0.00    +0.000 C 
ATOM     19  O   UNL     1      -2.757  11.836  19.252  0.00  0.00    +0.000 OA
ATOM     20  N   UNL     1      -1.264  12.509  20.907  0.00  0.00    +0.000 N 
ATOM     21  H   UNL     1      -0.299  12.779  21.050  0.00  0.00    +0.000 HD
BRANCH  20  22
ATOM     22  C   UNL     1      -2.185  12.867  21.918  0.00  0.00    +0.000 A 
ATOM     23  C   UNL     1      -2.500  12.040  22.996  0.00  0.00    +0.000 A 
ATOM     24  C   UNL     1      -3.488  12.416  23.900  0.00  0.00    +0.000 A 
ATOM     25  C   UNL     1      -4.124  13.628  23.711  0.00  0.00    +0.000 A 
ATOM     26  N   UNL     1      -3.810  14.490  22.719  0.00  0.00    +0.000 NA
ATOM     27  C   UNL     1      -2.844  14.093  21.853  0.00  0.00    +0.000 A 
ENDBRANCH  20  22
ENDBRANCH  17  18
ENDBRANCH  16  17
ENDBRANCH   6  16
TORSDOF 5
ENDMDL
MODEL 6
REMARK VINA RESULT:      -7.6      5.334      9.618
REMARK  Name = 
REMARK  6 active torsions:
REMARK  status: ('A' for Active; 'I' for Inactive)
REMARK    1  A    between atoms: C_1  and  C_2
REMARK    2  A    between atoms: C_5  and  C_6
REMARK    3  A    between atoms: N_11  and  C_12
REMARK    4  A    between atoms: C_12  and  C_13
REMARK    5  A    between atoms: C_13  and  C_14
REMARK    6  A    between atoms: N_16  and  C_17
REMARK                            x       y       z     vdW  Elec       q    Type
REMARK                         _______ _______ _______ _____ _____    ______ ____
ROOT
ATOM      1  C   UNL     1       2.492   7.310  18.080  0.00  0.00    +0.000 C 
ATOM      2  C   UNL     1       1.923   8.130  18.973  0.00  0.00    +0.000 C 
ATOM      3  S   UNL     1       1.474   7.772  20.588  0.00  0.00    +0.000 S 
ATOM      4  C   UNL     1       0.789   9.371  20.849  0.00  0.00    +0.000 C 
ATOM      5  S   UNL     1       0.108   9.798  22.310  0.00  0.00    +0.000 S 
ATOM      6  N   UNL     1       0.910  10.128  19.699  0.00  0.00    +0.000 N 
ATOM      7  C   UNL     1       1.574   9.532  18.638  0.00  0.00    +0.000 C 
ATOM      8  O   UNL     1       1.847  10.059  17.571  0.00  0.00    +0.000 OA
ENDROOT
BRANCH   1  13
ATOM      9  C   UNL     1       3.905   1.791  18.996  0.00  0.00    +0.000 C 
ATOM     10  C   UNL     1       3.511   3.223  18.786  0.00  0.00    +0.000 A 
ATOM     11  C   UNL     1       2.304   3.554  18.161  0.00  0.00    +0.000 A 
ATOM     12  C   UNL     1       1.968   4.891  17.936  0.00  0.00    +0.000 A 
ATOM     13  C   UNL     1       2.836   5.912  18.334  0.00  0.00    +0.000 A 
ATOM     14  C   UNL     1       4.033   5.588  18.979  0.00  0.00    +0.000 A 
ATOM     15  C   UNL     1       4.368   4.250  19.203  0.00  0.00    +0.000 A 
ENDBRANCH   1  13
BRANCH   6  16
ATOM     16  C   UNL     1       0.513  11.533  19.575  0.00  0.00    +0.000 C 
BRANCH  16  17
ATOM     17  C   UNL     1       1.630  12.518  19.941  0.00  0.00    +0.000 C 
BRANCH  17  18
ATOM     18  C   UNL     1       1.652  13.653  18.941  0.00  0.00    +0.000 C 
ATOM     19  O   UNL     1       2.112  13.498  17.814  0.00  0.00    +0.000 OA
ATOM     20  N   UNL     1       1.128  14.833  19.449  0.00  0.00    +0.000 N 
ATOM     21  H   UNL     1       0.956  14.879  20.445  0.00  0.00    +0.000 HD
BRANCH  20  22
ATOM     22  C   UNL     1       1.018  16.043  18.724  0.00  0.00    +0.000 A 
ATOM     23  C   UNL     1      -0.202  16.593  18.332  0.00  0.00    +0.000 A 
ATOM     24  C   UNL     1      -0.231  17.733  17.536  0.00  0.00    +0.000 A 
ATOM     25  C   UNL     1       0.971  18.310  17.172  0.00  0.00    +0.000 A 
ATOM     26  N   UNL     1       2.175  17.850  17.579  0.00  0.00    +0.000 NA
ATOM     27  C   UNL     1       2.169  16.735  18.351  0.00  0.00    +0.000 A 
ENDBRANCH  20  22
ENDBRANCH  17  18
ENDBRANCH  16  17
ENDBRANCH   6  16
TORSDOF 5
ENDMDL
MODEL 7
REMARK VINA RESULT:      -7.6      1.583      2.106
REMARK  Name = 
REMARK  6 active torsions:
REMARK  status: ('A' for Active; 'I' for Inactive)
REMARK    1  A    between atoms: C_1  and  C_2
REMARK    2  A    between atoms: C_5  and  C_6
REMARK    3  A    between atoms: N_11  and  C_12
REMARK    4  A    between atoms: C_12  and  C_13
REMARK    5  A    between atoms: C_13  and  C_14
REMARK    6  A    between atoms: N_16  and  C_17
REMARK                            x       y       z     vdW  Elec       q    Type
REMARK                         _______ _______ _______ _____ _____    ______ ____
ROOT
ATOM      1  C   UNL     1       2.442   7.866  19.399  0.00  0.00    +0.000 C 
ATOM      2  C   UNL     1       2.398   6.579  19.767  0.00  0.00    +0.000 C 
ATOM      3  S   UNL     1       1.173   5.789  20.670  0.00  0.00    +0.000 S 
ATOM      4  C   UNL     1       2.042   4.259  20.683  0.00  0.00    +0.000 C 
ATOM      5  S   UNL     1       1.418   2.909  21.437  0.00  0.00    +0.000 S 
ATOM      6  N   UNL     1       3.242   4.395  20.012  0.00  0.00    +0.000 N 
ATOM      7  C   UNL     1       3.486   5.630  19.431  0.00  0.00    +0.000 C 
ATOM      8  O   UNL     1       4.447   5.923  18.736  0.00  0.00    +0.000 OA
ENDROOT
BRANCH   1  13
ATOM      9  C   UNL     1      -1.522  11.862  20.668  0.00  0.00    +0.000 C 
ATOM     10  C   UNL     1      -0.518  10.795  20.345  0.00  0.00    +0.000 A 
ATOM     11  C   UNL     1       0.072  10.032  21.358  0.00  0.00    +0.000 A 
ATOM     12  C   UNL     1       1.036   9.070  21.048  0.00  0.00    +0.000 A 
ATOM     13  C   UNL     1       1.419   8.860  19.720  0.00  0.00    +0.000 A 
ATOM     14  C   UNL     1       0.817   9.604  18.702  0.00  0.00    +0.000 A 
ATOM     15  C   UNL     1      -0.147  10.567  19.015  0.00  0.00    +0.000 A 
ENDBRANCH   1  13
BRANCH   6  16
ATOM     16  C   UNL     1       4.191   3.306  19.763  0.00  0.00    +0.000 C 
BRANCH  16  17
ATOM     17  C   UNL     1       3.808   2.421  18.571  0.00  0.00    +0.000 C 
BRANCH  17  18
ATOM     18  C   UNL     1       4.112   3.151  17.281  0.00  0.00    +0.000 C 
ATOM     19  O   UNL     1       3.212   3.534  16.541  0.00  0.00    +0.000 OA
ATOM     20  N   UNL     1       5.471   3.300  17.050  0.00  0.00    +0.000 N 
ATOM     21  H   UNL     1       6.107   2.777  17.639  0.00  0.00    +0.000 HD
BRANCH  20  22
ATOM     22  C   UNL     1       6.031   3.952  15.927  0.00  0.00    +0.000 A 
ATOM     23  C   UNL     1       5.776   3.568  14.611  0.00  0.00    +0.000 A 
ATOM     24  C   UNL     1       6.438   4.192  13.559  0.00  0.00    +0.000 A 
ATOM     25  C   UNL     1       7.328   5.208  13.855  0.00  0.00    +0.000 A 
ATOM     26  N   UNL     1       7.560   5.657  15.108  0.00  0.00    +0.000 NA
ATOM     27  C   UNL     1       6.901   5.025  16.111  0.00  0.00    +0.000 A 
ENDBRANCH  20  22
ENDBRANCH  17  18
ENDBRANCH  16  17
ENDBRANCH   6  16
TORSDOF 5
ENDMDL
MODEL 8
REMARK VINA RESULT:      -7.6      4.683      8.863
REMARK  Name = 
REMARK  6 active torsions:
REMARK  status: ('A' for Active; 'I' for Inactive)
REMARK    1  A    between atoms: C_1  and  C_2
REMARK    2  A    between atoms: C_5  and  C_6
REMARK    3  A    between atoms: N_11  and  C_12
REMARK    4  A    between atoms: C_12  and  C_13
REMARK    5  A    between atoms: C_13  and  C_14
REMARK    6  A    between atoms: N_16  and  C_17
REMARK                            x       y       z     vdW  Elec       q    Type
REMARK                         _______ _______ _______ _____ _____    ______ ____
ROOT
ATOM      1  C   UNL     1       2.302   7.763  18.180  0.00  0.00    +0.000 C 
ATOM      2  C   UNL     1       1.825   8.405  19.254  0.00  0.00    +0.000 C 
ATOM      3  S   UNL     1       1.418   7.738  20.780  0.00  0.00    +0.000 S 
ATOM      4  C   UNL     1       0.853   9.282  21.407  0.00  0.00    +0.000 C 
ATOM      5  S   UNL     1       0.261   9.428  22.958  0.00  0.00    +0.000 S 
ATOM      6  N   UNL     1       0.979  10.257  20.436  0.00  0.00    +0.000 N 
ATOM      7  C   UNL     1       1.558   9.864  19.240  0.00  0.00    +0.000 C 
ATOM      8  O   UNL     1       1.823  10.589  18.293  0.00  0.00    +0.000 OA
ENDROOT
BRANCH   1  13
ATOM      9  C   UNL     1       3.350   2.099  17.831  0.00  0.00    +0.000 C 
ATOM     10  C   UNL     1       3.061   3.566  17.958  0.00  0.00    +0.000 A 
ATOM     11  C   UNL     1       1.758   4.057  17.833  0.00  0.00    +0.000 A 
ATOM     12  C   UNL     1       1.508   5.429  17.912  0.00  0.00    +0.000 A 
ATOM     13  C   UNL     1       2.562   6.325  18.117  0.00  0.00    +0.000 A 
ATOM     14  C   UNL     1       3.864   5.838  18.265  0.00  0.00    +0.000 A 
ATOM     15  C   UNL     1       4.111   4.465  18.184  0.00  0.00    +0.000 A 
ENDBRANCH   1  13
BRANCH   6  16
ATOM     16  C   UNL     1       0.672  11.677  20.631  0.00  0.00    +0.000 C 
BRANCH  16  17
ATOM     17  C   UNL     1      -0.831  11.978  20.674  0.00  0.00    +0.000 C 
BRANCH  17  18
ATOM     18  C   UNL     1      -1.363  12.104  19.264  0.00  0.00    +0.000 C 
ATOM     19  O   UNL     1      -1.186  13.125  18.607  0.00  0.00    +0.000 OA
ATOM     20  N   UNL     1      -2.058  10.979  18.844  0.00  0.00    +0.000 N 
ATOM     21  H   UNL     1      -2.292  10.285  19.542  0.00  0.00    +0.000 HD
BRANCH  20  22
ATOM     22  C   UNL     1      -2.648  10.827  17.568  0.00  0.00    +0.000 A 
ATOM     23  C   UNL     1      -3.812  11.488  17.178  0.00  0.00    +0.000 A 
ATOM     24  C   UNL     1      -4.392  11.215  15.943  0.00  0.00    +0.000 A 
ATOM     25  C   UNL     1      -3.772  10.297  15.117  0.00  0.00    +0.000 A 
ATOM     26  N   UNL     1      -2.610   9.678  15.424  0.00  0.00    +0.000 NA
ATOM     27  C   UNL     1      -2.074   9.964  16.636  0.00  0.00    +0.000 A 
ENDBRANCH  20  22
ENDBRANCH  17  18
ENDBRANCH  16  17
ENDBRANCH   6  16
TORSDOF 5
ENDMDL
MODEL 9
REMARK VINA RESULT:      -7.5      4.560     10.403
REMARK  Name = 
REMARK  6 active torsions:
REMARK  status: ('A' for Active; 'I' for Inactive)
REMARK    1  A    between atoms: C_1  and  C_2
REMARK    2  A    between atoms: C_5  and  C_6
REMARK    3  A    between atoms: N_11  and  C_12
REMARK    4  A    between atoms: C_12  and  C_13
REMARK    5  A    between atoms: C_13  and  C_14
REMARK    6  A    between atoms: N_16  and  C_17
REMARK                            x       y       z     vdW  Elec       q    Type
REMARK                         _______ _______ _______ _____ _____    ______ ____
ROOT
ATOM      1  C   UNL     1       2.589   7.244  17.965  0.00  0.00    +0.000 C 
ATOM      2  C   UNL     1       2.027   8.014  18.906  0.00  0.00    +0.000 C 
ATOM      3  S   UNL     1       1.508   7.546  20.471  0.00  0.00    +0.000 S 
ATOM      4  C   UNL     1       0.887   9.148  20.845  0.00  0.00    +0.000 C 
ATOM      5  S   UNL     1       0.176   9.486  22.315  0.00  0.00    +0.000 S 
ATOM      6  N   UNL     1       1.080   9.991  19.766  0.00  0.00    +0.000 N 
ATOM      7  C   UNL     1       1.753   9.453  18.680  0.00  0.00    +0.000 C 
ATOM      8  O   UNL     1       2.085  10.053  17.669  0.00  0.00    +0.000 OA
ENDROOT
BRANCH   1  13
ATOM      9  C   UNL     1       3.626   1.608  18.636  0.00  0.00    +0.000 C 
ATOM     10  C   UNL     1       3.379   3.073  18.429  0.00  0.00    +0.000 A 
ATOM     11  C   UNL     1       4.368   4.018  18.722  0.00  0.00    +0.000 A 
ATOM     12  C   UNL     1       4.112   5.382  18.564  0.00  0.00    +0.000 A 
ATOM     13  C   UNL     1       2.862   5.815  18.111  0.00  0.00    +0.000 A 
ATOM     14  C   UNL     1       1.878   4.874  17.796  0.00  0.00    +0.000 A 
ATOM     15  C   UNL     1       2.136   3.510  17.956  0.00  0.00    +0.000 A 
ENDBRANCH   1  13
BRANCH   6  16
ATOM     16  C   UNL     1       0.751  11.419  19.749  0.00  0.00    +0.000 C 
BRANCH  16  17
ATOM     17  C   UNL     1      -0.371  11.775  18.766  0.00  0.00    +0.000 C 
BRANCH  17  18
ATOM     18  C   UNL     1      -1.687  11.859  19.509  0.00  0.00    +0.000 C 
ATOM     19  O   UNL     1      -2.735  11.493  18.987  0.00  0.00    +0.000 OA
ATOM     20  N   UNL     1      -1.557  12.396  20.781  0.00  0.00    +0.000 N 
ATOM     21  H   UNL     1      -0.674  12.829  21.020  0.00  0.00    +0.000 HD
BRANCH  20  22
ATOM     22  C   UNL     1      -2.625  12.577  21.692  0.00  0.00    +0.000 A 
ATOM     23  C   UNL     1      -3.731  13.382  21.426  0.00  0.00    +0.000 A 
ATOM     24  C   UNL     1      -4.695  13.592  22.406  0.00  0.00    +0.000 A 
ATOM     25  C   UNL     1      -4.535  12.966  23.628  0.00  0.00    +0.000 A 
ATOM     26  N   UNL     1      -3.514  12.127  23.911  0.00  0.00    +0.000 NA
ATOM     27  C   UNL     1      -2.589  11.947  22.934  0.00  0.00    +0.000 A 
ENDBRANCH  20  22
ENDBRANCH  17  18
ENDBRANCH  16  17
ENDBRANCH   6  16
TORSDOF 5
ENDMDL
