MODEL 1
REMARK VINA RESULT:      -7.2      0.000      0.000
REMARK  Name = 
REMARK  3 active torsions:
REMARK  status: ('A' for Active; 'I' for Inactive)
REMARK    1  A    between atoms: C_1  and  N_2
REMARK    2  A    between atoms: C_4  and  C_5
REMARK    3  A    between atoms: N_7  and  C_8
REMARK                            x       y       z     vdW  Elec       q    Type
REMARK                         _______ _______ _______ _____ _____    ______ ____
ROOT
ATOM      1  C   UNL     1       5.561   5.425  17.881  0.00  0.00    +0.000 C 
ATOM      2  C   UNL     1       5.960   4.335  18.894  0.00  0.00    +0.000 C 
ATOM      3  C   UNL     1       4.756   3.561  19.422  0.00  0.00    +0.000 C 
ATOM      4  C   UNL     1       3.778   4.504  20.118  0.00  0.00    +0.000 C 
ATOM      5  C   UNL     1       3.425   5.695  19.267  0.00  0.00    +0.000 A 
ATOM      6  C   UNL     1       2.266   6.428  19.566  0.00  0.00    +0.000 A 
ATOM      7  F   UNL     1       1.476   6.038  20.576  0.00  0.00    +0.000 F 
ATOM      8  C   UNL     1       1.913   7.560  18.843  0.00  0.00    +0.000 A 
ATOM      9  C   UNL     1       2.737   7.975  17.810  0.00  0.00    +0.000 A 
ATOM     10  F   UNL     1       2.413   9.067  17.105  0.00  0.00    +0.000 F 
ATOM     11  C   UNL     1       3.903   7.284  17.500  0.00  0.00    +0.000 A 
ATOM     12  C   UNL     1       4.267   6.136  18.229  0.00  0.00    +0.000 A 
ENDROOT
BRANCH   1  15
ATOM     13  C   UNL     1       6.538   5.132  15.643  0.00  0.00    +0.000 C 
ATOM     14  O   UNL     1       7.535   5.772  15.960  0.00  0.00    +0.000 OA
ATOM     15  N   UNL     1       5.502   4.899  16.524  0.00  0.00    +0.000 N 
ATOM     16  H   UNL     1       4.692   4.372  16.231  0.00  0.00    +0.000 HD
BRANCH  13  20
ATOM     17  C   UNL     1       5.171   2.673  11.494  0.00  0.00    +0.000 C 
ATOM     18  N   UNL     1       5.805   3.544  12.457  0.00  0.00    +0.000 N 
ATOM     19  C   UNL     1       5.397   3.813  13.735  0.00  0.00    +0.000 A 
ATOM     20  C   UNL     1       6.389   4.594  14.302  0.00  0.00    +0.000 A 
ATOM     21  C   UNL     1       7.316   4.771  13.247  0.00  0.00    +0.000 A 
ATOM     22  N   UNL     1       6.961   4.141  12.127  0.00  0.00    +0.000 NA
ENDBRANCH  13  20
ENDBRANCH   1  15
TORSDOF 2
ENDMDL
MODEL 2
REMARK VINA RESULT:      -7.1      1.746      2.306
REMARK  Name = 
REMARK  3 active torsions:
REMARK  status: ('A' for Active; 'I' for Inactive)
REMARK    1  A    between atoms: C_1  and  N_2
REMARK    2  A    between atoms: C_4  and  C_5
REMARK    3  A    between atoms: N_7  and  C_8
REMARK                            x       y       z     vdW  Elec       q    Type
REMARK                         _______ _______ _______ _____ _____    ______ ____
ROOT
ATOM      1  C   UNL     1       4.713   3.467  19.074  0.00  0.00    +0.000 C 
ATOM      2  C   UNL     1       4.543   1.970  19.396  0.00  0.00    +0.000 C 
ATOM      3  C   UNL     1       3.126   1.472  19.128  0.00  0.00    +0.000 C 
ATOM      4  C   UNL     1       2.121   2.245  19.976  0.00  0.00    +0.000 C 
ATOM      5  C   UNL     1       2.289   3.737  19.851  0.00  0.00    +0.000 A 
ATOM      6  C   UNL     1       1.228   4.577  20.223  0.00  0.00    +0.000 A 
ATOM      7  F   UNL     1       0.075   4.042  20.648  0.00  0.00    +0.000 F 
ATOM      8  C   UNL     1       1.341   5.960  20.169  0.00  0.00    +0.000 A 
ATOM      9  C   UNL     1       2.538   6.515  19.747  0.00  0.00    +0.000 A 
ATOM     10  F   UNL     1       2.665   7.848  19.693  0.00  0.00    +0.000 F 
ATOM     11  C   UNL     1       3.615   5.712  19.390  0.00  0.00    +0.000 A 
ATOM     12  C   UNL     1       3.508   4.309  19.443  0.00  0.00    +0.000 A 
ENDROOT
BRANCH   1  15
ATOM     13  C   UNL     1       6.303   4.204  17.348  0.00  0.00    +0.000 C 
ATOM     14  O   UNL     1       7.135   4.505  18.198  0.00  0.00    +0.000 OA
ATOM     15  N   UNL     1       5.071   3.676  17.678  0.00  0.00    +0.000 N 
ATOM     16  H   UNL     1       4.407   3.444  16.955  0.00  0.00    +0.000 HD
BRANCH  13  20
ATOM     17  C   UNL     1       6.664   3.904  12.357  0.00  0.00    +0.000 C 
ATOM     18  N   UNL     1       6.734   4.314  13.741  0.00  0.00    +0.000 N 
ATOM     19  C   UNL     1       6.091   3.754  14.811  0.00  0.00    +0.000 A 
ATOM     20  C   UNL     1       6.571   4.405  15.935  0.00  0.00    +0.000 A 
ATOM     21  C   UNL     1       7.458   5.373  15.405  0.00  0.00    +0.000 A 
ATOM     22  N   UNL     1       7.553   5.323  14.076  0.00  0.00    +0.000 NA
ENDBRANCH  13  20
ENDBRANCH   1  15
TORSDOF 2
ENDMDL
MODEL 3
REMARK VINA RESULT:      -6.8      5.097      7.776
REMARK  Name = 
REMARK  3 active torsions:
REMARK  status: ('A' for Active; 'I' for Inactive)
REMARK    1  A    between atoms: C_1  and  N_2
REMARK    2  A    between atoms: C_4  and  C_5
REMARK    3  A    between atoms: N_7  and  C_8
REMARK                            x       y       z     vdW  Elec       q    Type
REMARK                         _______ _______ _______ _____ _____    ______ ____
ROOT
ATOM      1  C   UNL     1       0.226  10.988  18.703  0.00  0.00    +0.000 C 
ATOM      2  C   UNL     1       0.474  12.049  19.792  0.00  0.00    +0.000 C 
ATOM      3  C   UNL     1      -0.649  12.098  20.825  0.00  0.00    +0.000 C 
ATOM      4  C   UNL     1      -1.978  12.427  20.152  0.00  0.00    +0.000 C 
ATOM      5  C   UNL     1      -2.260  11.537  18.970  0.00  0.00    +0.000 A 
ATOM      6  C   UNL     1      -3.577  11.425  18.498  0.00  0.00    +0.000 A 
ATOM      7  F   UNL     1      -4.564  12.080  19.124  0.00  0.00    +0.000 F 
ATOM      8  C   UNL     1      -3.890  10.653  17.387  0.00  0.00    +0.000 A 
ATOM      9  C   UNL     1      -2.869   9.989  16.728  0.00  0.00    +0.000 A 
ATOM     10  F   UNL     1      -3.153   9.243  15.652  0.00  0.00    +0.000 F 
ATOM     11  C   UNL     1      -1.550  10.094  17.156  0.00  0.00    +0.000 A 
ATOM     12  C   UNL     1      -1.226  10.875  18.282  0.00  0.00    +0.000 A 
ENDROOT
BRANCH   1  15
ATOM     13  C   UNL     1       1.741   9.081  18.358  0.00  0.00    +0.000 C 
ATOM     14  O   UNL     1       2.228   9.608  17.363  0.00  0.00    +0.000 OA
ATOM     15  N   UNL     1       0.744   9.686  19.097  0.00  0.00    +0.000 N 
ATOM     16  H   UNL     1       0.361   9.223  19.908  0.00  0.00    +0.000 HD
BRANCH  13  20
ATOM     17  C   UNL     1       3.511   4.411  18.784  0.00  0.00    +0.000 C 
ATOM     18  N   UNL     1       2.969   5.728  19.031  0.00  0.00    +0.000 N 
ATOM     19  C   UNL     1       2.893   6.776  18.155  0.00  0.00    +0.000 A 
ATOM     20  C   UNL     1       2.183   7.772  18.804  0.00  0.00    +0.000 A 
ATOM     21  C   UNL     1       1.934   7.222  20.084  0.00  0.00    +0.000 A 
ATOM     22  N   UNL     1       2.415   5.986  20.225  0.00  0.00    +0.000 NA
ENDBRANCH  13  20
ENDBRANCH   1  15
TORSDOF 2
ENDMDL
MODEL 4
REMARK VINA RESULT:      -6.7      4.285      7.129
REMARK  Name = 
REMARK  3 active torsions:
REMARK  status: ('A' for Active; 'I' for Inactive)
REMARK    1  A    between atoms: C_1  and  N_2
REMARK    2  A    between atoms: C_4  and  C_5
REMARK    3  A    between atoms: N_7  and  C_8
REMARK                            x       y       z     vdW  Elec       q    Type
REMARK                         _______ _______ _______ _____ _____    ______ ____
ROOT
ATOM      1  C   UNL     1       3.173   6.060  17.765  0.00  0.00    +0.000 C 
ATOM      2  C   UNL     1       2.629   4.618  17.757  0.00  0.00    +0.000 C 
ATOM      3  C   UNL     1       3.472   3.673  18.608  0.00  0.00    +0.000 C 
ATOM      4  C   UNL     1       4.907   3.628  18.092  0.00  0.00    +0.000 C 
ATOM      5  C   UNL     1       5.499   5.002  17.920  0.00  0.00    +0.000 A 
ATOM      6  C   UNL     1       6.894   5.141  17.850  0.00  0.00    +0.000 A 
ATOM      7  F   UNL     1       7.675   4.059  17.973  0.00  0.00    +0.000 F 
ATOM      8  C   UNL     1       7.495   6.377  17.650  0.00  0.00    +0.000 A 
ATOM      9  C   UNL     1       6.688   7.494  17.505  0.00  0.00    +0.000 A 
ATOM     10  F   UNL     1       7.251   8.694  17.308  0.00  0.00    +0.000 F 
ATOM     11  C   UNL     1       5.302   7.389  17.549  0.00  0.00    +0.000 A 
ATOM     12  C   UNL     1       4.687   6.139  17.752  0.00  0.00    +0.000 A 
ENDROOT
BRANCH   1  15
ATOM     13  C   UNL     1       1.986   8.026  18.644  0.00  0.00    +0.000 C 
ATOM     14  O   UNL     1       1.833   8.479  17.514  0.00  0.00    +0.000 OA
ATOM     15  N   UNL     1       2.633   6.830  18.877  0.00  0.00    +0.000 N 
ATOM     16  H   UNL     1       2.747   6.488  19.819  0.00  0.00    +0.000 HD
BRANCH  13  20
ATOM     17  C   UNL     1       0.263   9.454  23.129  0.00  0.00    +0.000 C 
ATOM     18  N   UNL     1       0.760   9.409  21.773  0.00  0.00    +0.000 N 
ATOM     19  C   UNL     1       1.293   8.335  21.115  0.00  0.00    +0.000 A 
ATOM     20  C   UNL     1       1.500   8.744  19.809  0.00  0.00    +0.000 A 
ATOM     21  C   UNL     1       1.101  10.102  19.820  0.00  0.00    +0.000 A 
ATOM     22  N   UNL     1       0.658  10.509  21.010  0.00  0.00    +0.000 NA
ENDBRANCH  13  20
ENDBRANCH   1  15
TORSDOF 2
ENDMDL
MODEL 5
REMARK VINA RESULT:      -6.7      4.797      7.549
REMARK  Name = 
REMARK  3 active torsions:
REMARK  status: ('A' for Active; 'I' for Inactive)
REMARK    1  A    between atoms: C_1  and  N_2
REMARK    2  A    between atoms: C_4  and  C_5
REMARK    3  A    between atoms: N_7  and  C_8
REMARK                            x       y       z     vdW  Elec       q    Type
REMARK                         _______ _______ _______ _____ _____    ______ ____
ROOT
ATOM      1  C   UNL     1       0.685  10.750  18.829  0.00  0.00    +0.000 C 
ATOM      2  C   UNL     1       1.100  11.791  19.886  0.00  0.00    +0.000 C 
ATOM      3  C   UNL     1       0.047  11.969  20.975  0.00  0.00    +0.000 C 
ATOM      4  C   UNL     1      -1.275  12.429  20.367  0.00  0.00    +0.000 C 
ATOM      5  C   UNL     1      -1.713  11.560  19.217  0.00  0.00    +0.000 A 
ATOM      6  C   UNL     1      -3.057  11.583  18.817  0.00  0.00    +0.000 A 
ATOM      7  F   UNL     1      -3.935  12.346  19.483  0.00  0.00    +0.000 F 
ATOM      8  C   UNL     1      -3.509  10.835  17.737  0.00  0.00    +0.000 A 
ATOM      9  C   UNL     1      -2.600  10.060  17.037  0.00  0.00    +0.000 A 
ATOM     10  F   UNL     1      -3.019   9.336  15.990  0.00  0.00    +0.000 F 
ATOM     11  C   UNL     1      -1.257  10.030  17.394  0.00  0.00    +0.000 A 
ATOM     12  C   UNL     1      -0.792  10.785  18.487  0.00  0.00    +0.000 A 
ENDROOT
BRANCH   1  15
ATOM     13  C   UNL     1       1.934   8.673  18.414  0.00  0.00    +0.000 C 
ATOM     14  O   UNL     1       2.387   9.118  17.364  0.00  0.00    +0.000 OA
ATOM     15  N   UNL     1       1.084   9.404  19.217  0.00  0.00    +0.000 N 
ATOM     16  H   UNL     1       0.725   9.008  20.073  0.00  0.00    +0.000 HD
BRANCH  13  20
ATOM     17  C   UNL     1       2.614   4.402  20.948  0.00  0.00    +0.000 C 
ATOM     18  N   UNL     1       2.562   5.434  19.938  0.00  0.00    +0.000 N 
ATOM     19  C   UNL     1       1.917   6.639  20.009  0.00  0.00    +0.000 A 
ATOM     20  C   UNL     1       2.262   7.330  18.861  0.00  0.00    +0.000 A 
ATOM     21  C   UNL     1       3.076   6.413  18.153  0.00  0.00    +0.000 A 
ATOM     22  N   UNL     1       3.253   5.262  18.801  0.00  0.00    +0.000 NA
ENDBRANCH  13  20
ENDBRANCH   1  15
TORSDOF 2
ENDMDL
MODEL 6
REMARK VINA RESULT:      -6.6      4.249      7.104
REMARK  Name = 
REMARK  3 active torsions:
REMARK  status: ('A' for Active; 'I' for Inactive)
REMARK    1  A    between atoms: C_1  and  N_2
REMARK    2  A    between atoms: C_4  and  C_5
REMARK    3  A    between atoms: N_7  and  C_8
REMARK                            x       y       z     vdW  Elec       q    Type
REMARK                         _______ _______ _______ _____ _____    ______ ____
ROOT
ATOM      1  C   UNL     1       3.461   6.216  18.912  0.00  0.00    +0.000 C 
ATOM      2  C   UNL     1       4.717   6.318  18.026  0.00  0.00    +0.000 C 
ATOM      3  C   UNL     1       4.538   5.627  16.678  0.00  0.00    +0.000 C 
ATOM      4  C   UNL     1       4.231   4.145  16.875  0.00  0.00    +0.000 C 
ATOM      5  C   UNL     1       3.101   3.916  17.845  0.00  0.00    +0.000 A 
ATOM      6  C   UNL     1       2.433   2.683  17.836  0.00  0.00    +0.000 A 
ATOM      7  F   UNL     1       2.784   1.744  16.945  0.00  0.00    +0.000 F 
ATOM      8  C   UNL     1       1.412   2.400  18.734  0.00  0.00    +0.000 A 
ATOM      9  C   UNL     1       1.060   3.361  19.666  0.00  0.00    +0.000 A 
ATOM     10  F   UNL     1       0.080   3.103  20.543  0.00  0.00    +0.000 F 
ATOM     11  C   UNL     1       1.715   4.587  19.717  0.00  0.00    +0.000 A 
ATOM     12  C   UNL     1       2.750   4.880  18.808  0.00  0.00    +0.000 A 
ENDROOT
BRANCH   1  15
ATOM     13  C   UNL     1       1.944   7.984  19.701  0.00  0.00    +0.000 C 
ATOM     14  O   UNL     1       2.181   7.708  20.873  0.00  0.00    +0.000 OA
ATOM     15  N   UNL     1       2.532   7.307  18.652  0.00  0.00    +0.000 N 
ATOM     16  H   UNL     1       2.312   7.555  17.699  0.00  0.00    +0.000 HD
BRANCH  13  20
ATOM     17  C   UNL     1      -1.590  11.537  19.610  0.00  0.00    +0.000 C 
ATOM     18  N   UNL     1      -0.523  10.620  19.283  0.00  0.00    +0.000 N 
ATOM     19  C   UNL     1       0.199   9.839  20.144  0.00  0.00    +0.000 A 
ATOM     20  C   UNL     1       1.010   9.042  19.355  0.00  0.00    +0.000 A 
ATOM     21  C   UNL     1       0.722   9.474  18.038  0.00  0.00    +0.000 A 
ATOM     22  N   UNL     1      -0.202  10.434  17.993  0.00  0.00    +0.000 NA
ENDBRANCH  13  20
ENDBRANCH   1  15
TORSDOF 2
ENDMDL
MODEL 7
REMARK VINA RESULT:      -6.6      4.245      7.046
REMARK  Name = 
REMARK  3 active torsions:
REMARK  status: ('A' for Active; 'I' for Inactive)
REMARK    1  A    between atoms: C_1  and  N_2
REMARK    2  A    between atoms: C_4  and  C_5
REMARK    3  A    between atoms: N_7  and  C_8
REMARK                            x       y       z     vdW  Elec       q    Type
REMARK                         _______ _______ _______ _____ _____    ______ ____
ROOT
ATOM      1  C   UNL     1       3.354   6.084  17.579  0.00  0.00    +0.000 C 
ATOM      2  C   UNL     1       2.839   4.632  17.549  0.00  0.00    +0.000 C 
ATOM      3  C   UNL     1       3.640   3.710  18.462  0.00  0.00    +0.000 C 
ATOM      4  C   UNL     1       5.107   3.688  18.043  0.00  0.00    +0.000 C 
ATOM      5  C   UNL     1       5.684   5.072  17.898  0.00  0.00    +0.000 A 
ATOM      6  C   UNL     1       7.077   5.237  17.921  0.00  0.00    +0.000 A 
ATOM      7  F   UNL     1       7.869   4.172  18.106  0.00  0.00    +0.000 F 
ATOM      8  C   UNL     1       7.667   6.483  17.750  0.00  0.00    +0.000 A 
ATOM      9  C   UNL     1       6.851   7.583  17.541  0.00  0.00    +0.000 A 
ATOM     10  F   UNL     1       7.403   8.792  17.370  0.00  0.00    +0.000 F 
ATOM     11  C   UNL     1       5.468   7.452  17.493  0.00  0.00    +0.000 A 
ATOM     12  C   UNL     1       4.864   6.192  17.666  0.00  0.00    +0.000 A 
ENDROOT
BRANCH   1  15
ATOM     13  C   UNL     1       2.150   8.076  18.372  0.00  0.00    +0.000 C 
ATOM     14  O   UNL     1       2.134   8.555  17.243  0.00  0.00    +0.000 OA
ATOM     15  N   UNL     1       2.727   6.852  18.645  0.00  0.00    +0.000 N 
ATOM     16  H   UNL     1       2.728   6.488  19.586  0.00  0.00    +0.000 HD
BRANCH  13  20
ATOM     17  C   UNL     1       0.128  11.419  21.513  0.00  0.00    +0.000 C 
ATOM     18  N   UNL     1       0.665  10.227  20.897  0.00  0.00    +0.000 N 
ATOM     19  C   UNL     1       0.964  10.032  19.577  0.00  0.00    +0.000 A 
ATOM     20  C   UNL     1       1.570   8.790  19.496  0.00  0.00    +0.000 A 
ATOM     21  C   UNL     1       1.528   8.313  20.829  0.00  0.00    +0.000 A 
ATOM     22  N   UNL     1       0.975   9.180  21.678  0.00  0.00    +0.000 NA
ENDBRANCH  13  20
ENDBRANCH   1  15
TORSDOF 2
ENDMDL
MODEL 8
REMARK VINA RESULT:      -6.5      5.307      7.974
REMARK  Name = 
REMARK  3 active torsions:
REMARK  status: ('A' for Active; 'I' for Inactive)
REMARK    1  A    between atoms: C_1  and  N_2
REMARK    2  A    between atoms: C_4  and  C_5
REMARK    3  A    between atoms: N_7  and  C_8
REMARK                            x       y       z     vdW  Elec       q    Type
REMARK                         _______ _______ _______ _____ _____    ______ ____
ROOT
ATOM      1  C   UNL     1      -0.131  11.204  18.534  0.00  0.00    +0.000 C 
ATOM      2  C   UNL     1       0.075  12.151  19.732  0.00  0.00    +0.000 C 
ATOM      3  C   UNL     1      -1.040  12.033  20.766  0.00  0.00    +0.000 C 
ATOM      4  C   UNL     1      -2.389  12.370  20.137  0.00  0.00    +0.000 C 
ATOM      5  C   UNL     1      -2.638  11.601  18.866  0.00  0.00    +0.000 A 
ATOM      6  C   UNL     1      -3.952  11.479  18.389  0.00  0.00    +0.000 A 
ATOM      7  F   UNL     1      -4.964  12.015  19.085  0.00  0.00    +0.000 F 
ATOM      8  C   UNL     1      -4.238  10.818  17.201  0.00  0.00    +0.000 A 
ATOM      9  C   UNL     1      -3.191  10.279  16.470  0.00  0.00    +0.000 A 
ATOM     10  F   UNL     1      -3.449   9.642  15.320  0.00  0.00    +0.000 F 
ATOM     11  C   UNL     1      -1.876  10.400  16.904  0.00  0.00    +0.000 A 
ATOM     12  C   UNL     1      -1.580  11.068  18.107  0.00  0.00    +0.000 A 
ENDROOT
BRANCH   1  15
ATOM     13  C   UNL     1       1.684   9.568  18.255  0.00  0.00    +0.000 C 
ATOM     14  O   UNL     1       2.333  10.357  17.575  0.00  0.00    +0.000 OA
ATOM     15  N   UNL     1       0.451   9.893  18.782  0.00  0.00    +0.000 N 
ATOM     16  H   UNL     1      -0.060   9.219  19.333  0.00  0.00    +0.000 HD
BRANCH  13  20
ATOM     17  C   UNL     1       2.943   5.139  20.236  0.00  0.00    +0.000 C 
ATOM     18  N   UNL     1       2.735   6.270  19.361  0.00  0.00    +0.000 N 
ATOM     19  C   UNL     1       1.959   7.373  19.591  0.00  0.00    +0.000 A 
ATOM     20  C   UNL     1       2.181   8.231  18.528  0.00  0.00    +0.000 A 
ATOM     21  C   UNL     1       3.069   7.508  17.697  0.00  0.00    +0.000 A 
ATOM     22  N   UNL     1       3.401   6.317  18.196  0.00  0.00    +0.000 NA
ENDBRANCH  13  20
ENDBRANCH   1  15
TORSDOF 2
ENDMDL
MODEL 9
REMARK VINA RESULT:      -6.3      4.392      7.272
REMARK  Name = 
REMARK  3 active torsions:
REMARK  status: ('A' for Active; 'I' for Inactive)
REMARK    1  A    between atoms: C_1  and  N_2
REMARK    2  A    between atoms: C_4  and  C_5
REMARK    3  A    between atoms: N_7  and  C_8
REMARK                            x       y       z     vdW  Elec       q    Type
REMARK                         _______ _______ _______ _____ _____    ______ ____
ROOT
ATOM      1  C   UNL     1       3.312   6.597  19.012  0.00  0.00    +0.000 C 
ATOM      2  C   UNL     1       4.535   6.817  18.101  0.00  0.00    +0.000 C 
ATOM      3  C   UNL     1       4.377   6.144  16.741  0.00  0.00    +0.000 C 
ATOM      4  C   UNL     1       4.191   4.639  16.910  0.00  0.00    +0.000 C 
ATOM      5  C   UNL     1       3.106   4.301  17.899  0.00  0.00    +0.000 A 
ATOM      6  C   UNL     1       2.536   3.019  17.875  0.00  0.00    +0.000 A 
ATOM      7  F   UNL     1       2.937   2.131  16.955  0.00  0.00    +0.000 F 
ATOM      8  C   UNL     1       1.562   2.637  18.789  0.00  0.00    +0.000 A 
ATOM      9  C   UNL     1       1.159   3.548  19.752  0.00  0.00    +0.000 A 
ATOM     10  F   UNL     1       0.224   3.194  20.644  0.00  0.00    +0.000 F 
ATOM     11  C   UNL     1       1.718   4.819  19.817  0.00  0.00    +0.000 A 
ATOM     12  C   UNL     1       2.705   5.212  18.893  0.00  0.00    +0.000 A 
ENDROOT
BRANCH   1  15
ATOM     13  C   UNL     1       1.716   8.257  19.877  0.00  0.00    +0.000 C 
ATOM     14  O   UNL     1       2.031   8.004  21.035  0.00  0.00    +0.000 OA
ATOM     15  N   UNL     1       2.295   7.618  18.800  0.00  0.00    +0.000 N 
ATOM     16  H   UNL     1       2.009   7.845  17.859  0.00  0.00    +0.000 HD
BRANCH  13  20
ATOM     17  C   UNL     1      -1.366  11.616  17.792  0.00  0.00    +0.000 C 
ATOM     18  N   UNL     1      -0.690  10.710  18.691  0.00  0.00    +0.000 N 
ATOM     19  C   UNL     1       0.246   9.763  18.375  0.00  0.00    +0.000 A 
ATOM     20  C   UNL     1       0.692   9.243  19.578  0.00  0.00    +0.000 A 
ATOM     21  C   UNL     1      -0.091   9.920  20.544  0.00  0.00    +0.000 A 
ATOM     22  N   UNL     1      -0.933  10.805  20.008  0.00  0.00    +0.000 NA
ENDBRANCH  13  20
ENDBRANCH   1  15
TORSDOF 2
ENDMDL
