MODEL 1
REMARK VINA RESULT:      -9.0      0.000      0.000
REMARK  Name = 
REMARK  4 active torsions:
REMARK  status: ('A' for Active; 'I' for Inactive)
REMARK    1  A    between atoms: C_1  and  C_2
REMARK    2  A    between atoms: N_8  and  C_9
REMARK    3  A    between atoms: C_9  and  C_10
REMARK    4  A    between atoms: C_10  and  C_11
REMARK                            x       y       z     vdW  Elec       q    Type
REMARK                         _______ _______ _______ _____ _____    ______ ____
ROOT
ATOM      1  C   UNL     1       2.002   2.568  18.852  0.00  0.00    +0.000 C 
ATOM      2  C   UNL     1       3.046   3.621  18.621  0.00  0.00    +0.000 A 
ATOM      3  C   UNL     1       3.172   4.696  19.514  0.00  0.00    +0.000 A 
ATOM      4  C   UNL     1       4.149   5.675  19.318  0.00  0.00    +0.000 A 
ATOM      5  C   UNL     1       5.009   5.609  18.230  0.00  0.00    +0.000 A 
ATOM      6  N   UNL     1       5.972   6.630  18.078  0.00  0.00    +0.000 NA
ATOM      7  C   UNL     1       6.762   6.652  17.033  0.00  0.00    +0.000 A 
ATOM      8  N   UNL     1       7.668   7.690  16.900  0.00  0.00    +0.000 N 
ATOM      9  C   UNL     1       6.648   5.574  16.071  0.00  0.00    +0.000 A 
ATOM     10  N   UNL     1       7.357   5.369  14.984  0.00  0.00    +0.000 NA
ATOM     11  N   UNL     1       6.896   4.190  14.418  0.00  0.00    +0.000 NA
ATOM     12  C   UNL     1       5.931   3.723  15.186  0.00  0.00    +0.000 A 
ATOM     13  N   UNL     1       5.743   4.564  16.241  0.00  0.00    +0.000 N 
ATOM     14  C   UNL     1       4.866   4.539  17.328  0.00  0.00    +0.000 A 
ATOM     15  C   UNL     1       3.903   3.543  17.513  0.00  0.00    +0.000 A 
ATOM     16  H   UNL     1       8.260   7.647  16.077  0.00  0.00    +0.000 HD
ENDROOT
BRANCH   8  17
ATOM     17  C   UNL     1       8.231   8.322  18.089  0.00  0.00    +0.000 C 
BRANCH  17  18
ATOM     18  C   UNL     1       8.013   9.839  18.083  0.00  0.00    +0.000 C 
BRANCH  18  19
ATOM     19  C   UNL     1       9.220  10.574  18.617  0.00  0.00    +0.000 A 
ATOM     20  C   UNL     1      10.238  11.001  17.755  0.00  0.00    +0.000 A 
ATOM     21  C   UNL     1      11.375  11.641  18.260  0.00  0.00    +0.000 A 
ATOM     22  C   UNL     1      11.508  11.855  19.630  0.00  0.00    +0.000 A 
ATOM     23  C   UNL     1      10.500  11.435  20.496  0.00  0.00    +0.000 A 
ATOM     24  C   UNL     1       9.362  10.800  20.000  0.00  0.00    +0.000 A 
ENDBRANCH  18  19
ENDBRANCH  17  18
ENDBRANCH   8  17
TORSDOF 3
ENDMDL
MODEL 2
REMARK VINA RESULT:      -8.7      3.185      5.522
REMARK  Name = 
REMARK  4 active torsions:
REMARK  status: ('A' for Active; 'I' for Inactive)
REMARK    1  A    between atoms: C_1  and  C_2
REMARK    2  A    between atoms: N_8  and  C_9
REMARK    3  A    between atoms: C_9  and  C_10
REMARK    4  A    between atoms: C_10  and  C_11
REMARK                            x       y       z     vdW  Elec       q    Type
REMARK                         _______ _______ _______ _____ _____    ______ ____
ROOT
ATOM      1  C   UNL     1       0.795   9.027  21.549  0.00  0.00    +0.000 C 
ATOM      2  C   UNL     1       1.441   8.143  20.522  0.00  0.00    +0.000 A 
ATOM      3  C   UNL     1       1.746   8.648  19.249  0.00  0.00    +0.000 A 
ATOM      4  C   UNL     1       2.360   7.839  18.290  0.00  0.00    +0.000 A 
ATOM      5  C   UNL     1       2.673   6.517  18.575  0.00  0.00    +0.000 A 
ATOM      6  N   UNL     1       3.287   5.744  17.565  0.00  0.00    +0.000 NA
ATOM      7  C   UNL     1       3.541   4.473  17.758  0.00  0.00    +0.000 A 
ATOM      8  N   UNL     1       4.108   3.740  16.730  0.00  0.00    +0.000 N 
ATOM      9  C   UNL     1       3.217   3.904  19.051  0.00  0.00    +0.000 A 
ATOM     10  N   UNL     1       3.420   2.679  19.479  0.00  0.00    +0.000 NA
ATOM     11  N   UNL     1       2.975   2.631  20.791  0.00  0.00    +0.000 NA
ATOM     12  C   UNL     1       2.525   3.829  21.109  0.00  0.00    +0.000 A 
ATOM     13  N   UNL     1       2.661   4.664  20.041  0.00  0.00    +0.000 N 
ATOM     14  C   UNL     1       2.348   6.011  19.847  0.00  0.00    +0.000 A 
ATOM     15  C   UNL     1       1.744   6.807  20.824  0.00  0.00    +0.000 A 
ATOM     16  H   UNL     1       4.291   2.765  16.942  0.00  0.00    +0.000 HD
ENDROOT
BRANCH   8  17
ATOM     17  C   UNL     1       5.004   4.391  15.779  0.00  0.00    +0.000 C 
BRANCH  17  18
ATOM     18  C   UNL     1       6.474   4.098  16.091  0.00  0.00    +0.000 C 
BRANCH  18  19
ATOM     19  C   UNL     1       7.069   5.147  17.000  0.00  0.00    +0.000 A 
ATOM     20  C   UNL     1       7.564   4.804  18.264  0.00  0.00    +0.000 A 
ATOM     21  C   UNL     1       8.072   5.787  19.120  0.00  0.00    +0.000 A 
ATOM     22  C   UNL     1       8.085   7.123  18.723  0.00  0.00    +0.000 A 
ATOM     23  C   UNL     1       7.594   7.475  17.466  0.00  0.00    +0.000 A 
ATOM     24  C   UNL     1       7.091   6.500  16.607  0.00  0.00    +0.000 A 
ENDBRANCH  18  19
ENDBRANCH  17  18
ENDBRANCH   8  17
TORSDOF 3
ENDMDL
MODEL 3
REMARK VINA RESULT:      -8.6      3.210      5.580
REMARK  Name = 
REMARK  4 active torsions:
REMARK  status: ('A' for Active; 'I' for Inactive)
REMARK    1  A    between atoms: C_1  and  C_2
REMARK    2  A    between atoms: N_8  and  C_9
REMARK    3  A    between atoms: C_9  and  C_10
REMARK    4  A    between atoms: C_10  and  C_11
REMARK                            x       y       z     vdW  Elec       q    Type
REMARK                         _______ _______ _______ _____ _____    ______ ____
ROOT
ATOM      1  C   UNL     1       0.788   9.519  21.203  0.00  0.00    +0.000 C 
ATOM      2  C   UNL     1       1.415   8.533  20.261  0.00  0.00    +0.000 A 
ATOM      3  C   UNL     1       1.747   8.921  18.954  0.00  0.00    +0.000 A 
ATOM      4  C   UNL     1       2.344   8.017  18.072  0.00  0.00    +0.000 A 
ATOM      5  C   UNL     1       2.614   6.714  18.469  0.00  0.00    +0.000 A 
ATOM      6  N   UNL     1       3.213   5.842  17.534  0.00  0.00    +0.000 NA
ATOM      7  C   UNL     1       3.426   4.585  17.835  0.00  0.00    +0.000 A 
ATOM      8  N   UNL     1       3.979   3.753  16.878  0.00  0.00    +0.000 N 
ATOM      9  C   UNL     1       3.074   4.136  19.167  0.00  0.00    +0.000 A 
ATOM     10  N   UNL     1       3.236   2.945  19.697  0.00  0.00    +0.000 NA
ATOM     11  N   UNL     1       2.778   3.020  21.004  0.00  0.00    +0.000 NA
ATOM     12  C   UNL     1       2.363   4.253  21.216  0.00  0.00    +0.000 A 
ATOM     13  N   UNL     1       2.533   4.991  20.084  0.00  0.00    +0.000 N 
ATOM     14  C   UNL     1       2.263   6.326  19.775  0.00  0.00    +0.000 A 
ATOM     15  C   UNL     1       1.676   7.219  20.676  0.00  0.00    +0.000 A 
ATOM     16  H   UNL     1       4.131   2.793  17.172  0.00  0.00    +0.000 HD
ENDROOT
BRANCH   8  17
ATOM     17  C   UNL     1       4.903   4.295  15.886  0.00  0.00    +0.000 C 
BRANCH  17  18
ATOM     18  C   UNL     1       6.363   4.023  16.260  0.00  0.00    +0.000 C 
BRANCH  18  19
ATOM     19  C   UNL     1       6.934   5.134  17.109  0.00  0.00    +0.000 A 
ATOM     20  C   UNL     1       6.907   6.461  16.664  0.00  0.00    +0.000 A 
ATOM     21  C   UNL     1       7.479   7.481  17.434  0.00  0.00    +0.000 A 
ATOM     22  C   UNL     1       8.086   7.182  18.652  0.00  0.00    +0.000 A 
ATOM     23  C   UNL     1       8.118   5.863  19.103  0.00  0.00    +0.000 A 
ATOM     24  C   UNL     1       7.547   4.844  18.344  0.00  0.00    +0.000 A 
ENDBRANCH  18  19
ENDBRANCH  17  18
ENDBRANCH   8  17
TORSDOF 3
ENDMDL
MODEL 4
REMARK VINA RESULT:      -8.6      4.910      7.600
REMARK  Name = 
REMARK  4 active torsions:
REMARK  status: ('A' for Active; 'I' for Inactive)
REMARK    1  A    between atoms: C_1  and  C_2
REMARK    2  A    between atoms: N_8  and  C_9
REMARK    3  A    between atoms: C_9  and  C_10
REMARK    4  A    between atoms: C_10  and  C_11
REMARK                            x       y       z     vdW  Elec       q    Type
REMARK                         _______ _______ _______ _____ _____    ______ ____
ROOT
ATOM      1  C   UNL     1       5.894   4.061  14.896  0.00  0.00    +0.000 C 
ATOM      2  C   UNL     1       5.142   4.729  16.011  0.00  0.00    +0.000 A 
ATOM      3  C   UNL     1       5.292   6.106  16.235  0.00  0.00    +0.000 A 
ATOM      4  C   UNL     1       4.587   6.743  17.259  0.00  0.00    +0.000 A 
ATOM      5  C   UNL     1       3.731   6.023  18.082  0.00  0.00    +0.000 A 
ATOM      6  N   UNL     1       3.050   6.717  19.106  0.00  0.00    +0.000 NA
ATOM      7  C   UNL     1       2.284   6.074  19.952  0.00  0.00    +0.000 A 
ATOM      8  N   UNL     1       1.663   6.784  20.965  0.00  0.00    +0.000 N 
ATOM      9  C   UNL     1       2.121   4.645  19.772  0.00  0.00    +0.000 A 
ATOM     10  N   UNL     1       1.377   3.814  20.465  0.00  0.00    +0.000 NA
ATOM     11  N   UNL     1       1.527   2.562  19.889  0.00  0.00    +0.000 NA
ATOM     12  C   UNL     1       2.351   2.684  18.866  0.00  0.00    +0.000 A 
ATOM     13  N   UNL     1       2.748   3.982  18.755  0.00  0.00    +0.000 N 
ATOM     14  C   UNL     1       3.599   4.639  17.864  0.00  0.00    +0.000 A 
ATOM     15  C   UNL     1       4.286   3.987  16.836  0.00  0.00    +0.000 A 
ATOM     16  H   UNL     1       1.074   6.235  21.582  0.00  0.00    +0.000 HD
ENDROOT
BRANCH   8  17
ATOM     17  C   UNL     1       1.282   8.177  20.751  0.00  0.00    +0.000 C 
BRANCH  17  18
ATOM     18  C   UNL     1       1.195   8.951  22.070  0.00  0.00    +0.000 C 
BRANCH  18  19
ATOM     19  C   UNL     1       0.163  10.051  22.001  0.00  0.00    +0.000 A 
ATOM     20  C   UNL     1      -0.661  10.330  23.098  0.00  0.00    +0.000 A 
ATOM     21  C   UNL     1      -1.647  11.320  23.013  0.00  0.00    +0.000 A 
ATOM     22  C   UNL     1      -1.821  12.035  21.830  0.00  0.00    +0.000 A 
ATOM     23  C   UNL     1      -1.005  11.765  20.732  0.00  0.00    +0.000 A 
ATOM     24  C   UNL     1      -0.019  10.783  20.811  0.00  0.00    +0.000 A 
ENDBRANCH  18  19
ENDBRANCH  17  18
ENDBRANCH   8  17
TORSDOF 3
ENDMDL
MODEL 5
REMARK VINA RESULT:      -8.5      4.731      7.365
REMARK  Name = 
REMARK  4 active torsions:
REMARK  status: ('A' for Active; 'I' for Inactive)
REMARK    1  A    between atoms: C_1  and  C_2
REMARK    2  A    between atoms: N_8  and  C_9
REMARK    3  A    between atoms: C_9  and  C_10
REMARK    4  A    between atoms: C_10  and  C_11
REMARK                            x       y       z     vdW  Elec       q    Type
REMARK                         _______ _______ _______ _____ _____    ______ ____
ROOT
ATOM      1  C   UNL     1       6.163   4.201  14.667  0.00  0.00    +0.000 C 
ATOM      2  C   UNL     1       5.375   4.804  15.794  0.00  0.00    +0.000 A 
ATOM      3  C   UNL     1       5.500   6.170  16.090  0.00  0.00    +0.000 A 
ATOM      4  C   UNL     1       4.762   6.745  17.127  0.00  0.00    +0.000 A 
ATOM      5  C   UNL     1       3.895   5.975  17.890  0.00  0.00    +0.000 A 
ATOM      6  N   UNL     1       3.179   6.609  18.929  0.00  0.00    +0.000 NA
ATOM      7  C   UNL     1       2.400   5.916  19.722  0.00  0.00    +0.000 A 
ATOM      8  N   UNL     1       1.744   6.566  20.753  0.00  0.00    +0.000 N 
ATOM      9  C   UNL     1       2.261   4.496  19.467  0.00  0.00    +0.000 A 
ATOM     10  N   UNL     1       1.510   3.621  20.099  0.00  0.00    +0.000 NA
ATOM     11  N   UNL     1       1.692   2.402  19.465  0.00  0.00    +0.000 NA
ATOM     12  C   UNL     1       2.540   2.585  18.471  0.00  0.00    +0.000 A 
ATOM     13  N   UNL     1       2.922   3.892  18.435  0.00  0.00    +0.000 N 
ATOM     14  C   UNL     1       3.786   4.603  17.600  0.00  0.00    +0.000 A 
ATOM     15  C   UNL     1       4.508   4.011  16.559  0.00  0.00    +0.000 A 
ATOM     16  H   UNL     1       1.147   5.980  21.326  0.00  0.00    +0.000 HD
ENDROOT
BRANCH   8  17
ATOM     17  C   UNL     1       1.350   7.964  20.599  0.00  0.00    +0.000 C 
BRANCH  17  18
ATOM     18  C   UNL     1       1.428   8.725  21.926  0.00  0.00    +0.000 C 
BRANCH  18  19
ATOM     19  C   UNL     1       0.406   9.835  21.988  0.00  0.00    +0.000 A 
ATOM     20  C   UNL     1       0.323  10.791  20.968  0.00  0.00    +0.000 A 
ATOM     21  C   UNL     1      -0.594  11.844  21.053  0.00  0.00    +0.000 A 
ATOM     22  C   UNL     1      -1.433  11.955  22.160  0.00  0.00    +0.000 A 
ATOM     23  C   UNL     1      -1.358  11.009  23.181  0.00  0.00    +0.000 A 
ATOM     24  C   UNL     1      -0.450   9.955  23.101  0.00  0.00    +0.000 A 
ENDBRANCH  18  19
ENDBRANCH  17  18
ENDBRANCH   8  17
TORSDOF 3
ENDMDL
MODEL 6
REMARK VINA RESULT:      -8.4      0.377      1.066
REMARK  Name = 
REMARK  4 active torsions:
REMARK  status: ('A' for Active; 'I' for Inactive)
REMARK    1  A    between atoms: C_1  and  C_2
REMARK    2  A    between atoms: N_8  and  C_9
REMARK    3  A    between atoms: C_9  and  C_10
REMARK    4  A    between atoms: C_10  and  C_11
REMARK                            x       y       z     vdW  Elec       q    Type
REMARK                         _______ _______ _______ _____ _____    ______ ____
ROOT
ATOM      1  C   UNL     1       2.039   2.497  19.207  0.00  0.00    +0.000 C 
ATOM      2  C   UNL     1       3.032   3.579  18.897  0.00  0.00    +0.000 A 
ATOM      3  C   UNL     1       3.112   4.718  19.713  0.00  0.00    +0.000 A 
ATOM      4  C   UNL     1       4.041   5.725  19.444  0.00  0.00    +0.000 A 
ATOM      5  C   UNL     1       4.899   5.623  18.357  0.00  0.00    +0.000 A 
ATOM      6  N   UNL     1       5.814   6.675  18.130  0.00  0.00    +0.000 NA
ATOM      7  C   UNL     1       6.599   6.661  17.080  0.00  0.00    +0.000 A 
ATOM      8  N   UNL     1       7.454   7.728  16.871  0.00  0.00    +0.000 N 
ATOM      9  C   UNL     1       6.531   5.515  16.196  0.00  0.00    +0.000 A 
ATOM     10  N   UNL     1       7.245   5.269  15.121  0.00  0.00    +0.000 NA
ATOM     11  N   UNL     1       6.838   4.034  14.640  0.00  0.00    +0.000 NA
ATOM     12  C   UNL     1       5.898   3.577  15.445  0.00  0.00    +0.000 A 
ATOM     13  N   UNL     1       5.675   4.479  16.441  0.00  0.00    +0.000 N 
ATOM     14  C   UNL     1       4.803   4.488  17.532  0.00  0.00    +0.000 A 
ATOM     15  C   UNL     1       3.888   3.464  17.792  0.00  0.00    +0.000 A 
ATOM     16  H   UNL     1       8.045   7.656  16.049  0.00  0.00    +0.000 HD
ENDROOT
BRANCH   8  17
ATOM     17  C   UNL     1       7.991   8.466  18.010  0.00  0.00    +0.000 C 
BRANCH  17  18
ATOM     18  C   UNL     1       8.304   9.921  17.648  0.00  0.00    +0.000 C 
BRANCH  18  19
ATOM     19  C   UNL     1       9.246  10.551  18.646  0.00  0.00    +0.000 A 
ATOM     20  C   UNL     1       8.986  10.480  20.020  0.00  0.00    +0.000 A 
ATOM     21  C   UNL     1       9.837  11.104  20.938  0.00  0.00    +0.000 A 
ATOM     22  C   UNL     1      10.952  11.810  20.492  0.00  0.00    +0.000 A 
ATOM     23  C   UNL     1      11.219  11.888  19.126  0.00  0.00    +0.000 A 
ATOM     24  C   UNL     1      10.378  11.264  18.206  0.00  0.00    +0.000 A 
ENDBRANCH  18  19
ENDBRANCH  17  18
ENDBRANCH   8  17
TORSDOF 3
ENDMDL
MODEL 7
REMARK VINA RESULT:      -8.1      4.734      7.318
REMARK  Name = 
REMARK  4 active torsions:
REMARK  status: ('A' for Active; 'I' for Inactive)
REMARK    1  A    between atoms: C_1  and  C_2
REMARK    2  A    between atoms: N_8  and  C_9
REMARK    3  A    between atoms: C_9  and  C_10
REMARK    4  A    between atoms: C_10  and  C_11
REMARK                            x       y       z     vdW  Elec       q    Type
REMARK                         _______ _______ _______ _____ _____    ______ ____
ROOT
ATOM      1  C   UNL     1       5.941   4.046  14.839  0.00  0.00    +0.000 C 
ATOM      2  C   UNL     1       5.205   4.708  15.969  0.00  0.00    +0.000 A 
ATOM      3  C   UNL     1       5.513   6.027  16.333  0.00  0.00    +0.000 A 
ATOM      4  C   UNL     1       4.826   6.659  17.372  0.00  0.00    +0.000 A 
ATOM      5  C   UNL     1       3.830   5.991  18.070  0.00  0.00    +0.000 A 
ATOM      6  N   UNL     1       3.173   6.677  19.115  0.00  0.00    +0.000 NA
ATOM      7  C   UNL     1       2.273   6.070  19.850  0.00  0.00    +0.000 A 
ATOM      8  N   UNL     1       1.680   6.764  20.890  0.00  0.00    +0.000 N 
ATOM      9  C   UNL     1       1.943   4.697  19.524  0.00  0.00    +0.000 A 
ATOM     10  N   UNL     1       1.051   3.915  20.089  0.00  0.00    +0.000 NA
ATOM     11  N   UNL     1       1.080   2.710  19.404  0.00  0.00    +0.000 NA
ATOM     12  C   UNL     1       1.983   2.810  18.447  0.00  0.00    +0.000 A 
ATOM     13  N   UNL     1       2.549   4.049  18.486  0.00  0.00    +0.000 N 
ATOM     14  C   UNL     1       3.537   4.662  17.712  0.00  0.00    +0.000 A 
ATOM     15  C   UNL     1       4.205   4.017  16.668  0.00  0.00    +0.000 A 
ATOM     16  H   UNL     1       0.983   6.246  21.416  0.00  0.00    +0.000 HD
ENDROOT
BRANCH   8  17
ATOM     17  C   UNL     1       1.496   8.209  20.790  0.00  0.00    +0.000 C 
BRANCH  17  18
ATOM     18  C   UNL     1       0.079   8.630  21.191  0.00  0.00    +0.000 C 
BRANCH  18  19
ATOM     19  C   UNL     1      -0.270   9.994  20.645  0.00  0.00    +0.000 A 
ATOM     20  C   UNL     1      -0.723  10.144  19.328  0.00  0.00    +0.000 A 
ATOM     21  C   UNL     1      -1.001  11.415  18.813  0.00  0.00    +0.000 A 
ATOM     22  C   UNL     1      -0.823  12.547  19.605  0.00  0.00    +0.000 A 
ATOM     23  C   UNL     1      -0.372  12.408  20.917  0.00  0.00    +0.000 A 
ATOM     24  C   UNL     1      -0.097  11.145  21.439  0.00  0.00    +0.000 A 
ENDBRANCH  18  19
ENDBRANCH  17  18
ENDBRANCH   8  17
TORSDOF 3
ENDMDL
MODEL 8
REMARK VINA RESULT:      -8.1      1.733      3.859
REMARK  Name = 
REMARK  4 active torsions:
REMARK  status: ('A' for Active; 'I' for Inactive)
REMARK    1  A    between atoms: C_1  and  C_2
REMARK    2  A    between atoms: N_8  and  C_9
REMARK    3  A    between atoms: C_9  and  C_10
REMARK    4  A    between atoms: C_10  and  C_11
REMARK                            x       y       z     vdW  Elec       q    Type
REMARK                         _______ _______ _______ _____ _____    ______ ____
ROOT
ATOM      1  C   UNL     1       5.577   2.733  11.760  0.00  0.00    +0.000 C 
ATOM      2  C   UNL     1       6.042   3.613  12.884  0.00  0.00    +0.000 A 
ATOM      3  C   UNL     1       7.144   4.463  12.704  0.00  0.00    +0.000 A 
ATOM      4  C   UNL     1       7.577   5.297  13.737  0.00  0.00    +0.000 A 
ATOM      5  C   UNL     1       6.931   5.296  14.966  0.00  0.00    +0.000 A 
ATOM      6  N   UNL     1       7.417   6.155  15.976  0.00  0.00    +0.000 NA
ATOM      7  C   UNL     1       6.887   6.143  17.174  0.00  0.00    +0.000 A 
ATOM      8  N   UNL     1       7.416   6.972  18.148  0.00  0.00    +0.000 N 
ATOM      9  C   UNL     1       5.762   5.261  17.411  0.00  0.00    +0.000 A 
ATOM     10  N   UNL     1       5.053   5.116  18.508  0.00  0.00    +0.000 NA
ATOM     11  N   UNL     1       4.066   4.183  18.230  0.00  0.00    +0.000 NA
ATOM     12  C   UNL     1       4.210   3.804  16.975  0.00  0.00    +0.000 A 
ATOM     13  N   UNL     1       5.267   4.461  16.420  0.00  0.00    +0.000 N 
ATOM     14  C   UNL     1       5.838   4.429  15.146  0.00  0.00    +0.000 A 
ATOM     15  C   UNL     1       5.382   3.596  14.121  0.00  0.00    +0.000 A 
ATOM     16  H   UNL     1       6.957   6.927  19.052  0.00  0.00    +0.000 HD
ENDROOT
BRANCH   8  17
ATOM     17  C   UNL     1       8.015   8.249  17.771  0.00  0.00    +0.000 C 
BRANCH  17  18
ATOM     18  C   UNL     1       8.901   8.811  18.887  0.00  0.00    +0.000 C 
BRANCH  18  19
ATOM     19  C   UNL     1       9.031  10.312  18.788  0.00  0.00    +0.000 A 
ATOM     20  C   UNL     1       9.657  11.046  19.803  0.00  0.00    +0.000 A 
ATOM     21  C   UNL     1       9.734  12.441  19.729  0.00  0.00    +0.000 A 
ATOM     22  C   UNL     1       9.182  13.116  18.642  0.00  0.00    +0.000 A 
ATOM     23  C   UNL     1       8.556  12.395  17.626  0.00  0.00    +0.000 A 
ATOM     24  C   UNL     1       8.479  11.005  17.692  0.00  0.00    +0.000 A 
ENDBRANCH  18  19
ENDBRANCH  17  18
ENDBRANCH   8  17
TORSDOF 3
ENDMDL
MODEL 9
REMARK VINA RESULT:      -8.1      1.713      3.759
REMARK  Name = 
REMARK  4 active torsions:
REMARK  status: ('A' for Active; 'I' for Inactive)
REMARK    1  A    between atoms: C_1  and  C_2
REMARK    2  A    between atoms: N_8  and  C_9
REMARK    3  A    between atoms: C_9  and  C_10
REMARK    4  A    between atoms: C_10  and  C_11
REMARK                            x       y       z     vdW  Elec       q    Type
REMARK                         _______ _______ _______ _____ _____    ______ ____
ROOT
ATOM      1  C   UNL     1       5.593   2.770  11.795  0.00  0.00    +0.000 C 
ATOM      2  C   UNL     1       6.056   3.651  12.919  0.00  0.00    +0.000 A 
ATOM      3  C   UNL     1       7.166   4.492  12.743  0.00  0.00    +0.000 A 
ATOM      4  C   UNL     1       7.598   5.327  13.776  0.00  0.00    +0.000 A 
ATOM      5  C   UNL     1       6.943   5.335  15.000  0.00  0.00    +0.000 A 
ATOM      6  N   UNL     1       7.428   6.194  16.010  0.00  0.00    +0.000 NA
ATOM      7  C   UNL     1       6.889   6.191  17.204  0.00  0.00    +0.000 A 
ATOM      8  N   UNL     1       7.417   7.020  18.179  0.00  0.00    +0.000 N 
ATOM      9  C   UNL     1       5.756   5.318  17.437  0.00  0.00    +0.000 A 
ATOM     10  N   UNL     1       5.038   5.183  18.529  0.00  0.00    +0.000 NA
ATOM     11  N   UNL     1       4.046   4.257  18.247  0.00  0.00    +0.000 NA
ATOM     12  C   UNL     1       4.196   3.872  16.995  0.00  0.00    +0.000 A 
ATOM     13  N   UNL     1       5.261   4.518  16.446  0.00  0.00    +0.000 N 
ATOM     14  C   UNL     1       5.842   4.477  15.176  0.00  0.00    +0.000 A 
ATOM     15  C   UNL     1       5.387   3.643  14.151  0.00  0.00    +0.000 A 
ATOM     16  H   UNL     1       6.951   6.983  19.080  0.00  0.00    +0.000 HD
ENDROOT
BRANCH   8  17
ATOM     17  C   UNL     1       8.029   8.290  17.802  0.00  0.00    +0.000 C 
BRANCH  17  18
ATOM     18  C   UNL     1       8.918   8.846  18.918  0.00  0.00    +0.000 C 
BRANCH  18  19
ATOM     19  C   UNL     1       9.073  10.344  18.810  0.00  0.00    +0.000 A 
ATOM     20  C   UNL     1       8.469  11.053  17.764  0.00  0.00    +0.000 A 
ATOM     21  C   UNL     1       8.654  12.435  17.642  0.00  0.00    +0.000 A 
ATOM     22  C   UNL     1       9.448  13.119  18.560  0.00  0.00    +0.000 A 
ATOM     23  C   UNL     1      10.053  12.423  19.605  0.00  0.00    +0.000 A 
ATOM     24  C   UNL     1       9.870  11.047  19.735  0.00  0.00    +0.000 A 
ENDBRANCH  18  19
ENDBRANCH  17  18
ENDBRANCH   8  17
TORSDOF 3
ENDMDL
