MODEL 1
REMARK VINA RESULT:      -7.4      0.000      0.000
REMARK  Name = 
REMARK  7 active torsions:
REMARK  status: ('A' for Active; 'I' for Inactive)
REMARK    1  A    between atoms: C_1  and  C_2
REMARK    2  A    between atoms: C_2  and  N_3
REMARK    3  A    between atoms: C_5  and  C_6
REMARK    4  A    between atoms: C_15  and  O_16
REMARK    5  A    between atoms: O_16  and  C_17
REMARK    6  A    between atoms: C_23  and  O_24
REMARK    7  A    between atoms: O_24  and  C_25
REMARK                            x       y       z     vdW  Elec       q    Type
REMARK                         _______ _______ _______ _____ _____    ______ ____
ROOT
ATOM      1  N   UNL     1      -2.688  10.898  17.891  0.00  0.00    +0.000 N 
ATOM      2  C   UNL     1      -4.076  10.947  17.748  0.00  0.00    +0.000 A 
ATOM      3  C   UNL     1      -4.960  11.603  18.514  0.00  0.00    +0.000 A 
ATOM      4  C   UNL     1      -4.396  12.372  19.632  0.00  0.00    +0.000 A 
ATOM      5  O   UNL     1      -5.117  12.987  20.417  0.00  0.00    +0.000 OA
ATOM      6  C   UNL     1      -2.923  12.402  19.789  0.00  0.00    +0.000 A 
ATOM      7  C   UNL     1      -2.445  13.192  20.838  0.00  0.00    +0.000 A 
ATOM      8  C   UNL     1      -1.089  13.332  21.017  0.00  0.00    +0.000 A 
ATOM      9  F   UNL     1      -0.674  14.084  22.047  0.00  0.00    +0.000 F 
ATOM     10  C   UNL     1      -0.190  12.722  20.144  0.00  0.00    +0.000 A 
ATOM     11  C   UNL     1      -0.664  11.784  19.185  0.00  0.00    +0.000 A 
ATOM     12  C   UNL     1      -2.066  11.662  18.922  0.00  0.00    +0.000 A 
ENDROOT
BRANCH   3  13
ATOM     13  C   UNL     1      -6.413  11.523  18.204  0.00  0.00    +0.000 C 
ATOM     14  N   UNL     1      -6.841  12.246  17.135  0.00  0.00    +0.000 N 
ATOM     15  O   UNL     1      -7.199  10.839  18.854  0.00  0.00    +0.000 OA
ATOM     16  H   UNL     1      -6.201  12.828  16.596  0.00  0.00    +0.000 HD
ATOM     17  H   UNL     1      -7.819  12.239  16.891  0.00  0.00    +0.000 HD
ENDBRANCH   3  13
BRANCH   1  19
ATOM     18  C   UNL     1      -2.681   9.946  15.590  0.00  0.00    +0.000 C 
ATOM     19  C   UNL     1      -1.923  10.105  16.903  0.00  0.00    +0.000 C 
ENDBRANCH   1  19
BRANCH  10  20
ATOM     20  O   UNL     1       1.171  12.972  20.209  0.00  0.00    +0.000 OA
BRANCH  20  21
ATOM     21  C   UNL     1       1.714  13.962  19.422  0.00  0.00    +0.000 A 
ATOM     22  C   UNL     1       2.896  13.653  18.748  0.00  0.00    +0.000 A 
ATOM     23  C   UNL     1       3.539  14.635  17.990  0.00  0.00    +0.000 A 
ATOM     24  C   UNL     1       2.998  15.918  17.910  0.00  0.00    +0.000 A 
ATOM     25  C   UNL     1       1.790  16.208  18.541  0.00  0.00    +0.000 A 
ATOM     26  C   UNL     1       1.130  15.220  19.268  0.00  0.00    +0.000 A 
ENDBRANCH  20  21
ENDBRANCH  10  20
BRANCH  11  27
ATOM     27  O   UNL     1       0.229  11.034  18.438  0.00  0.00    +0.000 OA
BRANCH  27  28
ATOM     28  C   UNL     1       0.775   9.860  18.931  0.00  0.00    +0.000 A 
ATOM     29  C   UNL     1       0.639   9.373  20.237  0.00  0.00    +0.000 A 
ATOM     30  C   UNL     1       1.364   8.249  20.648  0.00  0.00    +0.000 A 
ATOM     31  C   UNL     1       2.160   7.556  19.738  0.00  0.00    +0.000 A 
ATOM     32  C   UNL     1       2.220   7.978  18.412  0.00  0.00    +0.000 A 
ATOM     33  C   UNL     1       1.533   9.127  18.012  0.00  0.00    +0.000 A 
ENDBRANCH  27  28
ENDBRANCH  11  27
TORSDOF 6
ENDMDL
MODEL 2
REMARK VINA RESULT:      -7.2      1.943      5.148
REMARK  Name = 
REMARK  7 active torsions:
REMARK  status: ('A' for Active; 'I' for Inactive)
REMARK    1  A    between atoms: C_1  and  C_2
REMARK    2  A    between atoms: C_2  and  N_3
REMARK    3  A    between atoms: C_5  and  C_6
REMARK    4  A    between atoms: C_15  and  O_16
REMARK    5  A    between atoms: O_16  and  C_17
REMARK    6  A    between atoms: C_23  and  O_24
REMARK    7  A    between atoms: O_24  and  C_25
REMARK                            x       y       z     vdW  Elec       q    Type
REMARK                         _______ _______ _______ _____ _____    ______ ____
ROOT
ATOM      1  N   UNL     1      -3.551  12.964  20.681  0.00  0.00    +0.000 N 
ATOM      2  C   UNL     1      -4.941  12.867  20.761  0.00  0.00    +0.000 A 
ATOM      3  C   UNL     1      -5.766  12.189  19.950  0.00  0.00    +0.000 A 
ATOM      4  C   UNL     1      -5.128  11.452  18.851  0.00  0.00    +0.000 A 
ATOM      5  O   UNL     1      -5.792  10.822  18.029  0.00  0.00    +0.000 OA
ATOM      6  C   UNL     1      -3.649  11.474  18.760  0.00  0.00    +0.000 A 
ATOM      7  C   UNL     1      -3.098  10.712  17.726  0.00  0.00    +0.000 A 
ATOM      8  C   UNL     1      -1.731  10.621  17.606  0.00  0.00    +0.000 A 
ATOM      9  F   UNL     1      -1.245   9.895  16.589  0.00  0.00    +0.000 F 
ATOM     10  C   UNL     1      -0.893  11.252  18.524  0.00  0.00    +0.000 A 
ATOM     11  C   UNL     1      -1.442  12.163  19.470  0.00  0.00    +0.000 A 
ATOM     12  C   UNL     1      -2.857  12.234  19.671  0.00  0.00    +0.000 A 
ENDROOT
BRANCH   3  13
ATOM     13  C   UNL     1      -7.234  12.216  20.196  0.00  0.00    +0.000 C 
ATOM     14  N   UNL     1      -7.857  11.009  20.253  0.00  0.00    +0.000 N 
ATOM     15  O   UNL     1      -7.866  13.256  20.355  0.00  0.00    +0.000 OA
ATOM     16  H   UNL     1      -7.345  10.139  20.108  0.00  0.00    +0.000 HD
ATOM     17  H   UNL     1      -8.853  10.971  20.402  0.00  0.00    +0.000 HD
ENDBRANCH   3  13
BRANCH   1  19
ATOM     18  C   UNL     1      -2.776  13.045  23.046  0.00  0.00    +0.000 C 
ATOM     19  C   UNL     1      -2.858  13.773  21.709  0.00  0.00    +0.000 C 
ENDBRANCH   1  19
BRANCH  10  20
ATOM     20  O   UNL     1       0.477  11.049  18.517  0.00  0.00    +0.000 OA
BRANCH  20  21
ATOM     21  C   UNL     1       0.992   9.897  19.066  0.00  0.00    +0.000 A 
ATOM     22  C   UNL     1       1.768   9.094  18.230  0.00  0.00    +0.000 A 
ATOM     23  C   UNL     1       2.261   7.875  18.701  0.00  0.00    +0.000 A 
ATOM     24  C   UNL     1       1.975   7.465  20.004  0.00  0.00    +0.000 A 
ATOM     25  C   UNL     1       1.244   8.293  20.853  0.00  0.00    +0.000 A 
ATOM     26  C   UNL     1       0.782   9.525  20.395  0.00  0.00    +0.000 A 
ENDBRANCH  20  21
ENDBRANCH  10  20
BRANCH  11  27
ATOM     27  O   UNL     1      -0.609  12.935  20.263  0.00  0.00    +0.000 OA
BRANCH  27  28
ATOM     28  C   UNL     1       0.036  14.052  19.759  0.00  0.00    +0.000 A 
ATOM     29  C   UNL     1      -0.577  15.143  19.130  0.00  0.00    +0.000 A 
ATOM     30  C   UNL     1       0.203  16.141  18.533  0.00  0.00    +0.000 A 
ATOM     31  C   UNL     1       1.592  16.100  18.634  0.00  0.00    +0.000 A 
ATOM     32  C   UNL     1       2.203  15.069  19.346  0.00  0.00    +0.000 A 
ATOM     33  C   UNL     1       1.427  14.049  19.903  0.00  0.00    +0.000 A 
ENDBRANCH  27  28
ENDBRANCH  11  27
TORSDOF 6
ENDMDL
MODEL 3
REMARK VINA RESULT:      -7.2      0.637      1.069
REMARK  Name = 
REMARK  7 active torsions:
REMARK  status: ('A' for Active; 'I' for Inactive)
REMARK    1  A    between atoms: C_1  and  C_2
REMARK    2  A    between atoms: C_2  and  N_3
REMARK    3  A    between atoms: C_5  and  C_6
REMARK    4  A    between atoms: C_15  and  O_16
REMARK    5  A    between atoms: O_16  and  C_17
REMARK    6  A    between atoms: C_23  and  O_24
REMARK    7  A    between atoms: O_24  and  C_25
REMARK                            x       y       z     vdW  Elec       q    Type
REMARK                         _______ _______ _______ _____ _____    ______ ____
ROOT
ATOM      1  N   UNL     1      -2.832  10.895  17.877  0.00  0.00    +0.000 N 
ATOM      2  C   UNL     1      -4.225  10.893  17.781  0.00  0.00    +0.000 A 
ATOM      3  C   UNL     1      -5.106  11.524  18.571  0.00  0.00    +0.000 A 
ATOM      4  C   UNL     1      -4.534  12.321  19.664  0.00  0.00    +0.000 A 
ATOM      5  O   UNL     1      -5.250  12.916  20.469  0.00  0.00    +0.000 OA
ATOM      6  C   UNL     1      -3.058  12.404  19.772  0.00  0.00    +0.000 A 
ATOM      7  C   UNL     1      -2.575  13.219  20.800  0.00  0.00    +0.000 A 
ATOM      8  C   UNL     1      -1.219  13.408  20.933  0.00  0.00    +0.000 A 
ATOM      9  F   UNL     1      -0.798  14.183  21.943  0.00  0.00    +0.000 F 
ATOM     10  C   UNL     1      -0.328  12.824  20.035  0.00  0.00    +0.000 A 
ATOM     11  C   UNL     1      -0.800  11.862  19.099  0.00  0.00    +0.000 A 
ATOM     12  C   UNL     1      -2.204  11.688  18.882  0.00  0.00    +0.000 A 
ENDROOT
BRANCH   3  13
ATOM     13  C   UNL     1      -6.564  11.389  18.310  0.00  0.00    +0.000 C 
ATOM     14  N   UNL     1      -7.158  10.258  18.776  0.00  0.00    +0.000 N 
ATOM     15  O   UNL     1      -7.220  12.244  17.721  0.00  0.00    +0.000 OA
ATOM     16  H   UNL     1      -6.621   9.535  19.254  0.00  0.00    +0.000 HD
ATOM     17  H   UNL     1      -8.142  10.111  18.612  0.00  0.00    +0.000 HD
ENDBRANCH   3  13
BRANCH   1  19
ATOM     18  C   UNL     1      -2.717  10.193  15.491  0.00  0.00    +0.000 C 
ATOM     19  C   UNL     1      -2.072  10.122  16.870  0.00  0.00    +0.000 C 
ENDBRANCH   1  19
BRANCH  10  20
ATOM     20  O   UNL     1       1.024  13.123  20.053  0.00  0.00    +0.000 OA
BRANCH  20  21
ATOM     21  C   UNL     1       1.493  14.177  19.303  0.00  0.00    +0.000 A 
ATOM     22  C   UNL     1       2.638  13.947  18.540  0.00  0.00    +0.000 A 
ATOM     23  C   UNL     1       3.208  14.995  17.813  0.00  0.00    +0.000 A 
ATOM     24  C   UNL     1       2.632  16.265  17.853  0.00  0.00    +0.000 A 
ATOM     25  C   UNL     1       1.460  16.479  18.575  0.00  0.00    +0.000 A 
ATOM     26  C   UNL     1       0.870  15.427  19.272  0.00  0.00    +0.000 A 
ENDBRANCH  20  21
ENDBRANCH  10  20
BRANCH  11  27
ATOM     27  O   UNL     1       0.095  11.138  18.327  0.00  0.00    +0.000 OA
BRANCH  27  28
ATOM     28  C   UNL     1       0.771  10.044  18.841  0.00  0.00    +0.000 A 
ATOM     29  C   UNL     1       1.650   9.213  18.136  0.00  0.00    +0.000 A 
ATOM     30  C   UNL     1       2.153   8.052  18.734  0.00  0.00    +0.000 A 
ATOM     31  C   UNL     1       1.851   7.759  20.062  0.00  0.00    +0.000 A 
ATOM     32  C   UNL     1       1.057   8.635  20.799  0.00  0.00    +0.000 A 
ATOM     33  C   UNL     1       0.518   9.771  20.190  0.00  0.00    +0.000 A 
ENDBRANCH  27  28
ENDBRANCH  11  27
TORSDOF 6
ENDMDL
MODEL 4
REMARK VINA RESULT:      -7.0      1.879      5.190
REMARK  Name = 
REMARK  7 active torsions:
REMARK  status: ('A' for Active; 'I' for Inactive)
REMARK    1  A    between atoms: C_1  and  C_2
REMARK    2  A    between atoms: C_2  and  N_3
REMARK    3  A    between atoms: C_5  and  C_6
REMARK    4  A    between atoms: C_15  and  O_16
REMARK    5  A    between atoms: O_16  and  C_17
REMARK    6  A    between atoms: C_23  and  O_24
REMARK    7  A    between atoms: O_24  and  C_25
REMARK                            x       y       z     vdW  Elec       q    Type
REMARK                         _______ _______ _______ _____ _____    ______ ____
ROOT
ATOM      1  N   UNL     1      -3.410  13.138  20.644  0.00  0.00    +0.000 N 
ATOM      2  C   UNL     1      -4.804  13.085  20.693  0.00  0.00    +0.000 A 
ATOM      3  C   UNL     1      -5.632  12.401  19.890  0.00  0.00    +0.000 A 
ATOM      4  C   UNL     1      -4.991  11.601  18.837  0.00  0.00    +0.000 A 
ATOM      5  O   UNL     1      -5.655  10.959  18.025  0.00  0.00    +0.000 OA
ATOM      6  C   UNL     1      -3.510  11.575  18.781  0.00  0.00    +0.000 A 
ATOM      7  C   UNL     1      -2.959  10.756  17.792  0.00  0.00    +0.000 A 
ATOM      8  C   UNL     1      -1.594  10.619  17.709  0.00  0.00    +0.000 A 
ATOM      9  F   UNL     1      -1.107   9.838  16.734  0.00  0.00    +0.000 F 
ATOM     10  C   UNL     1      -0.758  11.260  18.622  0.00  0.00    +0.000 A 
ATOM     11  C   UNL     1      -1.300  12.224  19.517  0.00  0.00    +0.000 A 
ATOM     12  C   UNL     1      -2.716  12.346  19.681  0.00  0.00    +0.000 A 
ENDROOT
BRANCH   3  13
ATOM     13  C   UNL     1      -7.103  12.482  20.099  0.00  0.00    +0.000 C 
ATOM     14  N   UNL     1      -7.828  13.001  19.072  0.00  0.00    +0.000 N 
ATOM     15  O   UNL     1      -7.655  12.097  21.125  0.00  0.00    +0.000 OA
ATOM     16  H   UNL     1      -7.379  13.337  18.221  0.00  0.00    +0.000 HD
ATOM     17  H   UNL     1      -8.828  13.092  19.168  0.00  0.00    +0.000 HD
ENDBRANCH   3  13
BRANCH   1  19
ATOM     18  C   UNL     1      -2.690  13.290  23.022  0.00  0.00    +0.000 C 
ATOM     19  C   UNL     1      -2.716  13.965  21.656  0.00  0.00    +0.000 C 
ENDBRANCH   1  19
BRANCH  10  20
ATOM     20  O   UNL     1       0.604  11.016  18.657  0.00  0.00    +0.000 OA
BRANCH  20  21
ATOM     21  C   UNL     1       1.060   9.780  19.057  0.00  0.00    +0.000 A 
ATOM     22  C   UNL     1       0.766   9.394  20.365  0.00  0.00    +0.000 A 
ATOM     23  C   UNL     1       1.261   8.184  20.858  0.00  0.00    +0.000 A 
ATOM     24  C   UNL     1       2.045   7.368  20.042  0.00  0.00    +0.000 A 
ATOM     25  C   UNL     1       2.292   7.732  18.720  0.00  0.00    +0.000 A 
ATOM     26  C   UNL     1       1.770   8.921  18.216  0.00  0.00    +0.000 A 
ENDBRANCH  20  21
ENDBRANCH  10  20
BRANCH  11  27
ATOM     27  O   UNL     1      -0.462  13.002  20.299  0.00  0.00    +0.000 OA
BRANCH  27  28
ATOM     28  C   UNL     1       0.196  14.104  19.777  0.00  0.00    +0.000 A 
ATOM     29  C   UNL     1      -0.408  15.210  19.166  0.00  0.00    +0.000 A 
ATOM     30  C   UNL     1       0.379  16.189  18.548  0.00  0.00    +0.000 A 
ATOM     31  C   UNL     1       1.769  16.114  18.610  0.00  0.00    +0.000 A 
ATOM     32  C   UNL     1       2.374  15.069  19.304  0.00  0.00    +0.000 A 
ATOM     33  C   UNL     1       1.590  14.067  19.883  0.00  0.00    +0.000 A 
ENDBRANCH  27  28
ENDBRANCH  11  27
TORSDOF 6
ENDMDL
MODEL 5
REMARK VINA RESULT:      -7.0      3.985      7.458
REMARK  Name = 
REMARK  7 active torsions:
REMARK  status: ('A' for Active; 'I' for Inactive)
REMARK    1  A    between atoms: C_1  and  C_2
REMARK    2  A    between atoms: C_2  and  N_3
REMARK    3  A    between atoms: C_5  and  C_6
REMARK    4  A    between atoms: C_15  and  O_16
REMARK    5  A    between atoms: O_16  and  C_17
REMARK    6  A    between atoms: C_23  and  O_24
REMARK    7  A    between atoms: O_24  and  C_25
REMARK                            x       y       z     vdW  Elec       q    Type
REMARK                         _______ _______ _______ _____ _____    ______ ____
ROOT
ATOM      1  N   UNL     1       0.570   9.017  20.626  0.00  0.00    +0.000 N 
ATOM      2  C   UNL     1       0.007  10.271  20.380  0.00  0.00    +0.000 A 
ATOM      3  C   UNL     1       0.281  11.113  19.373  0.00  0.00    +0.000 A 
ATOM      4  C   UNL     1       1.290  10.655  18.408  0.00  0.00    +0.000 A 
ATOM      5  O   UNL     1       1.641  11.361  17.463  0.00  0.00    +0.000 OA
ATOM      6  C   UNL     1       1.873   9.305  18.591  0.00  0.00    +0.000 A 
ATOM      7  C   UNL     1       2.786   8.906  17.612  0.00  0.00    +0.000 A 
ATOM      8  C   UNL     1       3.327   7.643  17.665  0.00  0.00    +0.000 A 
ATOM      9  F   UNL     1       4.213   7.307  16.717  0.00  0.00    +0.000 F 
ATOM     10  C   UNL     1       2.947   6.748  18.665  0.00  0.00    +0.000 A 
ATOM     11  C   UNL     1       2.154   7.204  19.754  0.00  0.00    +0.000 A 
ATOM     12  C   UNL     1       1.518   8.485  19.703  0.00  0.00    +0.000 A 
ENDROOT
BRANCH   3  13
ATOM     13  C   UNL     1      -0.424  12.421  19.288  0.00  0.00    +0.000 C 
ATOM     14  N   UNL     1      -0.846  12.797  18.051  0.00  0.00    +0.000 N 
ATOM     15  O   UNL     1      -0.636  13.131  20.266  0.00  0.00    +0.000 OA
ATOM     16  H   UNL     1      -0.663  12.222  17.229  0.00  0.00    +0.000 HD
ATOM     17  H   UNL     1      -1.316  13.681  17.935  0.00  0.00    +0.000 HD
ENDBRANCH   3  13
BRANCH   1  19
ATOM     18  C   UNL     1      -0.331   9.198  22.940  0.00  0.00    +0.000 C 
ATOM     19  C   UNL     1       0.090   8.268  21.808  0.00  0.00    +0.000 C 
ENDBRANCH   1  19
BRANCH  10  20
ATOM     20  O   UNL     1       3.356   5.425  18.651  0.00  0.00    +0.000 OA
BRANCH  20  21
ATOM     21  C   UNL     1       4.656   5.124  18.313  0.00  0.00    +0.000 A 
ATOM     22  C   UNL     1       5.648   5.514  19.213  0.00  0.00    +0.000 A 
ATOM     23  C   UNL     1       6.992   5.304  18.897  0.00  0.00    +0.000 A 
ATOM     24  C   UNL     1       7.338   4.705  17.685  0.00  0.00    +0.000 A 
ATOM     25  C   UNL     1       6.343   4.269  16.812  0.00  0.00    +0.000 A 
ATOM     26  C   UNL     1       5.001   4.446  17.142  0.00  0.00    +0.000 A 
ENDBRANCH  20  21
ENDBRANCH  10  20
BRANCH  11  27
ATOM     27  O   UNL     1       1.923   6.380  20.845  0.00  0.00    +0.000 OA
BRANCH  27  28
ATOM     28  C   UNL     1       1.741   5.016  20.693  0.00  0.00    +0.000 A 
ATOM     29  C   UNL     1       0.837   4.397  19.822  0.00  0.00    +0.000 A 
ATOM     30  C   UNL     1       0.647   3.011  19.872  0.00  0.00    +0.000 A 
ATOM     31  C   UNL     1       1.417   2.228  20.729  0.00  0.00    +0.000 A 
ATOM     32  C   UNL     1       2.389   2.828  21.527  0.00  0.00    +0.000 A 
ATOM     33  C   UNL     1       2.548   4.216  21.510  0.00  0.00    +0.000 A 
ENDBRANCH  27  28
ENDBRANCH  11  27
TORSDOF 6
ENDMDL
MODEL 6
REMARK VINA RESULT:      -7.0      2.023      5.267
REMARK  Name = 
REMARK  7 active torsions:
REMARK  status: ('A' for Active; 'I' for Inactive)
REMARK    1  A    between atoms: C_1  and  C_2
REMARK    2  A    between atoms: C_2  and  N_3
REMARK    3  A    between atoms: C_5  and  C_6
REMARK    4  A    between atoms: C_15  and  O_16
REMARK    5  A    between atoms: O_16  and  C_17
REMARK    6  A    between atoms: C_23  and  O_24
REMARK    7  A    between atoms: O_24  and  C_25
REMARK                            x       y       z     vdW  Elec       q    Type
REMARK                         _______ _______ _______ _____ _____    ______ ____
ROOT
ATOM      1  N   UNL     1      -3.301  13.074  20.840  0.00  0.00    +0.000 N 
ATOM      2  C   UNL     1      -4.684  13.003  21.017  0.00  0.00    +0.000 A 
ATOM      3  C   UNL     1      -5.575  12.330  20.275  0.00  0.00    +0.000 A 
ATOM      4  C   UNL     1      -5.027  11.568  19.145  0.00  0.00    +0.000 A 
ATOM      5  O   UNL     1      -5.757  10.939  18.380  0.00  0.00    +0.000 OA
ATOM      6  C   UNL     1      -3.558  11.561  18.952  0.00  0.00    +0.000 A 
ATOM      7  C   UNL     1      -3.093  10.776  17.894  0.00  0.00    +0.000 A 
ATOM      8  C   UNL     1      -1.740  10.658  17.681  0.00  0.00    +0.000 A 
ATOM      9  F   UNL     1      -1.338   9.910  16.644  0.00  0.00    +0.000 F 
ATOM     10  C   UNL     1      -0.829  11.285  18.531  0.00  0.00    +0.000 A 
ATOM     11  C   UNL     1      -1.295  12.218  19.498  0.00  0.00    +0.000 A 
ATOM     12  C   UNL     1      -2.692  12.318  19.796  0.00  0.00    +0.000 A 
ENDROOT
BRANCH   3  13
ATOM     13  C   UNL     1      -7.022  12.388  20.620  0.00  0.00    +0.000 C 
ATOM     14  N   UNL     1      -7.426  11.597  21.650  0.00  0.00    +0.000 N 
ATOM     15  O   UNL     1      -7.822  13.110  20.033  0.00  0.00    +0.000 OA
ATOM     16  H   UNL     1      -6.774  10.982  22.136  0.00  0.00    +0.000 HD
ATOM     17  H   UNL     1      -8.399  11.587  21.914  0.00  0.00    +0.000 HD
ENDBRANCH   3  13
BRANCH   1  19
ATOM     18  C   UNL     1      -2.832  13.495  23.249  0.00  0.00    +0.000 C 
ATOM     19  C   UNL     1      -2.525  13.882  21.807  0.00  0.00    +0.000 C 
ENDBRANCH   1  19
BRANCH  10  20
ATOM     20  O   UNL     1       0.533  11.057  18.433  0.00  0.00    +0.000 OA
BRANCH  20  21
ATOM     21  C   UNL     1       1.041   9.831  18.798  0.00  0.00    +0.000 A 
ATOM     22  C   UNL     1       0.891   9.460  20.134  0.00  0.00    +0.000 A 
ATOM     23  C   UNL     1       1.447   8.261  20.588  0.00  0.00    +0.000 A 
ATOM     24  C   UNL     1       2.150   7.441  19.704  0.00  0.00    +0.000 A 
ATOM     25  C   UNL     1       2.253   7.790  18.359  0.00  0.00    +0.000 A 
ATOM     26  C   UNL     1       1.668   8.967  17.898  0.00  0.00    +0.000 A 
ENDBRANCH  20  21
ENDBRANCH  10  20
BRANCH  11  27
ATOM     27  O   UNL     1      -0.396  12.985  20.222  0.00  0.00    +0.000 OA
BRANCH  27  28
ATOM     28  C   UNL     1       0.313  14.016  19.629  0.00  0.00    +0.000 A 
ATOM     29  C   UNL     1       1.705  14.092  19.500  0.00  0.00    +0.000 A 
ATOM     30  C   UNL     1       2.305  15.259  19.013  0.00  0.00    +0.000 A 
ATOM     31  C   UNL     1       1.518  16.321  18.573  0.00  0.00    +0.000 A 
ATOM     32  C   UNL     1       0.129  16.211  18.605  0.00  0.00    +0.000 A 
ATOM     33  C   UNL     1      -0.470  15.065  19.134  0.00  0.00    +0.000 A 
ENDBRANCH  27  28
ENDBRANCH  11  27
TORSDOF 6
ENDMDL
MODEL 7
REMARK VINA RESULT:      -6.9      1.987      5.202
REMARK  Name = 
REMARK  7 active torsions:
REMARK  status: ('A' for Active; 'I' for Inactive)
REMARK    1  A    between atoms: C_1  and  C_2
REMARK    2  A    between atoms: C_2  and  N_3
REMARK    3  A    between atoms: C_5  and  C_6
REMARK    4  A    between atoms: C_15  and  O_16
REMARK    5  A    between atoms: O_16  and  C_17
REMARK    6  A    between atoms: C_23  and  O_24
REMARK    7  A    between atoms: O_24  and  C_25
REMARK                            x       y       z     vdW  Elec       q    Type
REMARK                         _______ _______ _______ _____ _____    ______ ____
ROOT
ATOM      1  N   UNL     1      -3.151  13.195  21.102  0.00  0.00    +0.000 N 
ATOM      2  C   UNL     1      -4.520  13.123  21.368  0.00  0.00    +0.000 A 
ATOM      3  C   UNL     1      -5.462  12.477  20.665  0.00  0.00    +0.000 A 
ATOM      4  C   UNL     1      -4.994  11.749  19.478  0.00  0.00    +0.000 A 
ATOM      5  O   UNL     1      -5.776  11.148  18.743  0.00  0.00    +0.000 OA
ATOM      6  C   UNL     1      -3.540  11.744  19.188  0.00  0.00    +0.000 A 
ATOM      7  C   UNL     1      -3.151  10.991  18.077  0.00  0.00    +0.000 A 
ATOM      8  C   UNL     1      -1.815  10.875  17.772  0.00  0.00    +0.000 A 
ATOM      9  F   UNL     1      -1.487  10.159  16.687  0.00  0.00    +0.000 F 
ATOM     10  C   UNL     1      -0.847  11.471  18.579  0.00  0.00    +0.000 A 
ATOM     11  C   UNL     1      -1.243  12.374  19.604  0.00  0.00    +0.000 A 
ATOM     12  C   UNL     1      -2.616  12.470  19.996  0.00  0.00    +0.000 A 
ENDROOT
BRANCH   3  13
ATOM     13  C   UNL     1      -6.882  12.529  21.107  0.00  0.00    +0.000 C 
ATOM     14  N   UNL     1      -7.743  13.192  20.290  0.00  0.00    +0.000 N 
ATOM     15  O   UNL     1      -7.281  11.998  22.140  0.00  0.00    +0.000 OA
ATOM     16  H   UNL     1      -7.421  13.649  19.437  0.00  0.00    +0.000 HD
ATOM     17  H   UNL     1      -8.714  13.270  20.551  0.00  0.00    +0.000 HD
ENDBRANCH   3  13
BRANCH   1  19
ATOM     18  C   UNL     1      -2.075  13.220  23.347  0.00  0.00    +0.000 C 
ATOM     19  C   UNL     1      -2.308  13.969  22.041  0.00  0.00    +0.000 C 
ENDBRANCH   1  19
BRANCH  10  20
ATOM     20  O   UNL     1       0.504  11.242  18.383  0.00  0.00    +0.000 OA
BRANCH  20  21
ATOM     21  C   UNL     1       1.057  10.056  18.811  0.00  0.00    +0.000 A 
ATOM     22  C   UNL     1       1.793   9.330  17.875  0.00  0.00    +0.000 A 
ATOM     23  C   UNL     1       2.319   8.083  18.222  0.00  0.00    +0.000 A 
ATOM     24  C   UNL     1       2.107   7.570  19.502  0.00  0.00    +0.000 A 
ATOM     25  C   UNL     1       1.416   8.321  20.451  0.00  0.00    +0.000 A 
ATOM     26  C   UNL     1       0.921   9.579  20.117  0.00  0.00    +0.000 A 
ENDBRANCH  20  21
ENDBRANCH  10  20
BRANCH  11  27
ATOM     27  O   UNL     1      -0.294  13.115  20.290  0.00  0.00    +0.000 OA
BRANCH  27  28
ATOM     28  C   UNL     1       0.403  14.142  19.676  0.00  0.00    +0.000 A 
ATOM     29  C   UNL     1       1.795  14.239  19.561  0.00  0.00    +0.000 A 
ATOM     30  C   UNL     1       2.379  15.403  19.047  0.00  0.00    +0.000 A 
ATOM     31  C   UNL     1       1.578  16.437  18.566  0.00  0.00    +0.000 A 
ATOM     32  C   UNL     1       0.191  16.302  18.585  0.00  0.00    +0.000 A 
ATOM     33  C   UNL     1      -0.393  15.160  19.141  0.00  0.00    +0.000 A 
ENDBRANCH  27  28
ENDBRANCH  11  27
TORSDOF 6
ENDMDL
MODEL 8
REMARK VINA RESULT:      -6.9      2.920      7.189
REMARK  Name = 
REMARK  7 active torsions:
REMARK  status: ('A' for Active; 'I' for Inactive)
REMARK    1  A    between atoms: C_1  and  C_2
REMARK    2  A    between atoms: C_2  and  N_3
REMARK    3  A    between atoms: C_5  and  C_6
REMARK    4  A    between atoms: C_15  and  O_16
REMARK    5  A    between atoms: O_16  and  C_17
REMARK    6  A    between atoms: C_23  and  O_24
REMARK    7  A    between atoms: O_24  and  C_25
REMARK                            x       y       z     vdW  Elec       q    Type
REMARK                         _______ _______ _______ _____ _____    ______ ____
ROOT
ATOM      1  N   UNL     1      -0.087  15.260  19.738  0.00  0.00    +0.000 N 
ATOM      2  C   UNL     1       1.011  16.098  19.536  0.00  0.00    +0.000 A 
ATOM      3  C   UNL     1       2.249  15.754  19.155  0.00  0.00    +0.000 A 
ATOM      4  C   UNL     1       2.474  14.322  18.912  0.00  0.00    +0.000 A 
ATOM      5  O   UNL     1       3.580  13.891  18.589  0.00  0.00    +0.000 OA
ATOM      6  C   UNL     1       1.323  13.399  19.053  0.00  0.00    +0.000 A 
ATOM      7  C   UNL     1       1.586  12.059  18.757  0.00  0.00    +0.000 A 
ATOM      8  C   UNL     1       0.562  11.143  18.796  0.00  0.00    +0.000 A 
ATOM      9  F   UNL     1       0.862   9.865  18.524  0.00  0.00    +0.000 F 
ATOM     10  C   UNL     1      -0.740  11.544  19.095  0.00  0.00    +0.000 A 
ATOM     11  C   UNL     1      -0.980  12.866  19.561  0.00  0.00    +0.000 A 
ATOM     12  C   UNL     1       0.041  13.865  19.470  0.00  0.00    +0.000 A 
ENDROOT
BRANCH   3  13
ATOM     13  C   UNL     1       3.296  16.800  19.004  0.00  0.00    +0.000 C 
ATOM     14  N   UNL     1       4.243  16.572  18.055  0.00  0.00    +0.000 N 
ATOM     15  O   UNL     1       3.318  17.827  19.677  0.00  0.00    +0.000 OA
ATOM     16  H   UNL     1       4.244  15.717  17.500  0.00  0.00    +0.000 HD
ATOM     17  H   UNL     1       4.984  17.243  17.922  0.00  0.00    +0.000 HD
ENDBRANCH   3  13
BRANCH   1  19
ATOM     18  C   UNL     1      -1.319  16.365  21.598  0.00  0.00    +0.000 C 
ATOM     19  C   UNL     1      -1.363  15.886  20.152  0.00  0.00    +0.000 C 
ENDBRANCH   1  19
BRANCH  10  20
ATOM     20  O   UNL     1      -1.811  10.673  18.990  0.00  0.00    +0.000 OA
BRANCH  20  21
ATOM     21  C   UNL     1      -2.548  10.646  17.827  0.00  0.00    +0.000 A 
ATOM     22  C   UNL     1      -2.040   9.879  16.778  0.00  0.00    +0.000 A 
ATOM     23  C   UNL     1      -2.700   9.867  15.547  0.00  0.00    +0.000 A 
ATOM     24  C   UNL     1      -3.863  10.618  15.372  0.00  0.00    +0.000 A 
ATOM     25  C   UNL     1      -4.395  11.341  16.437  0.00  0.00    +0.000 A 
ATOM     26  C   UNL     1      -3.758  11.326  17.676  0.00  0.00    +0.000 A 
ENDBRANCH  20  21
ENDBRANCH  10  20
BRANCH  11  27
ATOM     27  O   UNL     1      -2.232  13.224  20.037  0.00  0.00    +0.000 OA
BRANCH  27  28
ATOM     28  C   UNL     1      -2.614  12.951  21.339  0.00  0.00    +0.000 A 
ATOM     29  C   UNL     1      -1.814  12.363  22.326  0.00  0.00    +0.000 A 
ATOM     30  C   UNL     1      -2.368  12.005  23.561  0.00  0.00    +0.000 A 
ATOM     31  C   UNL     1      -3.698  12.310  23.848  0.00  0.00    +0.000 A 
ATOM     32  C   UNL     1      -4.470  12.986  22.906  0.00  0.00    +0.000 A 
ATOM     33  C   UNL     1      -3.931  13.302  21.656  0.00  0.00    +0.000 A 
ENDBRANCH  27  28
ENDBRANCH  11  27
TORSDOF 6
ENDMDL
MODEL 9
REMARK VINA RESULT:      -6.9      2.903      7.251
REMARK  Name = 
REMARK  7 active torsions:
REMARK  status: ('A' for Active; 'I' for Inactive)
REMARK    1  A    between atoms: C_1  and  C_2
REMARK    2  A    between atoms: C_2  and  N_3
REMARK    3  A    between atoms: C_5  and  C_6
REMARK    4  A    between atoms: C_15  and  O_16
REMARK    5  A    between atoms: O_16  and  C_17
REMARK    6  A    between atoms: C_23  and  O_24
REMARK    7  A    between atoms: O_24  and  C_25
REMARK                            x       y       z     vdW  Elec       q    Type
REMARK                         _______ _______ _______ _____ _____    ______ ____
ROOT
ATOM      1  N   UNL     1       0.571  15.131  19.150  0.00  0.00    +0.000 N 
ATOM      2  C   UNL     1       1.758  15.790  18.827  0.00  0.00    +0.000 A 
ATOM      3  C   UNL     1       2.930  15.247  18.468  0.00  0.00    +0.000 A 
ATOM      4  C   UNL     1       2.965  13.780  18.396  0.00  0.00    +0.000 A 
ATOM      5  O   UNL     1       3.997  13.175  18.107  0.00  0.00    +0.000 OA
ATOM      6  C   UNL     1       1.712  13.036  18.669  0.00  0.00    +0.000 A 
ATOM      7  C   UNL     1       1.795  11.648  18.533  0.00  0.00    +0.000 A 
ATOM      8  C   UNL     1       0.666  10.882  18.703  0.00  0.00    +0.000 A 
ATOM      9  F   UNL     1       0.793   9.553  18.582  0.00  0.00    +0.000 F 
ATOM     10  C   UNL     1      -0.564  11.480  18.974  0.00  0.00    +0.000 A 
ATOM     11  C   UNL     1      -0.621  12.868  19.281  0.00  0.00    +0.000 A 
ATOM     12  C   UNL     1       0.514  13.709  19.051  0.00  0.00    +0.000 A 
ENDROOT
BRANCH   3  13
ATOM     13  C   UNL     1       4.095  16.125  18.172  0.00  0.00    +0.000 C 
ATOM     14  N   UNL     1       5.313  15.522  18.149  0.00  0.00    +0.000 N 
ATOM     15  O   UNL     1       3.985  17.327  17.944  0.00  0.00    +0.000 OA
ATOM     16  H   UNL     1       5.418  14.528  18.350  0.00  0.00    +0.000 HD
ATOM     17  H   UNL     1       6.137  16.075  17.968  0.00  0.00    +0.000 HD
ENDBRANCH   3  13
BRANCH   1  19
ATOM     18  C   UNL     1      -0.848  17.067  18.490  0.00  0.00    +0.000 C 
ATOM     19  C   UNL     1      -0.601  15.960  19.508  0.00  0.00    +0.000 C 
ENDBRANCH   1  19
BRANCH  10  20
ATOM     20  O   UNL     1      -1.740  10.748  18.995  0.00  0.00    +0.000 OA
BRANCH  20  21
ATOM     21  C   UNL     1      -2.525  10.699  17.866  0.00  0.00    +0.000 A 
ATOM     22  C   UNL     1      -2.064   9.912  16.812  0.00  0.00    +0.000 A 
ATOM     23  C   UNL     1      -2.777   9.876  15.610  0.00  0.00    +0.000 A 
ATOM     24  C   UNL     1      -3.944  10.627  15.470  0.00  0.00    +0.000 A 
ATOM     25  C   UNL     1      -4.430  11.371  16.543  0.00  0.00    +0.000 A 
ATOM     26  C   UNL     1      -3.739  11.380  17.753  0.00  0.00    +0.000 A 
ENDBRANCH  20  21
ENDBRANCH  10  20
BRANCH  11  27
ATOM     27  O   UNL     1      -1.801  13.438  19.733  0.00  0.00    +0.000 OA
BRANCH  27  28
ATOM     28  C   UNL     1      -2.326  13.121  20.975  0.00  0.00    +0.000 A 
ATOM     29  C   UNL     1      -3.667  12.826  21.250  0.00  0.00    +0.000 A 
ATOM     30  C   UNL     1      -4.095  12.668  22.574  0.00  0.00    +0.000 A 
ATOM     31  C   UNL     1      -3.175  12.719  23.620  0.00  0.00    +0.000 A 
ATOM     32  C   UNL     1      -1.824  12.912  23.342  0.00  0.00    +0.000 A 
ATOM     33  C   UNL     1      -1.402  13.115  22.025  0.00  0.00    +0.000 A 
ENDBRANCH  27  28
ENDBRANCH  11  27
TORSDOF 6
ENDMDL
