MODEL 1
REMARK VINA RESULT:      -6.0      0.000      0.000
REMARK  Name = 
REMARK  6 active torsions:
REMARK  status: ('A' for Active; 'I' for Inactive)
REMARK    1  A    between atoms: C_1  and  C_2
REMARK    2  A    between atoms: C_2  and  N_3
REMARK    3  A    between atoms: N_3  and  C_4
REMARK    4  A    between atoms: N_3  and  C_6
REMARK    5  A    between atoms: C_4  and  C_5
REMARK    6  A    between atoms: C_9  and  N_10
REMARK                            x       y       z     vdW  Elec       q    Type
REMARK                         _______ _______ _______ _____ _____    ______ ____
ROOT
ATOM      1  C   UNL     1       4.976   5.458  17.694  0.00  0.00    +0.000 A 
ATOM      2  C   UNL     1       5.222   4.171  18.187  0.00  0.00    +0.000 A 
ATOM      3  C   UNL     1       4.420   3.606  19.184  0.00  0.00    +0.000 A 
ATOM      4  C   UNL     1       3.342   4.307  19.734  0.00  0.00    +0.000 A 
ATOM      5  C   UNL     1       3.074   5.578  19.230  0.00  0.00    +0.000 A 
ATOM      6  C   UNL     1       3.882   6.146  18.230  0.00  0.00    +0.000 A 
ENDROOT
BRANCH   4   7
ATOM      7  N   UNL     1       2.660   3.708  20.803  0.00  0.00    +0.000 N 
ATOM      8  C   UNL     1       1.426   3.157  20.870  0.00  0.00    +0.000 C 
ATOM      9  N   UNL     1       0.481   3.094  20.008  0.00  0.00    +0.000 NA
ATOM     10  N   UNL     1       1.161   2.651  22.100  0.00  0.00    +0.000 N 
ATOM     11  H   UNL     1       3.227   3.590  21.632  0.00  0.00    +0.000 HD
ATOM     12  H   UNL     1       0.775   3.579  19.156  0.00  0.00    +0.000 HD
ATOM     13  H   UNL     1       1.276   3.343  22.829  0.00  0.00    +0.000 HD
ATOM     14  H   UNL     1       0.196   2.336  22.105  0.00  0.00    +0.000 HD
ENDBRANCH   4   7
BRANCH   1  15
ATOM     15  N   UNL     1       5.789   6.058  16.717  0.00  0.00    +0.000 N 
BRANCH  15  17
ATOM     16  C   UNL     1       6.452   4.790  14.671  0.00  0.00    +0.000 C 
ATOM     17  C   UNL     1       5.463   5.752  15.316  0.00  0.00    +0.000 C 
ENDBRANCH  15  17
BRANCH  15  18
ATOM     18  C   UNL     1       7.212   6.205  17.093  0.00  0.00    +0.000 C 
ATOM     19  C   UNL     1       7.577   7.605  17.577  0.00  0.00    +0.000 C 
ENDBRANCH  15  18
ENDBRANCH   1  15
TORSDOF 4
ENDMDL
MODEL 2
REMARK VINA RESULT:      -5.9      1.885      6.197
REMARK  Name = 
REMARK  6 active torsions:
REMARK  status: ('A' for Active; 'I' for Inactive)
REMARK    1  A    between atoms: C_1  and  C_2
REMARK    2  A    between atoms: C_2  and  N_3
REMARK    3  A    between atoms: N_3  and  C_4
REMARK    4  A    between atoms: N_3  and  C_6
REMARK    5  A    between atoms: C_4  and  C_5
REMARK    6  A    between atoms: C_9  and  N_10
REMARK                            x       y       z     vdW  Elec       q    Type
REMARK                         _______ _______ _______ _____ _____    ______ ____
ROOT
ATOM      1  C   UNL     1       4.228   4.474  18.744  0.00  0.00    +0.000 A 
ATOM      2  C   UNL     1       3.852   4.509  17.396  0.00  0.00    +0.000 A 
ATOM      3  C   UNL     1       4.783   4.773  16.386  0.00  0.00    +0.000 A 
ATOM      4  C   UNL     1       6.127   5.020  16.682  0.00  0.00    +0.000 A 
ATOM      5  C   UNL     1       6.514   4.961  18.019  0.00  0.00    +0.000 A 
ATOM      6  C   UNL     1       5.579   4.698  19.033  0.00  0.00    +0.000 A 
ENDROOT
BRANCH   4   7
ATOM      7  N   UNL     1       6.967   5.382  15.618  0.00  0.00    +0.000 N 
ATOM      8  C   UNL     1       7.114   4.849  14.384  0.00  0.00    +0.000 C 
ATOM      9  N   UNL     1       6.599   3.807  13.846  0.00  0.00    +0.000 NA
ATOM     10  N   UNL     1       8.022   5.531  13.641  0.00  0.00    +0.000 N 
ATOM     11  H   UNL     1       7.476   6.241  15.778  0.00  0.00    +0.000 HD
ATOM     12  H   UNL     1       5.999   3.341  14.532  0.00  0.00    +0.000 HD
ATOM     13  H   UNL     1       8.919   5.598  14.104  0.00  0.00    +0.000 HD
ATOM     14  H   UNL     1       8.146   5.029  12.767  0.00  0.00    +0.000 HD
ENDBRANCH   4   7
BRANCH   1  15
ATOM     15  N   UNL     1       3.303   4.244  19.777  0.00  0.00    +0.000 N 
BRANCH  15  17
ATOM     16  C   UNL     1       2.381   2.754  21.556  0.00  0.00    +0.000 C 
ATOM     17  C   UNL     1       3.232   2.870  20.298  0.00  0.00    +0.000 C 
ENDBRANCH  15  17
BRANCH  15  18
ATOM     18  C   UNL     1       2.052   5.026  19.682  0.00  0.00    +0.000 C 
ATOM     19  C   UNL     1       2.207   6.485  20.101  0.00  0.00    +0.000 C 
ENDBRANCH  15  18
ENDBRANCH   1  15
TORSDOF 4
ENDMDL
MODEL 3
REMARK VINA RESULT:      -5.9      0.447      1.863
REMARK  Name = 
REMARK  6 active torsions:
REMARK  status: ('A' for Active; 'I' for Inactive)
REMARK    1  A    between atoms: C_1  and  C_2
REMARK    2  A    between atoms: C_2  and  N_3
REMARK    3  A    between atoms: N_3  and  C_4
REMARK    4  A    between atoms: N_3  and  C_6
REMARK    5  A    between atoms: C_4  and  C_5
REMARK    6  A    between atoms: C_9  and  N_10
REMARK                            x       y       z     vdW  Elec       q    Type
REMARK                         _______ _______ _______ _____ _____    ______ ____
ROOT
ATOM      1  C   UNL     1       5.050   5.318  17.808  0.00  0.00    +0.000 A 
ATOM      2  C   UNL     1       5.193   3.993  18.239  0.00  0.00    +0.000 A 
ATOM      3  C   UNL     1       4.361   3.454  19.225  0.00  0.00    +0.000 A 
ATOM      4  C   UNL     1       3.357   4.218  19.827  0.00  0.00    +0.000 A 
ATOM      5  C   UNL     1       3.191   5.529  19.386  0.00  0.00    +0.000 A 
ATOM      6  C   UNL     1       4.028   6.071  18.396  0.00  0.00    +0.000 A 
ENDROOT
BRANCH   4   7
ATOM      7  N   UNL     1       2.642   3.630  20.882  0.00  0.00    +0.000 N 
ATOM      8  C   UNL     1       1.397   3.105  20.925  0.00  0.00    +0.000 C 
ATOM      9  N   UNL     1       0.466   3.064  20.045  0.00  0.00    +0.000 NA
ATOM     10  N   UNL     1       1.098   2.602  22.149  0.00  0.00    +0.000 N 
ATOM     11  H   UNL     1       3.191   3.500  21.721  0.00  0.00    +0.000 HD
ATOM     12  H   UNL     1       0.786   3.544  19.200  0.00  0.00    +0.000 HD
ATOM     13  H   UNL     1       1.214   3.290  22.881  0.00  0.00    +0.000 HD
ATOM     14  H   UNL     1       0.127   2.307  22.135  0.00  0.00    +0.000 HD
ENDBRANCH   4   7
BRANCH   1  15
ATOM     15  N   UNL     1       5.897   5.890  16.843  0.00  0.00    +0.000 N 
BRANCH  15  17
ATOM     16  C   UNL     1       7.747   6.747  18.283  0.00  0.00    +0.000 C 
ATOM     17  C   UNL     1       6.664   7.072  17.263  0.00  0.00    +0.000 C 
ENDBRANCH  15  17
BRANCH  15  18
ATOM     18  C   UNL     1       5.388   5.837  15.455  0.00  0.00    +0.000 C 
ATOM     19  C   UNL     1       5.903   4.641  14.658  0.00  0.00    +0.000 C 
ENDBRANCH  15  18
ENDBRANCH   1  15
TORSDOF 4
ENDMDL
MODEL 4
REMARK VINA RESULT:      -5.9      1.863      6.213
REMARK  Name = 
REMARK  6 active torsions:
REMARK  status: ('A' for Active; 'I' for Inactive)
REMARK    1  A    between atoms: C_1  and  C_2
REMARK    2  A    between atoms: C_2  and  N_3
REMARK    3  A    between atoms: N_3  and  C_4
REMARK    4  A    between atoms: N_3  and  C_6
REMARK    5  A    between atoms: C_4  and  C_5
REMARK    6  A    between atoms: C_9  and  N_10
REMARK                            x       y       z     vdW  Elec       q    Type
REMARK                         _______ _______ _______ _____ _____    ______ ____
ROOT
ATOM      1  C   UNL     1       2.781   5.087  18.592  0.00  0.00    +0.000 A 
ATOM      2  C   UNL     1       3.310   3.981  17.916  0.00  0.00    +0.000 A 
ATOM      3  C   UNL     1       4.305   4.129  16.944  0.00  0.00    +0.000 A 
ATOM      4  C   UNL     1       4.807   5.388  16.602  0.00  0.00    +0.000 A 
ATOM      5  C   UNL     1       4.304   6.491  17.289  0.00  0.00    +0.000 A 
ATOM      6  C   UNL     1       3.303   6.343  18.264  0.00  0.00    +0.000 A 
ENDROOT
BRANCH   4   7
ATOM      7  N   UNL     1       5.724   5.452  15.542  0.00  0.00    +0.000 N 
ATOM      8  C   UNL     1       7.008   5.038  15.454  0.00  0.00    +0.000 C 
ATOM      9  N   UNL     1       7.798   4.543  16.332  0.00  0.00    +0.000 NA
ATOM     10  N   UNL     1       7.531   5.260  14.223  0.00  0.00    +0.000 N 
ATOM     11  H   UNL     1       5.319   5.782  14.676  0.00  0.00    +0.000 HD
ATOM     12  H   UNL     1       7.311   4.501  17.232  0.00  0.00    +0.000 HD
ATOM     13  H   UNL     1       7.457   6.231  13.947  0.00  0.00    +0.000 HD
ATOM     14  H   UNL     1       8.514   5.009  14.254  0.00  0.00    +0.000 HD
ENDBRANCH   4   7
BRANCH   1  15
ATOM     15  N   UNL     1       1.757   4.965  19.548  0.00  0.00    +0.000 N 
BRANCH  15  17
ATOM     16  C   UNL     1       1.252   7.029  20.859  0.00  0.00    +0.000 C 
ATOM     17  C   UNL     1       1.959   5.680  20.817  0.00  0.00    +0.000 C 
ENDBRANCH  15  17
BRANCH  15  18
ATOM     18  C   UNL     1       1.085   3.648  19.580  0.00  0.00    +0.000 C 
ATOM     19  C   UNL     1       1.237   2.915  20.909  0.00  0.00    +0.000 C 
ENDBRANCH  15  18
ENDBRANCH   1  15
TORSDOF 4
ENDMDL
MODEL 5
REMARK VINA RESULT:      -5.8      2.019      6.267
REMARK  Name = 
REMARK  6 active torsions:
REMARK  status: ('A' for Active; 'I' for Inactive)
REMARK    1  A    between atoms: C_1  and  C_2
REMARK    2  A    between atoms: C_2  and  N_3
REMARK    3  A    between atoms: N_3  and  C_4
REMARK    4  A    between atoms: N_3  and  C_6
REMARK    5  A    between atoms: C_4  and  C_5
REMARK    6  A    between atoms: C_9  and  N_10
REMARK                            x       y       z     vdW  Elec       q    Type
REMARK                         _______ _______ _______ _____ _____    ______ ____
ROOT
ATOM      1  C   UNL     1       4.529   4.434  18.502  0.00  0.00    +0.000 A 
ATOM      2  C   UNL     1       4.067   4.710  17.210  0.00  0.00    +0.000 A 
ATOM      3  C   UNL     1       4.952   4.980  16.161  0.00  0.00    +0.000 A 
ATOM      4  C   UNL     1       6.335   4.994  16.363  0.00  0.00    +0.000 A 
ATOM      5  C   UNL     1       6.805   4.695  17.640  0.00  0.00    +0.000 A 
ATOM      6  C   UNL     1       5.915   4.425  18.693  0.00  0.00    +0.000 A 
ENDROOT
BRANCH   4   7
ATOM      7  N   UNL     1       7.142   5.381  15.282  0.00  0.00    +0.000 N 
ATOM      8  C   UNL     1       7.230   4.895  14.023  0.00  0.00    +0.000 C 
ATOM      9  N   UNL     1       6.670   3.887  13.464  0.00  0.00    +0.000 NA
ATOM     10  N   UNL     1       8.123   5.586  13.272  0.00  0.00    +0.000 N 
ATOM     11  H   UNL     1       7.677   6.221  15.456  0.00  0.00    +0.000 HD
ATOM     12  H   UNL     1       6.086   3.406  14.154  0.00  0.00    +0.000 HD
ATOM     13  H   UNL     1       9.039   5.615  13.701  0.00  0.00    +0.000 HD
ATOM     14  H   UNL     1       8.202   5.118  12.375  0.00  0.00    +0.000 HD
ENDBRANCH   4   7
BRANCH   1  15
ATOM     15  N   UNL     1       3.656   4.193  19.577  0.00  0.00    +0.000 N 
BRANCH  15  17
ATOM     16  C   UNL     1       3.256   1.836  18.858  0.00  0.00    +0.000 C 
ATOM     17  C   UNL     1       3.524   2.794  20.012  0.00  0.00    +0.000 C 
ENDBRANCH  15  17
BRANCH  15  18
ATOM     18  C   UNL     1       2.458   5.059  19.617  0.00  0.00    +0.000 C 
ATOM     19  C   UNL     1       1.363   4.549  20.549  0.00  0.00    +0.000 C 
ENDBRANCH  15  18
ENDBRANCH   1  15
TORSDOF 4
ENDMDL
MODEL 6
REMARK VINA RESULT:      -5.8      2.102      6.332
REMARK  Name = 
REMARK  6 active torsions:
REMARK  status: ('A' for Active; 'I' for Inactive)
REMARK    1  A    between atoms: C_1  and  C_2
REMARK    2  A    between atoms: C_2  and  N_3
REMARK    3  A    between atoms: N_3  and  C_4
REMARK    4  A    between atoms: N_3  and  C_6
REMARK    5  A    between atoms: C_4  and  C_5
REMARK    6  A    between atoms: C_9  and  N_10
REMARK                            x       y       z     vdW  Elec       q    Type
REMARK                         _______ _______ _______ _____ _____    ______ ____
ROOT
ATOM      1  C   UNL     1       3.324   4.968  17.866  0.00  0.00    +0.000 A 
ATOM      2  C   UNL     1       4.088   3.918  17.341  0.00  0.00    +0.000 A 
ATOM      3  C   UNL     1       5.190   4.162  16.515  0.00  0.00    +0.000 A 
ATOM      4  C   UNL     1       5.570   5.463  16.174  0.00  0.00    +0.000 A 
ATOM      5  C   UNL     1       4.831   6.514  16.713  0.00  0.00    +0.000 A 
ATOM      6  C   UNL     1       3.723   6.269  17.541  0.00  0.00    +0.000 A 
ENDROOT
BRANCH   4   7
ATOM      7  N   UNL     1       6.620   5.610  15.255  0.00  0.00    +0.000 N 
ATOM      8  C   UNL     1       6.947   4.887  14.160  0.00  0.00    +0.000 C 
ATOM      9  N   UNL     1       6.453   3.806  13.682  0.00  0.00    +0.000 NA
ATOM     10  N   UNL     1       8.031   5.393  13.520  0.00  0.00    +0.000 N 
ATOM     11  H   UNL     1       7.162   6.453  15.389  0.00  0.00    +0.000 HD
ATOM     12  H   UNL     1       5.699   3.485  14.296  0.00  0.00    +0.000 HD
ATOM     13  H   UNL     1       8.829   5.479  14.135  0.00  0.00    +0.000 HD
ATOM     14  H   UNL     1       8.271   4.757  12.766  0.00  0.00    +0.000 HD
ENDBRANCH   4   7
BRANCH   1  15
ATOM     15  N   UNL     1       2.193   4.745  18.670  0.00  0.00    +0.000 N 
BRANCH  15  17
ATOM     16  C   UNL     1       1.737   6.107  20.712  0.00  0.00    +0.000 C 
ATOM     17  C   UNL     1       2.389   4.863  20.123  0.00  0.00    +0.000 C 
ENDBRANCH  15  17
BRANCH  15  18
ATOM     18  C   UNL     1       1.262   3.713  18.167  0.00  0.00    +0.000 C 
ATOM     19  C   UNL     1       1.084   2.531  19.117  0.00  0.00    +0.000 C 
ENDBRANCH  15  18
ENDBRANCH   1  15
TORSDOF 4
ENDMDL
MODEL 7
REMARK VINA RESULT:      -5.8      1.689      6.144
REMARK  Name = 
REMARK  6 active torsions:
REMARK  status: ('A' for Active; 'I' for Inactive)
REMARK    1  A    between atoms: C_1  and  C_2
REMARK    2  A    between atoms: C_2  and  N_3
REMARK    3  A    between atoms: N_3  and  C_4
REMARK    4  A    between atoms: N_3  and  C_6
REMARK    5  A    between atoms: C_4  and  C_5
REMARK    6  A    between atoms: C_9  and  N_10
REMARK                            x       y       z     vdW  Elec       q    Type
REMARK                         _______ _______ _______ _____ _____    ______ ____
ROOT
ATOM      1  C   UNL     1       3.360   4.543  19.311  0.00  0.00    +0.000 A 
ATOM      2  C   UNL     1       4.360   5.520  19.248  0.00  0.00    +0.000 A 
ATOM      3  C   UNL     1       5.083   5.749  18.073  0.00  0.00    +0.000 A 
ATOM      4  C   UNL     1       4.840   5.006  16.914  0.00  0.00    +0.000 A 
ATOM      5  C   UNL     1       3.828   4.050  16.960  0.00  0.00    +0.000 A 
ATOM      6  C   UNL     1       3.104   3.818  18.141  0.00  0.00    +0.000 A 
ENDROOT
BRANCH   4   7
ATOM      7  N   UNL     1       5.684   5.228  15.815  0.00  0.00    +0.000 N 
ATOM      8  C   UNL     1       6.991   4.936  15.628  0.00  0.00    +0.000 C 
ATOM      9  N   UNL     1       7.870   4.449  16.422  0.00  0.00    +0.000 NA
ATOM     10  N   UNL     1       7.421   5.293  14.392  0.00  0.00    +0.000 N 
ATOM     11  H   UNL     1       5.203   5.584  15.000  0.00  0.00    +0.000 HD
ATOM     12  H   UNL     1       7.443   4.299  17.340  0.00  0.00    +0.000 HD
ATOM     13  H   UNL     1       7.249   6.271  14.198  0.00  0.00    +0.000 HD
ATOM     14  H   UNL     1       8.421   5.127  14.352  0.00  0.00    +0.000 HD
ENDBRANCH   4   7
BRANCH   1  15
ATOM     15  N   UNL     1       2.645   4.273  20.491  0.00  0.00    +0.000 N 
BRANCH  15  17
ATOM     16  C   UNL     1       1.516   2.455  21.776  0.00  0.00    +0.000 C 
ATOM     17  C   UNL     1       2.764   2.910  21.031  0.00  0.00    +0.000 C 
ENDBRANCH  15  17
BRANCH  15  18
ATOM     18  C   UNL     1       1.343   4.965  20.606  0.00  0.00    +0.000 C 
ATOM     19  C   UNL     1       1.464   6.481  20.734  0.00  0.00    +0.000 C 
ENDBRANCH  15  18
ENDBRANCH   1  15
TORSDOF 4
ENDMDL
MODEL 8
REMARK VINA RESULT:      -5.8      1.996      6.113
REMARK  Name = 
REMARK  6 active torsions:
REMARK  status: ('A' for Active; 'I' for Inactive)
REMARK    1  A    between atoms: C_1  and  C_2
REMARK    2  A    between atoms: C_2  and  N_3
REMARK    3  A    between atoms: N_3  and  C_4
REMARK    4  A    between atoms: N_3  and  C_6
REMARK    5  A    between atoms: C_4  and  C_5
REMARK    6  A    between atoms: C_9  and  N_10
REMARK                            x       y       z     vdW  Elec       q    Type
REMARK                         _______ _______ _______ _____ _____    ______ ____
ROOT
ATOM      1  C   UNL     1       4.384   4.436  18.472  0.00  0.00    +0.000 A 
ATOM      2  C   UNL     1       5.770   4.316  18.632  0.00  0.00    +0.000 A 
ATOM      3  C   UNL     1       6.658   4.726  17.633  0.00  0.00    +0.000 A 
ATOM      4  C   UNL     1       6.197   5.267  16.428  0.00  0.00    +0.000 A 
ATOM      5  C   UNL     1       4.821   5.413  16.271  0.00  0.00    +0.000 A 
ATOM      6  C   UNL     1       3.929   4.999  17.275  0.00  0.00    +0.000 A 
ENDROOT
BRANCH   4   7
ATOM      7  N   UNL     1       7.152   5.550  15.440  0.00  0.00    +0.000 N 
ATOM      8  C   UNL     1       7.272   5.103  14.170  0.00  0.00    +0.000 C 
ATOM      9  N   UNL     1       6.606   4.226  13.516  0.00  0.00    +0.000 NA
ATOM     10  N   UNL     1       8.333   5.659  13.532  0.00  0.00    +0.000 N 
ATOM     11  H   UNL     1       7.801   6.280  15.701  0.00  0.00    +0.000 HD
ATOM     12  H   UNL     1       5.890   3.826  14.129  0.00  0.00    +0.000 HD
ATOM     13  H   UNL     1       9.198   5.516  14.038  0.00  0.00    +0.000 HD
ATOM     14  H   UNL     1       8.415   5.217  12.622  0.00  0.00    +0.000 HD
ENDBRANCH   4   7
BRANCH   1  15
ATOM     15  N   UNL     1       3.474   3.998  19.449  0.00  0.00    +0.000 N 
BRANCH  15  17
ATOM     16  C   UNL     1       3.336   1.639  18.646  0.00  0.00    +0.000 C 
ATOM     17  C   UNL     1       3.549   2.579  19.826  0.00  0.00    +0.000 C 
ENDBRANCH  15  17
BRANCH  15  18
ATOM     18  C   UNL     1       2.144   4.644  19.399  0.00  0.00    +0.000 C 
ATOM     19  C   UNL     1       1.886   5.607  20.554  0.00  0.00    +0.000 C 
ENDBRANCH  15  18
ENDBRANCH   1  15
TORSDOF 4
ENDMDL
MODEL 9
REMARK VINA RESULT:      -5.8      2.226      6.373
REMARK  Name = 
REMARK  6 active torsions:
REMARK  status: ('A' for Active; 'I' for Inactive)
REMARK    1  A    between atoms: C_1  and  C_2
REMARK    2  A    between atoms: C_2  and  N_3
REMARK    3  A    between atoms: N_3  and  C_4
REMARK    4  A    between atoms: N_3  and  C_6
REMARK    5  A    between atoms: C_4  and  C_5
REMARK    6  A    between atoms: C_9  and  N_10
REMARK                            x       y       z     vdW  Elec       q    Type
REMARK                         _______ _______ _______ _____ _____    ______ ____
ROOT
ATOM      1  C   UNL     1       3.903   4.609  17.758  0.00  0.00    +0.000 A 
ATOM      2  C   UNL     1       4.289   5.921  17.457  0.00  0.00    +0.000 A 
ATOM      3  C   UNL     1       5.286   6.189  16.514  0.00  0.00    +0.000 A 
ATOM      4  C   UNL     1       5.944   5.158  15.838  0.00  0.00    +0.000 A 
ATOM      5  C   UNL     1       5.548   3.851  16.112  0.00  0.00    +0.000 A 
ATOM      6  C   UNL     1       4.547   3.581  17.061  0.00  0.00    +0.000 A 
ENDROOT
BRANCH   4   7
ATOM      7  N   UNL     1       7.005   5.514  14.991  0.00  0.00    +0.000 N 
ATOM      8  C   UNL     1       7.327   5.089  13.748  0.00  0.00    +0.000 C 
ATOM      9  N   UNL     1       6.816   4.178  13.007  0.00  0.00    +0.000 NA
ATOM     10  N   UNL     1       8.426   5.720  13.264  0.00  0.00    +0.000 N 
ATOM     11  H   UNL     1       7.562   6.281  15.340  0.00  0.00    +0.000 HD
ATOM     12  H   UNL     1       6.051   3.726  13.515  0.00  0.00    +0.000 HD
ATOM     13  H   UNL     1       9.221   5.628  13.883  0.00  0.00    +0.000 HD
ATOM     14  H   UNL     1       8.660   5.294  12.373  0.00  0.00    +0.000 HD
ENDBRANCH   4   7
BRANCH   1  15
ATOM     15  N   UNL     1       2.927   4.316  18.726  0.00  0.00    +0.000 N 
BRANCH  15  17
ATOM     16  C   UNL     1       1.042   2.683  18.603  0.00  0.00    +0.000 C 
ATOM     17  C   UNL     1       1.566   4.063  18.228  0.00  0.00    +0.000 C 
ENDBRANCH  15  17
BRANCH  15  18
ATOM     18  C   UNL     1       3.086   5.031  20.011  0.00  0.00    +0.000 C 
ATOM     19  C   UNL     1       1.825   5.761  20.466  0.00  0.00    +0.000 C 
ENDBRANCH  15  18
ENDBRANCH   1  15
TORSDOF 4
ENDMDL
