MODEL 1
REMARK VINA RESULT:      -8.0      0.000      0.000
REMARK  Name = 
REMARK  6 active torsions:
REMARK  status: ('A' for Active; 'I' for Inactive)
REMARK    1  A    between atoms: C_1  and  C_2
REMARK    2  A    between atoms: C_2  and  C_3
REMARK    3  A    between atoms: C_8  and  C_9
REMARK    4  A    between atoms: C_12  and  C_13
REMARK    5  A    between atoms: C_17  and  C_18
REMARK    6  A    between atoms: C_21  and  C_22
REMARK                            x       y       z     vdW  Elec       q    Type
REMARK                         _______ _______ _______ _____ _____    ______ ____
ROOT
ATOM      1  C   UNL     1       6.302   3.876  13.074  0.00  0.00    +0.000 C 
ATOM      2  O   UNL     1       5.179   3.419  13.266  0.00  0.00    +0.000 OA
ATOM      3  N   UNL     1       6.981   4.743  13.904  0.00  0.00    +0.000 N 
ATOM      4  C   UNL     1       6.515   5.137  15.152  0.00  0.00    +0.000 A 
ATOM      5  N   UNL     1       5.470   4.510  15.685  0.00  0.00    +0.000 NA
ATOM      6  C   UNL     1       5.013   4.913  16.876  0.00  0.00    +0.000 A 
ATOM      7  C   UNL     1       5.624   5.936  17.561  0.00  0.00    +0.000 A 
ATOM      8  C   UNL     1       6.734   6.518  16.972  0.00  0.00    +0.000 A 
ATOM      9  N   UNL     1       7.189   6.126  15.757  0.00  0.00    +0.000 NA
ATOM     10  H   UNL     1       7.830   5.201  13.607  0.00  0.00    +0.000 HD
ENDROOT
BRANCH   6  11
ATOM     11  C   UNL     1       3.837   4.185  17.384  0.00  0.00    +0.000 A 
ATOM     12  C   UNL     1       2.682   4.883  17.785  0.00  0.00    +0.000 A 
ATOM     13  C   UNL     1       1.560   4.214  18.279  0.00  0.00    +0.000 A 
ATOM     14  C   UNL     1       1.565   2.822  18.395  0.00  0.00    +0.000 A 
ATOM     15  C   UNL     1       0.383   2.088  18.952  0.00  0.00    +0.000 C 
ATOM     16  C   UNL     1       2.705   2.114  18.006  0.00  0.00    +0.000 A 
ATOM     17  C   UNL     1       3.823   2.787  17.509  0.00  0.00    +0.000 A 
ENDBRANCH   6  11
BRANCH   8  18
ATOM     18  C   UNL     1       7.461   7.615  17.646  0.00  0.00    +0.000 A 
ATOM     19  C   UNL     1       7.339   8.950  17.211  0.00  0.00    +0.000 A 
ATOM     20  C   UNL     1       8.061   9.987  17.807  0.00  0.00    +0.000 A 
ATOM     21  C   UNL     1       8.921   9.724  18.872  0.00  0.00    +0.000 A 
ATOM     22  C   UNL     1       9.696  10.831  19.522  0.00  0.00    +0.000 C 
ATOM     23  C   UNL     1       9.047   8.408  19.328  0.00  0.00    +0.000 A 
ATOM     24  C   UNL     1       8.326   7.370  18.725  0.00  0.00    +0.000 A 
ENDBRANCH   8  18
BRANCH   1  26
ATOM     25  C   UNL     1       6.757   2.080  11.390  0.00  0.00    +0.000 C 
ATOM     26  C   UNL     1       7.090   3.498  11.835  0.00  0.00    +0.000 C 
ENDBRANCH   1  26
TORSDOF 3
ENDMDL
MODEL 2
REMARK VINA RESULT:      -7.9      0.069      1.361
REMARK  Name = 
REMARK  6 active torsions:
REMARK  status: ('A' for Active; 'I' for Inactive)
REMARK    1  A    between atoms: C_1  and  C_2
REMARK    2  A    between atoms: C_2  and  C_3
REMARK    3  A    between atoms: C_8  and  C_9
REMARK    4  A    between atoms: C_12  and  C_13
REMARK    5  A    between atoms: C_17  and  C_18
REMARK    6  A    between atoms: C_21  and  C_22
REMARK                            x       y       z     vdW  Elec       q    Type
REMARK                         _______ _______ _______ _____ _____    ______ ____
ROOT
ATOM      1  C   UNL     1       6.228   3.836  13.078  0.00  0.00    +0.000 C 
ATOM      2  O   UNL     1       5.100   3.398  13.289  0.00  0.00    +0.000 OA
ATOM      3  N   UNL     1       6.933   4.696  13.892  0.00  0.00    +0.000 N 
ATOM      4  C   UNL     1       6.491   5.106  15.144  0.00  0.00    +0.000 A 
ATOM      5  N   UNL     1       5.444   4.499  15.696  0.00  0.00    +0.000 NA
ATOM      6  C   UNL     1       5.011   4.916  16.892  0.00  0.00    +0.000 A 
ATOM      7  C   UNL     1       5.648   5.933  17.561  0.00  0.00    +0.000 A 
ATOM      8  C   UNL     1       6.758   6.494  16.952  0.00  0.00    +0.000 A 
ATOM      9  N   UNL     1       7.189   6.087  15.733  0.00  0.00    +0.000 NA
ATOM     10  H   UNL     1       7.784   5.139  13.580  0.00  0.00    +0.000 HD
ENDROOT
BRANCH   6  11
ATOM     11  C   UNL     1       3.831   4.211  17.421  0.00  0.00    +0.000 A 
ATOM     12  C   UNL     1       3.816   2.806  17.506  0.00  0.00    +0.000 A 
ATOM     13  C   UNL     1       2.703   2.117  17.995  0.00  0.00    +0.000 A 
ATOM     14  C   UNL     1       1.567   2.816  18.407  0.00  0.00    +0.000 A 
ATOM     15  C   UNL     1       0.351   2.095  18.904  0.00  0.00    +0.000 C 
ATOM     16  C   UNL     1       1.563   4.211  18.324  0.00  0.00    +0.000 A 
ATOM     17  C   UNL     1       2.679   4.896  17.838  0.00  0.00    +0.000 A 
ENDBRANCH   6  11
BRANCH   8  18
ATOM     18  C   UNL     1       7.513   7.583  17.608  0.00  0.00    +0.000 A 
ATOM     19  C   UNL     1       8.346   7.331  18.717  0.00  0.00    +0.000 A 
ATOM     20  C   UNL     1       9.023   8.360  19.378  0.00  0.00    +0.000 A 
ATOM     21  C   UNL     1       8.901   9.677  18.938  0.00  0.00    +0.000 A 
ATOM     22  C   UNL     1       9.629  10.787  19.637  0.00  0.00    +0.000 C 
ATOM     23  C   UNL     1       8.091   9.948  17.831  0.00  0.00    +0.000 A 
ATOM     24  C   UNL     1       7.409   8.915  17.175  0.00  0.00    +0.000 A 
ENDBRANCH   8  18
BRANCH   1  26
ATOM     25  C   UNL     1       6.641   2.017  11.408  0.00  0.00    +0.000 C 
ATOM     26  C   UNL     1       6.992   3.437  11.830  0.00  0.00    +0.000 C 
ENDBRANCH   1  26
TORSDOF 3
ENDMDL
MODEL 3
REMARK VINA RESULT:      -7.7      1.574      6.660
REMARK  Name = 
REMARK  6 active torsions:
REMARK  status: ('A' for Active; 'I' for Inactive)
REMARK    1  A    between atoms: C_1  and  C_2
REMARK    2  A    between atoms: C_2  and  C_3
REMARK    3  A    between atoms: C_8  and  C_9
REMARK    4  A    between atoms: C_12  and  C_13
REMARK    5  A    between atoms: C_17  and  C_18
REMARK    6  A    between atoms: C_21  and  C_22
REMARK                            x       y       z     vdW  Elec       q    Type
REMARK                         _______ _______ _______ _____ _____    ______ ____
ROOT
ATOM      1  C   UNL     1       7.061   4.790  13.841  0.00  0.00    +0.000 C 
ATOM      2  O   UNL     1       7.983   5.572  14.053  0.00  0.00    +0.000 OA
ATOM      3  N   UNL     1       6.080   4.426  14.739  0.00  0.00    +0.000 N 
ATOM      4  C   UNL     1       5.941   4.994  15.999  0.00  0.00    +0.000 A 
ATOM      5  N   UNL     1       6.642   6.083  16.304  0.00  0.00    +0.000 NA
ATOM      6  C   UNL     1       6.520   6.610  17.528  0.00  0.00    +0.000 A 
ATOM      7  C   UNL     1       5.664   6.061  18.452  0.00  0.00    +0.000 A 
ATOM      8  C   UNL     1       4.929   4.956  18.058  0.00  0.00    +0.000 A 
ATOM      9  N   UNL     1       5.064   4.408  16.826  0.00  0.00    +0.000 NA
ATOM     10  H   UNL     1       5.449   3.661  14.550  0.00  0.00    +0.000 HD
ENDROOT
BRANCH   6  11
ATOM     11  C   UNL     1       7.351   7.797  17.794  0.00  0.00    +0.000 A 
ATOM     12  C   UNL     1       8.416   7.732  18.712  0.00  0.00    +0.000 A 
ATOM     13  C   UNL     1       9.210   8.849  18.987  0.00  0.00    +0.000 A 
ATOM     14  C   UNL     1       8.953  10.068  18.356  0.00  0.00    +0.000 A 
ATOM     15  C   UNL     1       9.772  11.285  18.661  0.00  0.00    +0.000 C 
ATOM     16  C   UNL     1       7.896  10.150  17.446  0.00  0.00    +0.000 A 
ATOM     17  C   UNL     1       7.107   9.031  17.171  0.00  0.00    +0.000 A 
ENDBRANCH   6  11
BRANCH   8  18
ATOM     18  C   UNL     1       3.973   4.312  18.985  0.00  0.00    +0.000 A 
ATOM     19  C   UNL     1       3.133   5.078  19.818  0.00  0.00    +0.000 A 
ATOM     20  C   UNL     1       2.263   4.481  20.735  0.00  0.00    +0.000 A 
ATOM     21  C   UNL     1       2.193   3.092  20.836  0.00  0.00    +0.000 A 
ATOM     22  C   UNL     1       1.258   2.443  21.812  0.00  0.00    +0.000 C 
ATOM     23  C   UNL     1       3.008   2.313  20.009  0.00  0.00    +0.000 A 
ATOM     24  C   UNL     1       3.883   2.915  19.095  0.00  0.00    +0.000 A 
ENDBRANCH   8  18
BRANCH   1  26
ATOM     25  C   UNL     1       5.613   3.323  12.419  0.00  0.00    +0.000 C 
ATOM     26  C   UNL     1       6.907   4.122  12.489  0.00  0.00    +0.000 C 
ENDBRANCH   1  26
TORSDOF 3
ENDMDL
MODEL 4
REMARK VINA RESULT:      -7.6      4.276      6.998
REMARK  Name = 
REMARK  6 active torsions:
REMARK  status: ('A' for Active; 'I' for Inactive)
REMARK    1  A    between atoms: C_1  and  C_2
REMARK    2  A    between atoms: C_2  and  C_3
REMARK    3  A    between atoms: C_8  and  C_9
REMARK    4  A    between atoms: C_12  and  C_13
REMARK    5  A    between atoms: C_17  and  C_18
REMARK    6  A    between atoms: C_21  and  C_22
REMARK                            x       y       z     vdW  Elec       q    Type
REMARK                         _______ _______ _______ _____ _____    ______ ____
ROOT
ATOM      1  C   UNL     1       3.115   3.030  20.756  0.00  0.00    +0.000 C 
ATOM      2  O   UNL     1       4.060   2.691  20.047  0.00  0.00    +0.000 OA
ATOM      3  N   UNL     1       2.454   4.238  20.707  0.00  0.00    +0.000 N 
ATOM      4  C   UNL     1       2.706   5.216  19.751  0.00  0.00    +0.000 A 
ATOM      5  N   UNL     1       3.468   4.919  18.702  0.00  0.00    +0.000 NA
ATOM      6  C   UNL     1       3.725   5.874  17.799  0.00  0.00    +0.000 A 
ATOM      7  C   UNL     1       3.190   7.133  17.928  0.00  0.00    +0.000 A 
ATOM      8  C   UNL     1       2.369   7.364  19.019  0.00  0.00    +0.000 A 
ATOM      9  N   UNL     1       2.121   6.406  19.946  0.00  0.00    +0.000 NA
ATOM     10  H   UNL     1       1.795   4.508  21.422  0.00  0.00    +0.000 HD
ENDROOT
BRANCH   6  11
ATOM     11  C   UNL     1       4.598   5.473  16.683  0.00  0.00    +0.000 A 
ATOM     12  C   UNL     1       5.130   6.439  15.809  0.00  0.00    +0.000 A 
ATOM     13  C   UNL     1       5.952   6.081  14.738  0.00  0.00    +0.000 A 
ATOM     14  C   UNL     1       6.259   4.738  14.505  0.00  0.00    +0.000 A 
ATOM     15  C   UNL     1       7.113   4.329  13.343  0.00  0.00    +0.000 C 
ATOM     16  C   UNL     1       5.736   3.765  15.361  0.00  0.00    +0.000 A 
ATOM     17  C   UNL     1       4.917   4.129  16.432  0.00  0.00    +0.000 A 
ENDBRANCH   6  11
BRANCH   8  18
ATOM     18  C   UNL     1       1.740   8.686  19.227  0.00  0.00    +0.000 A 
ATOM     19  C   UNL     1       1.063   8.995  20.424  0.00  0.00    +0.000 A 
ATOM     20  C   UNL     1       0.420  10.221  20.612  0.00  0.00    +0.000 A 
ATOM     21  C   UNL     1       0.447  11.189  19.608  0.00  0.00    +0.000 A 
ATOM     22  C   UNL     1      -0.235  12.511  19.803  0.00  0.00    +0.000 C 
ATOM     23  C   UNL     1       1.125  10.909  18.418  0.00  0.00    +0.000 A 
ATOM     24  C   UNL     1       1.763   9.676  18.232  0.00  0.00    +0.000 A 
ENDBRANCH   8  18
BRANCH   1  26
ATOM     25  C   UNL     1       1.119   2.449  22.150  0.00  0.00    +0.000 C 
ATOM     26  C   UNL     1       2.557   2.087  21.804  0.00  0.00    +0.000 C 
ENDBRANCH   1  26
TORSDOF 3
ENDMDL
MODEL 5
REMARK VINA RESULT:      -7.5      4.358      7.063
REMARK  Name = 
REMARK  6 active torsions:
REMARK  status: ('A' for Active; 'I' for Inactive)
REMARK    1  A    between atoms: C_1  and  C_2
REMARK    2  A    between atoms: C_2  and  C_3
REMARK    3  A    between atoms: C_8  and  C_9
REMARK    4  A    between atoms: C_12  and  C_13
REMARK    5  A    between atoms: C_17  and  C_18
REMARK    6  A    between atoms: C_21  and  C_22
REMARK                            x       y       z     vdW  Elec       q    Type
REMARK                         _______ _______ _______ _____ _____    ______ ____
ROOT
ATOM      1  C   UNL     1       3.021   3.022  20.789  0.00  0.00    +0.000 C 
ATOM      2  O   UNL     1       3.970   2.711  20.075  0.00  0.00    +0.000 OA
ATOM      3  N   UNL     1       2.348   4.225  20.770  0.00  0.00    +0.000 N 
ATOM      4  C   UNL     1       2.594   5.230  19.843  0.00  0.00    +0.000 A 
ATOM      5  N   UNL     1       3.362   4.970  18.788  0.00  0.00    +0.000 NA
ATOM      6  C   UNL     1       3.613   5.950  17.913  0.00  0.00    +0.000 A 
ATOM      7  C   UNL     1       3.066   7.201  18.074  0.00  0.00    +0.000 A 
ATOM      8  C   UNL     1       2.240   7.395  19.168  0.00  0.00    +0.000 A 
ATOM      9  N   UNL     1       1.998   6.410  20.067  0.00  0.00    +0.000 NA
ATOM     10  H   UNL     1       1.685   4.470  21.490  0.00  0.00    +0.000 HD
ENDROOT
BRANCH   6  11
ATOM     11  C   UNL     1       4.494   5.588  16.789  0.00  0.00    +0.000 A 
ATOM     12  C   UNL     1       4.790   4.239  16.518  0.00  0.00    +0.000 A 
ATOM     13  C   UNL     1       5.631   3.874  15.464  0.00  0.00    +0.000 A 
ATOM     14  C   UNL     1       6.209   4.854  14.653  0.00  0.00    +0.000 A 
ATOM     15  C   UNL     1       7.139   4.485  13.538  0.00  0.00    +0.000 C 
ATOM     16  C   UNL     1       5.929   6.198  14.911  0.00  0.00    +0.000 A 
ATOM     17  C   UNL     1       5.085   6.558  15.964  0.00  0.00    +0.000 A 
ENDBRANCH   6  11
BRANCH   8  18
ATOM     18  C   UNL     1       1.597   8.705  19.409  0.00  0.00    +0.000 A 
ATOM     19  C   UNL     1       1.544   9.690  18.403  0.00  0.00    +0.000 A 
ATOM     20  C   UNL     1       0.986  10.950  18.635  0.00  0.00    +0.000 A 
ATOM     21  C   UNL     1       0.446  11.261  19.883  0.00  0.00    +0.000 A 
ATOM     22  C   UNL     1      -0.160  12.608  20.140  0.00  0.00    +0.000 C 
ATOM     23  C   UNL     1       0.476  10.292  20.891  0.00  0.00    +0.000 A 
ATOM     24  C   UNL     1       1.041   9.033  20.656  0.00  0.00    +0.000 A 
ENDBRANCH   8  18
BRANCH   1  26
ATOM     25  C   UNL     1       1.075   2.463  22.261  0.00  0.00    +0.000 C 
ATOM     26  C   UNL     1       2.468   2.046  21.809  0.00  0.00    +0.000 C 
ENDBRANCH   1  26
TORSDOF 3
ENDMDL
MODEL 6
REMARK VINA RESULT:      -7.5      8.006     10.195
REMARK  Name = 
REMARK  6 active torsions:
REMARK  status: ('A' for Active; 'I' for Inactive)
REMARK    1  A    between atoms: C_1  and  C_2
REMARK    2  A    between atoms: C_2  and  C_3
REMARK    3  A    between atoms: C_8  and  C_9
REMARK    4  A    between atoms: C_12  and  C_13
REMARK    5  A    between atoms: C_17  and  C_18
REMARK    6  A    between atoms: C_21  and  C_22
REMARK                            x       y       z     vdW  Elec       q    Type
REMARK                         _______ _______ _______ _____ _____    ______ ____
ROOT
ATOM      1  C   UNL     1       1.127  14.916  18.725  0.00  0.00    +0.000 C 
ATOM      2  O   UNL     1      -0.063  15.187  18.862  0.00  0.00    +0.000 OA
ATOM      3  N   UNL     1       1.669  13.650  18.650  0.00  0.00    +0.000 N 
ATOM      4  C   UNL     1       0.909  12.488  18.610  0.00  0.00    +0.000 A 
ATOM      5  N   UNL     1      -0.406  12.576  18.427  0.00  0.00    +0.000 NA
ATOM      6  C   UNL     1      -1.133  11.453  18.413  0.00  0.00    +0.000 A 
ATOM      7  C   UNL     1      -0.538  10.222  18.553  0.00  0.00    +0.000 A 
ATOM      8  C   UNL     1       0.839  10.196  18.696  0.00  0.00    +0.000 A 
ATOM      9  N   UNL     1       1.577  11.332  18.729  0.00  0.00    +0.000 NA
ATOM     10  H   UNL     1       2.666  13.500  18.699  0.00  0.00    +0.000 HD
ENDROOT
BRANCH   6  11
ATOM     11  C   UNL     1      -2.584  11.637  18.233  0.00  0.00    +0.000 A 
ATOM     12  C   UNL     1      -3.379  12.123  19.288  0.00  0.00    +0.000 A 
ATOM     13  C   UNL     1      -4.757  12.296  19.143  0.00  0.00    +0.000 A 
ATOM     14  C   UNL     1      -5.383  11.978  17.935  0.00  0.00    +0.000 A 
ATOM     15  C   UNL     1      -6.865  12.126  17.769  0.00  0.00    +0.000 C 
ATOM     16  C   UNL     1      -4.609  11.490  16.879  0.00  0.00    +0.000 A 
ATOM     17  C   UNL     1      -3.231  11.323  17.028  0.00  0.00    +0.000 A 
ENDBRANCH   6  11
BRANCH   8  18
ATOM     18  C   UNL     1       1.562   8.914  18.837  0.00  0.00    +0.000 A 
ATOM     19  C   UNL     1       1.510   8.172  20.034  0.00  0.00    +0.000 A 
ATOM     20  C   UNL     1       2.230   6.986  20.198  0.00  0.00    +0.000 A 
ATOM     21  C   UNL     1       3.017   6.493  19.158  0.00  0.00    +0.000 A 
ATOM     22  C   UNL     1       3.789   5.217  19.322  0.00  0.00    +0.000 C 
ATOM     23  C   UNL     1       3.072   7.206  17.957  0.00  0.00    +0.000 A 
ATOM     24  C   UNL     1       2.353   8.397  17.799  0.00  0.00    +0.000 A 
ENDBRANCH   8  18
BRANCH   1  26
ATOM     25  C   UNL     1       3.227  15.659  17.583  0.00  0.00    +0.000 C 
ATOM     26  C   UNL     1       2.164  16.016  18.613  0.00  0.00    +0.000 C 
ENDBRANCH   1  26
TORSDOF 3
ENDMDL
MODEL 7
REMARK VINA RESULT:      -7.4      1.418      1.781
REMARK  Name = 
REMARK  6 active torsions:
REMARK  status: ('A' for Active; 'I' for Inactive)
REMARK    1  A    between atoms: C_1  and  C_2
REMARK    2  A    between atoms: C_2  and  C_3
REMARK    3  A    between atoms: C_8  and  C_9
REMARK    4  A    between atoms: C_12  and  C_13
REMARK    5  A    between atoms: C_17  and  C_18
REMARK    6  A    between atoms: C_21  and  C_22
REMARK                            x       y       z     vdW  Elec       q    Type
REMARK                         _______ _______ _______ _____ _____    ______ ____
ROOT
ATOM      1  C   UNL     1       6.158   4.177  14.078  0.00  0.00    +0.000 C 
ATOM      2  O   UNL     1       5.146   3.664  14.550  0.00  0.00    +0.000 OA
ATOM      3  N   UNL     1       6.905   5.182  14.654  0.00  0.00    +0.000 N 
ATOM      4  C   UNL     1       6.667   5.685  15.927  0.00  0.00    +0.000 A 
ATOM      5  N   UNL     1       5.817   5.050  16.730  0.00  0.00    +0.000 NA
ATOM      6  C   UNL     1       5.575   5.555  17.946  0.00  0.00    +0.000 A 
ATOM      7  C   UNL     1       6.212   6.693  18.379  0.00  0.00    +0.000 A 
ATOM      8  C   UNL     1       7.117   7.282  17.513  0.00  0.00    +0.000 A 
ATOM      9  N   UNL     1       7.351   6.784  16.274  0.00  0.00    +0.000 NA
ATOM     10  H   UNL     1       7.627   5.663  14.140  0.00  0.00    +0.000 HD
ENDROOT
BRANCH   6  11
ATOM     11  C   UNL     1       4.603   4.808  18.762  0.00  0.00    +0.000 A 
ATOM     12  C   UNL     1       3.704   5.488  19.604  0.00  0.00    +0.000 A 
ATOM     13  C   UNL     1       2.781   4.799  20.394  0.00  0.00    +0.000 A 
ATOM     14  C   UNL     1       2.737   3.403  20.371  0.00  0.00    +0.000 A 
ATOM     15  C   UNL     1       1.776   2.644  21.234  0.00  0.00    +0.000 C 
ATOM     16  C   UNL     1       3.626   2.712  19.544  0.00  0.00    +0.000 A 
ATOM     17  C   UNL     1       4.545   3.405  18.753  0.00  0.00    +0.000 A 
ENDBRANCH   6  11
BRANCH   8  18
ATOM     18  C   UNL     1       7.858   8.501  17.904  0.00  0.00    +0.000 A 
ATOM     19  C   UNL     1       8.795   8.482  18.956  0.00  0.00    +0.000 A 
ATOM     20  C   UNL     1       9.463   9.638  19.369  0.00  0.00    +0.000 A 
ATOM     21  C   UNL     1       9.225  10.853  18.728  0.00  0.00    +0.000 A 
ATOM     22  C   UNL     1       9.940  12.099  19.160  0.00  0.00    +0.000 C 
ATOM     23  C   UNL     1       8.308  10.892  17.673  0.00  0.00    +0.000 A 
ATOM     24  C   UNL     1       7.637   9.732  17.266  0.00  0.00    +0.000 A 
ENDBRANCH   8  18
BRANCH   1  26
ATOM     25  C   UNL     1       5.652   2.961  11.949  0.00  0.00    +0.000 C 
ATOM     26  C   UNL     1       6.710   3.714  12.744  0.00  0.00    +0.000 C 
ENDBRANCH   1  26
TORSDOF 3
ENDMDL
MODEL 8
REMARK VINA RESULT:      -7.4      8.097     10.280
REMARK  Name = 
REMARK  6 active torsions:
REMARK  status: ('A' for Active; 'I' for Inactive)
REMARK    1  A    between atoms: C_1  and  C_2
REMARK    2  A    between atoms: C_2  and  C_3
REMARK    3  A    between atoms: C_8  and  C_9
REMARK    4  A    between atoms: C_12  and  C_13
REMARK    5  A    between atoms: C_17  and  C_18
REMARK    6  A    between atoms: C_21  and  C_22
REMARK                            x       y       z     vdW  Elec       q    Type
REMARK                         _______ _______ _______ _____ _____    ______ ____
ROOT
ATOM      1  C   UNL     1       1.042  15.055  18.757  0.00  0.00    +0.000 C 
ATOM      2  O   UNL     1      -0.143  15.304  18.965  0.00  0.00    +0.000 OA
ATOM      3  N   UNL     1       1.603  13.801  18.647  0.00  0.00    +0.000 N 
ATOM      4  C   UNL     1       0.863  12.624  18.647  0.00  0.00    +0.000 A 
ATOM      5  N   UNL     1      -0.462  12.687  18.543  0.00  0.00    +0.000 NA
ATOM      6  C   UNL     1      -1.167  11.550  18.568  0.00  0.00    +0.000 A 
ATOM      7  C   UNL     1      -0.542  10.331  18.670  0.00  0.00    +0.000 A 
ATOM      8  C   UNL     1       0.841  10.331  18.731  0.00  0.00    +0.000 A 
ATOM      9  N   UNL     1       1.559  11.481  18.724  0.00  0.00    +0.000 NA
ATOM     10  H   UNL     1       2.603  13.669  18.636  0.00  0.00    +0.000 HD
ENDROOT
BRANCH   6  11
ATOM     11  C   UNL     1      -2.629  11.708  18.475  0.00  0.00    +0.000 A 
ATOM     12  C   UNL     1      -3.321  11.291  17.323  0.00  0.00    +0.000 A 
ATOM     13  C   UNL     1      -4.705  11.441  17.209  0.00  0.00    +0.000 A 
ATOM     14  C   UNL     1      -5.438  12.022  18.246  0.00  0.00    +0.000 A 
ATOM     15  C   UNL     1      -6.919  12.221  18.131  0.00  0.00    +0.000 C 
ATOM     16  C   UNL     1      -4.766  12.446  19.396  0.00  0.00    +0.000 A 
ATOM     17  C   UNL     1      -3.382  12.291  19.506  0.00  0.00    +0.000 A 
ENDBRANCH   6  11
BRANCH   8  18
ATOM     18  C   UNL     1       1.596   9.062  18.825  0.00  0.00    +0.000 A 
ATOM     19  C   UNL     1       2.452   8.641  17.789  0.00  0.00    +0.000 A 
ATOM     20  C   UNL     1       3.130   7.420  17.844  0.00  0.00    +0.000 A 
ATOM     21  C   UNL     1       2.984   6.585  18.951  0.00  0.00    +0.000 A 
ATOM     22  C   UNL     1       3.712   5.275  19.022  0.00  0.00    +0.000 C 
ATOM     23  C   UNL     1       2.150   6.990  19.997  0.00  0.00    +0.000 A 
ATOM     24  C   UNL     1       1.468   8.212  19.935  0.00  0.00    +0.000 A 
ENDBRANCH   8  18
BRANCH   1  26
ATOM     25  C   UNL     1       3.299  15.679  17.872  0.00  0.00    +0.000 C 
ATOM     26  C   UNL     1       2.049  16.175  18.588  0.00  0.00    +0.000 C 
ENDBRANCH   1  26
TORSDOF 3
ENDMDL
MODEL 9
REMARK VINA RESULT:      -7.3      7.912     10.648
REMARK  Name = 
REMARK  6 active torsions:
REMARK  status: ('A' for Active; 'I' for Inactive)
REMARK    1  A    between atoms: C_1  and  C_2
REMARK    2  A    between atoms: C_2  and  C_3
REMARK    3  A    between atoms: C_8  and  C_9
REMARK    4  A    between atoms: C_12  and  C_13
REMARK    5  A    between atoms: C_17  and  C_18
REMARK    6  A    between atoms: C_21  and  C_22
REMARK                            x       y       z     vdW  Elec       q    Type
REMARK                         _______ _______ _______ _____ _____    ______ ____
ROOT
ATOM      1  C   UNL     1       2.752  13.959  18.439  0.00  0.00    +0.000 C 
ATOM      2  O   UNL     1       3.505  13.008  18.247  0.00  0.00    +0.000 OA
ATOM      3  N   UNL     1       1.380  13.901  18.553  0.00  0.00    +0.000 N 
ATOM      4  C   UNL     1       0.659  12.713  18.574  0.00  0.00    +0.000 A 
ATOM      5  N   UNL     1       1.309  11.559  18.697  0.00  0.00    +0.000 NA
ATOM      6  C   UNL     1       0.608  10.419  18.692  0.00  0.00    +0.000 A 
ATOM      7  C   UNL     1      -0.762  10.430  18.593  0.00  0.00    +0.000 A 
ATOM      8  C   UNL     1      -1.382  11.666  18.512  0.00  0.00    +0.000 A 
ATOM      9  N   UNL     1      -0.675  12.822  18.498  0.00  0.00    +0.000 NA
ATOM     10  H   UNL     1       0.814  14.737  18.550  0.00  0.00    +0.000 HD
ENDROOT
BRANCH   6  11
ATOM     11  C   UNL     1       1.404   9.184  18.806  0.00  0.00    +0.000 A 
ATOM     12  C   UNL     1       1.387   8.429  19.993  0.00  0.00    +0.000 A 
ATOM     13  C   UNL     1       2.142   7.261  20.125  0.00  0.00    +0.000 A 
ATOM     14  C   UNL     1       2.945   6.819  19.072  0.00  0.00    +0.000 A 
ATOM     15  C   UNL     1       3.787   5.586  19.204  0.00  0.00    +0.000 C 
ATOM     16  C   UNL     1       2.977   7.559  17.887  0.00  0.00    +0.000 A 
ATOM     17  C   UNL     1       2.218   8.724  17.758  0.00  0.00    +0.000 A 
ENDBRANCH   6  11
BRANCH   8  18
ATOM     18  C   UNL     1      -2.854  11.771  18.418  0.00  0.00    +0.000 A 
ATOM     19  C   UNL     1      -3.541  11.391  17.248  0.00  0.00    +0.000 A 
ATOM     20  C   UNL     1      -4.927  11.534  17.128  0.00  0.00    +0.000 A 
ATOM     21  C   UNL     1      -5.674  12.049  18.187  0.00  0.00    +0.000 A 
ATOM     22  C   UNL     1      -7.162  12.200  18.071  0.00  0.00    +0.000 C 
ATOM     23  C   UNL     1      -5.013  12.418  19.363  0.00  0.00    +0.000 A 
ATOM     24  C   UNL     1      -3.624  12.279  19.477  0.00  0.00    +0.000 A 
ENDBRANCH   8  18
BRANCH   1  26
ATOM     25  C   UNL     1       3.079  16.171  17.312  0.00  0.00    +0.000 C 
ATOM     26  C   UNL     1       3.303  15.365  18.584  0.00  0.00    +0.000 C 
ENDBRANCH   1  26
TORSDOF 3
ENDMDL
