MODEL 1
REMARK VINA RESULT:      -7.7      0.000      0.000
REMARK  Name = 
REMARK  9 active torsions:
REMARK  status: ('A' for Active; 'I' for Inactive)
REMARK    1  A    between atoms: C_1  and  O_2
REMARK    2  A    between atoms: O_2  and  N_3
REMARK    3  A    between atoms: N_3  and  C_4
REMARK    4  A    between atoms: C_6  and  C_7
REMARK    5  A    between atoms: N_9  and  O_10
REMARK    6  A    between atoms: N_11  and  S_12
REMARK    7  A    between atoms: S_12  and  C_15
REMARK    8  A    between atoms: C_18  and  O_19
REMARK    9  A    between atoms: O_19  and  C_20
REMARK                            x       y       z     vdW  Elec       q    Type
REMARK                         _______ _______ _______ _____ _____    ______ ____
ROOT
ATOM      1  S   UNL     1       0.756   9.076  21.072  0.00  0.00    +0.000 S 
ATOM      2  O   UNL     1       1.632   9.660  22.066  0.00  0.00    +0.000 OA
ATOM      3  O   UNL     1      -0.518   8.505  21.457  0.00  0.00    +0.000 OA
ENDROOT
BRANCH   1   4
ATOM      4  C   UNL     1       1.656   7.810  20.216  0.00  0.00    +0.000 A 
ATOM      5  C   UNL     1       1.746   6.524  20.758  0.00  0.00    +0.000 A 
ATOM      6  C   UNL     1       2.315   5.498  19.998  0.00  0.00    +0.000 A 
ATOM      7  C   UNL     1       2.782   5.751  18.705  0.00  0.00    +0.000 A 
ATOM      8  C   UNL     1       2.759   7.057  18.203  0.00  0.00    +0.000 A 
ATOM      9  C   UNL     1       2.173   8.085  18.947  0.00  0.00    +0.000 A 
BRANCH   7  10
ATOM     10  O   UNL     1       3.290   4.672  18.019  0.00  0.00    +0.000 OA
BRANCH  10  11
ATOM     11  C   UNL     1       4.622   4.650  17.668  0.00  0.00    +0.000 A 
ATOM     12  C   UNL     1       4.896   4.404  16.320  0.00  0.00    +0.000 A 
ATOM     13  C   UNL     1       6.215   4.359  15.866  0.00  0.00    +0.000 A 
ATOM     14  C   UNL     1       7.267   4.566  16.758  0.00  0.00    +0.000 A 
ATOM     15  C   UNL     1       6.999   4.850  18.096  0.00  0.00    +0.000 A 
ATOM     16  C   UNL     1       5.677   4.917  18.547  0.00  0.00    +0.000 A 
ENDBRANCH  10  11
ENDBRANCH   7  10
ENDBRANCH   1   4
BRANCH   1  20
ATOM     17  C   UNL     1      -1.674  11.468  19.768  0.00  0.00    +0.000 C 
ATOM     18  C   UNL     1      -0.738  12.114  20.785  0.00  0.00    +0.000 C 
ATOM     19  C   UNL     1       0.658  11.691  20.333  0.00  0.00    +0.000 C 
ATOM     20  N   UNL     1       0.465  10.273  19.899  0.00  0.00    +0.000 NA
ATOM     21  C   UNL     1      -0.910  10.212  19.291  0.00  0.00    +0.000 C 
BRANCH  19  22
ATOM     22  C   UNL     1       1.237  12.529  19.174  0.00  0.00    +0.000 C 
ATOM     23  O   UNL     1       0.955  13.713  18.968  0.00  0.00    +0.000 OA
ATOM     24  N   UNL     1       2.046  11.844  18.295  0.00  0.00    +0.000 N 
ATOM     25  H   UNL     1       2.108  10.836  18.236  0.00  0.00    +0.000 HD
BRANCH  24  26
ATOM     26  O   UNL     1       2.499  12.568  17.169  0.00  0.00    +0.000 OA
ATOM     27  H   UNL     1       2.618  11.858  16.499  0.00  0.00    +0.000 HD
ENDBRANCH  24  26
ENDBRANCH  19  22
BRANCH  17  28
ATOM     28  N   UNL     1      -1.970  12.475  18.737  0.00  0.00    +0.000 NA
ATOM     29  H   UNL     1      -2.865  12.909  18.980  0.00  0.00    +0.000 HD
BRANCH  28  31
ATOM     30  C   UNL     1      -3.742  11.516  17.534  0.00  0.00    +0.000 C 
ATOM     31  O   UNL     1      -2.327  11.731  17.533  0.00  0.00    +0.000 OA
ENDBRANCH  28  31
ENDBRANCH  17  28
ENDBRANCH   1  20
TORSDOF 8
ENDMDL
MODEL 2
REMARK VINA RESULT:      -7.6      3.728      8.561
REMARK  Name = 
REMARK  9 active torsions:
REMARK  status: ('A' for Active; 'I' for Inactive)
REMARK    1  A    between atoms: C_1  and  O_2
REMARK    2  A    between atoms: O_2  and  N_3
REMARK    3  A    between atoms: N_3  and  C_4
REMARK    4  A    between atoms: C_6  and  C_7
REMARK    5  A    between atoms: N_9  and  O_10
REMARK    6  A    between atoms: N_11  and  S_12
REMARK    7  A    between atoms: S_12  and  C_15
REMARK    8  A    between atoms: C_18  and  O_19
REMARK    9  A    between atoms: O_19  and  C_20
REMARK                            x       y       z     vdW  Elec       q    Type
REMARK                         _______ _______ _______ _____ _____    ______ ____
ROOT
ATOM      1  S   UNL     1       3.212   4.531  18.254  0.00  0.00    +0.000 S 
ATOM      2  O   UNL     1       2.659   4.201  16.957  0.00  0.00    +0.000 OA
ATOM      3  O   UNL     1       2.932   3.701  19.407  0.00  0.00    +0.000 OA
ENDROOT
BRANCH   1   4
ATOM      4  C   UNL     1       2.710   6.182  18.666  0.00  0.00    +0.000 A 
ATOM      5  C   UNL     1       2.448   7.110  17.653  0.00  0.00    +0.000 A 
ATOM      6  C   UNL     1       1.896   8.350  17.986  0.00  0.00    +0.000 A 
ATOM      7  C   UNL     1       1.600   8.658  19.317  0.00  0.00    +0.000 A 
ATOM      8  C   UNL     1       1.939   7.755  20.330  0.00  0.00    +0.000 A 
ATOM      9  C   UNL     1       2.471   6.504  20.005  0.00  0.00    +0.000 A 
BRANCH   7  10
ATOM     10  O   UNL     1       1.024   9.888  19.543  0.00  0.00    +0.000 OA
BRANCH  10  11
ATOM     11  C   UNL     1       0.366  10.126  20.730  0.00  0.00    +0.000 A 
ATOM     12  C   UNL     1      -0.052  11.442  20.944  0.00  0.00    +0.000 A 
ATOM     13  C   UNL     1      -0.725  11.785  22.118  0.00  0.00    +0.000 A 
ATOM     14  C   UNL     1      -0.986  10.812  23.082  0.00  0.00    +0.000 A 
ATOM     15  C   UNL     1      -0.605   9.490  22.857  0.00  0.00    +0.000 A 
ATOM     16  C   UNL     1       0.049   9.142  21.672  0.00  0.00    +0.000 A 
ENDBRANCH  10  11
ENDBRANCH   7  10
ENDBRANCH   1   4
BRANCH   1  20
ATOM     17  C   UNL     1       5.953   4.815  15.858  0.00  0.00    +0.000 C 
ATOM     18  C   UNL     1       5.528   6.180  16.393  0.00  0.00    +0.000 C 
ATOM     19  C   UNL     1       5.479   5.993  17.908  0.00  0.00    +0.000 C 
ATOM     20  N   UNL     1       4.901   4.623  18.067  0.00  0.00    +0.000 NA
ATOM     21  C   UNL     1       5.433   3.814  16.915  0.00  0.00    +0.000 C 
BRANCH  19  22
ATOM     22  C   UNL     1       6.851   6.077  18.607  0.00  0.00    +0.000 C 
ATOM     23  O   UNL     1       7.827   6.677  18.148  0.00  0.00    +0.000 OA
ATOM     24  N   UNL     1       6.968   5.349  19.771  0.00  0.00    +0.000 N 
ATOM     25  H   UNL     1       6.321   4.629  20.067  0.00  0.00    +0.000 HD
BRANCH  24  26
ATOM     26  O   UNL     1       8.249   5.327  20.369  0.00  0.00    +0.000 OA
ATOM     27  H   UNL     1       8.031   5.211  21.321  0.00  0.00    +0.000 HD
ENDBRANCH  24  26
ENDBRANCH  19  22
BRANCH  17  28
ATOM     28  N   UNL     1       7.410   4.851  15.664  0.00  0.00    +0.000 NA
ATOM     29  H   UNL     1       7.776   5.628  16.219  0.00  0.00    +0.000 HD
BRANCH  28  31
ATOM     30  C   UNL     1       6.870   4.526  13.403  0.00  0.00    +0.000 C 
ATOM     31  O   UNL     1       7.628   5.338  14.305  0.00  0.00    +0.000 OA
ENDBRANCH  28  31
ENDBRANCH  17  28
ENDBRANCH   1  20
TORSDOF 8
ENDMDL
MODEL 3
REMARK VINA RESULT:      -7.6      3.412      8.739
REMARK  Name = 
REMARK  9 active torsions:
REMARK  status: ('A' for Active; 'I' for Inactive)
REMARK    1  A    between atoms: C_1  and  O_2
REMARK    2  A    between atoms: O_2  and  N_3
REMARK    3  A    between atoms: N_3  and  C_4
REMARK    4  A    between atoms: C_6  and  C_7
REMARK    5  A    between atoms: N_9  and  O_10
REMARK    6  A    between atoms: N_11  and  S_12
REMARK    7  A    between atoms: S_12  and  C_15
REMARK    8  A    between atoms: C_18  and  O_19
REMARK    9  A    between atoms: O_19  and  C_20
REMARK                            x       y       z     vdW  Elec       q    Type
REMARK                         _______ _______ _______ _____ _____    ______ ____
ROOT
ATOM      1  S   UNL     1       2.598   5.802  18.790  0.00  0.00    +0.000 S 
ATOM      2  O   UNL     1       1.792   5.195  17.752  0.00  0.00    +0.000 OA
ATOM      3  O   UNL     1       2.648   5.224  20.117  0.00  0.00    +0.000 OA
ENDROOT
BRANCH   1   4
ATOM      4  C   UNL     1       2.084   7.489  18.976  0.00  0.00    +0.000 A 
ATOM      5  C   UNL     1       2.096   8.352  17.875  0.00  0.00    +0.000 A 
ATOM      6  C   UNL     1       1.535   9.627  17.997  0.00  0.00    +0.000 A 
ATOM      7  C   UNL     1       0.959  10.033  19.204  0.00  0.00    +0.000 A 
ATOM      8  C   UNL     1       1.023   9.193  20.321  0.00  0.00    +0.000 A 
ATOM      9  C   UNL     1       1.563   7.909  20.203  0.00  0.00    +0.000 A 
BRANCH   7  10
ATOM     10  O   UNL     1       0.397  11.290  19.218  0.00  0.00    +0.000 OA
BRANCH  10  11
ATOM     11  C   UNL     1      -0.965  11.431  19.063  0.00  0.00    +0.000 A 
ATOM     12  C   UNL     1      -1.595  12.299  19.958  0.00  0.00    +0.000 A 
ATOM     13  C   UNL     1      -2.974  12.507  19.885  0.00  0.00    +0.000 A 
ATOM     14  C   UNL     1      -3.727  11.852  18.912  0.00  0.00    +0.000 A 
ATOM     15  C   UNL     1      -3.098  11.015  17.992  0.00  0.00    +0.000 A 
ATOM     16  C   UNL     1      -1.715  10.823  18.051  0.00  0.00    +0.000 A 
ENDBRANCH  10  11
ENDBRANCH   7  10
ENDBRANCH   1   4
BRANCH   1  20
ATOM     17  C   UNL     1       5.910   4.266  18.835  0.00  0.00    +0.000 C 
ATOM     18  C   UNL     1       5.068   3.757  17.668  0.00  0.00    +0.000 C 
ATOM     19  C   UNL     1       4.513   5.024  17.023  0.00  0.00    +0.000 C 
ATOM     20  N   UNL     1       4.190   5.894  18.195  0.00  0.00    +0.000 NA
ATOM     21  C   UNL     1       5.246   5.606  19.227  0.00  0.00    +0.000 C 
BRANCH  19  22
ATOM     22  C   UNL     1       5.497   5.745  16.079  0.00  0.00    +0.000 C 
ATOM     23  O   UNL     1       5.350   6.904  15.679  0.00  0.00    +0.000 OA
ATOM     24  N   UNL     1       6.543   4.978  15.616  0.00  0.00    +0.000 N 
ATOM     25  H   UNL     1       6.587   3.969  15.674  0.00  0.00    +0.000 HD
BRANCH  24  26
ATOM     26  O   UNL     1       7.395   5.590  14.667  0.00  0.00    +0.000 OA
ATOM     27  H   UNL     1       6.961   5.355  13.816  0.00  0.00    +0.000 HD
ENDBRANCH  24  26
ENDBRANCH  19  22
BRANCH  17  28
ATOM     28  N   UNL     1       7.304   4.347  18.373  0.00  0.00    +0.000 NA
ATOM     29  H   UNL     1       7.762   3.466  18.621  0.00  0.00    +0.000 HD
BRANCH  28  31
ATOM     30  C   UNL     1       8.080   6.550  18.605  0.00  0.00    +0.000 C 
ATOM     31  O   UNL     1       7.976   5.285  19.267  0.00  0.00    +0.000 OA
ENDBRANCH  28  31
ENDBRANCH  17  28
ENDBRANCH   1  20
TORSDOF 8
ENDMDL
MODEL 4
REMARK VINA RESULT:      -7.5      3.478      8.438
REMARK  Name = 
REMARK  9 active torsions:
REMARK  status: ('A' for Active; 'I' for Inactive)
REMARK    1  A    between atoms: C_1  and  O_2
REMARK    2  A    between atoms: O_2  and  N_3
REMARK    3  A    between atoms: N_3  and  C_4
REMARK    4  A    between atoms: C_6  and  C_7
REMARK    5  A    between atoms: N_9  and  O_10
REMARK    6  A    between atoms: N_11  and  S_12
REMARK    7  A    between atoms: S_12  and  C_15
REMARK    8  A    between atoms: C_18  and  O_19
REMARK    9  A    between atoms: O_19  and  C_20
REMARK                            x       y       z     vdW  Elec       q    Type
REMARK                         _______ _______ _______ _____ _____    ______ ____
ROOT
ATOM      1  S   UNL     1       2.638   4.768  18.968  0.00  0.00    +0.000 S 
ATOM      2  O   UNL     1       1.897   4.217  17.853  0.00  0.00    +0.000 OA
ATOM      3  O   UNL     1       2.424   4.273  20.312  0.00  0.00    +0.000 OA
ENDROOT
BRANCH   1   4
ATOM      4  C   UNL     1       2.359   6.519  19.007  0.00  0.00    +0.000 A 
ATOM      5  C   UNL     1       2.423   7.267  17.827  0.00  0.00    +0.000 A 
ATOM      6  C   UNL     1       2.040   8.611  17.845  0.00  0.00    +0.000 A 
ATOM      7  C   UNL     1       1.588   9.201  19.029  0.00  0.00    +0.000 A 
ATOM      8  C   UNL     1       1.603   8.466  20.220  0.00  0.00    +0.000 A 
ATOM      9  C   UNL     1       1.964   7.116  20.207  0.00  0.00    +0.000 A 
BRANCH   7  10
ATOM     10  O   UNL     1       1.196  10.518  18.942  0.00  0.00    +0.000 OA
BRANCH  10  11
ATOM     11  C   UNL     1      -0.142  10.827  18.839  0.00  0.00    +0.000 A 
ATOM     12  C   UNL     1      -0.863  10.113  17.879  0.00  0.00    +0.000 A 
ATOM     13  C   UNL     1      -2.226  10.356  17.696  0.00  0.00    +0.000 A 
ATOM     14  C   UNL     1      -2.875  11.312  18.476  0.00  0.00    +0.000 A 
ATOM     15  C   UNL     1      -2.169  12.001  19.462  0.00  0.00    +0.000 A 
ATOM     16  C   UNL     1      -0.810  11.742  19.660  0.00  0.00    +0.000 A 
ENDBRANCH  10  11
ENDBRANCH   7  10
ENDBRANCH   1   4
BRANCH   1  20
ATOM     17  C   UNL     1       5.067   4.037  16.341  0.00  0.00    +0.000 C 
ATOM     18  C   UNL     1       4.836   5.538  16.494  0.00  0.00    +0.000 C 
ATOM     19  C   UNL     1       4.964   5.789  17.994  0.00  0.00    +0.000 C 
ATOM     20  N   UNL     1       4.291   4.598  18.601  0.00  0.00    +0.000 NA
ATOM     21  C   UNL     1       4.599   3.441  17.689  0.00  0.00    +0.000 C 
BRANCH  19  22
ATOM     22  C   UNL     1       6.415   5.897  18.503  0.00  0.00    +0.000 C 
ATOM     23  O   UNL     1       7.354   6.335  17.832  0.00  0.00    +0.000 OA
ATOM     24  N   UNL     1       6.642   5.381  19.760  0.00  0.00    +0.000 N 
ATOM     25  H   UNL     1       6.003   4.773  20.257  0.00  0.00    +0.000 HD
BRANCH  24  26
ATOM     26  O   UNL     1       7.986   5.375  20.201  0.00  0.00    +0.000 OA
ATOM     27  H   UNL     1       8.443   5.863  19.479  0.00  0.00    +0.000 HD
ENDBRANCH  24  26
ENDBRANCH  19  22
BRANCH  17  28
ATOM     28  N   UNL     1       6.485   3.840  16.005  0.00  0.00    +0.000 NA
ATOM     29  H   UNL     1       7.039   4.357  16.693  0.00  0.00    +0.000 HD
BRANCH  28  31
ATOM     30  C   UNL     1       6.247   3.871  13.671  0.00  0.00    +0.000 C 
ATOM     31  O   UNL     1       6.729   4.616  14.793  0.00  0.00    +0.000 OA
ENDBRANCH  28  31
ENDBRANCH  17  28
ENDBRANCH   1  20
TORSDOF 8
ENDMDL
MODEL 5
REMARK VINA RESULT:      -7.4      0.622      1.120
REMARK  Name = 
REMARK  9 active torsions:
REMARK  status: ('A' for Active; 'I' for Inactive)
REMARK    1  A    between atoms: C_1  and  O_2
REMARK    2  A    between atoms: O_2  and  N_3
REMARK    3  A    between atoms: N_3  and  C_4
REMARK    4  A    between atoms: C_6  and  C_7
REMARK    5  A    between atoms: N_9  and  O_10
REMARK    6  A    between atoms: N_11  and  S_12
REMARK    7  A    between atoms: S_12  and  C_15
REMARK    8  A    between atoms: C_18  and  O_19
REMARK    9  A    between atoms: O_19  and  C_20
REMARK                            x       y       z     vdW  Elec       q    Type
REMARK                         _______ _______ _______ _____ _____    ______ ____
ROOT
ATOM      1  S   UNL     1       0.636   9.413  20.759  0.00  0.00    +0.000 S 
ATOM      2  O   UNL     1       1.451  10.074  21.757  0.00  0.00    +0.000 OA
ATOM      3  O   UNL     1      -0.674   8.899  21.102  0.00  0.00    +0.000 OA
ENDROOT
BRANCH   1   4
ATOM      4  C   UNL     1       1.568   8.060  20.091  0.00  0.00    +0.000 A 
ATOM      5  C   UNL     1       1.619   6.839  20.771  0.00  0.00    +0.000 A 
ATOM      6  C   UNL     1       2.217   5.736  20.156  0.00  0.00    +0.000 A 
ATOM      7  C   UNL     1       2.751   5.848  18.869  0.00  0.00    +0.000 A 
ATOM      8  C   UNL     1       2.765   7.092  18.229  0.00  0.00    +0.000 A 
ATOM      9  C   UNL     1       2.151   8.196  18.828  0.00  0.00    +0.000 A 
BRANCH   7  10
ATOM     10  O   UNL     1       3.284   4.699  18.329  0.00  0.00    +0.000 OA
BRANCH  10  11
ATOM     11  C   UNL     1       4.563   4.714  17.817  0.00  0.00    +0.000 A 
ATOM     12  C   UNL     1       5.589   4.930  18.741  0.00  0.00    +0.000 A 
ATOM     13  C   UNL     1       6.919   4.966  18.320  0.00  0.00    +0.000 A 
ATOM     14  C   UNL     1       7.231   4.782  16.974  0.00  0.00    +0.000 A 
ATOM     15  C   UNL     1       6.214   4.529  16.053  0.00  0.00    +0.000 A 
ATOM     16  C   UNL     1       4.884   4.471  16.477  0.00  0.00    +0.000 A 
ENDBRANCH  10  11
ENDBRANCH   7  10
ENDBRANCH   1   4
BRANCH   1  20
ATOM     17  C   UNL     1      -1.754  11.135  18.602  0.00  0.00    +0.000 C 
ATOM     18  C   UNL     1      -1.356  11.993  19.800  0.00  0.00    +0.000 C 
ATOM     19  C   UNL     1       0.170  11.923  19.823  0.00  0.00    +0.000 C 
ATOM     20  N   UNL     1       0.455  10.500  19.463  0.00  0.00    +0.000 NA
ATOM     21  C   UNL     1      -0.610  10.103  18.476  0.00  0.00    +0.000 C 
BRANCH  19  22
ATOM     22  C   UNL     1       0.869  12.874  18.830  0.00  0.00    +0.000 C 
ATOM     23  O   UNL     1       0.406  13.960  18.469  0.00  0.00    +0.000 OA
ATOM     24  N   UNL     1       2.037  12.398  18.277  0.00  0.00    +0.000 N 
ATOM     25  H   UNL     1       2.337  11.433  18.309  0.00  0.00    +0.000 HD
BRANCH  24  26
ATOM     26  O   UNL     1       2.636  13.210  17.286  0.00  0.00    +0.000 OA
ATOM     27  H   UNL     1       2.633  12.616  16.502  0.00  0.00    +0.000 HD
ENDBRANCH  24  26
ENDBRANCH  19  22
BRANCH  17  28
ATOM     28  N   UNL     1      -1.939  12.036  17.454  0.00  0.00    +0.000 NA
ATOM     29  H   UNL     1      -2.631  12.740  17.725  0.00  0.00    +0.000 HD
BRANCH  28  31
ATOM     30  C   UNL     1      -4.072  11.338  16.770  0.00  0.00    +0.000 C 
ATOM     31  O   UNL     1      -2.679  11.274  16.453  0.00  0.00    +0.000 OA
ENDBRANCH  28  31
ENDBRANCH  17  28
ENDBRANCH   1  20
TORSDOF 8
ENDMDL
MODEL 6
REMARK VINA RESULT:      -7.4      0.448      1.045
REMARK  Name = 
REMARK  9 active torsions:
REMARK  status: ('A' for Active; 'I' for Inactive)
REMARK    1  A    between atoms: C_1  and  O_2
REMARK    2  A    between atoms: O_2  and  N_3
REMARK    3  A    between atoms: N_3  and  C_4
REMARK    4  A    between atoms: C_6  and  C_7
REMARK    5  A    between atoms: N_9  and  O_10
REMARK    6  A    between atoms: N_11  and  S_12
REMARK    7  A    between atoms: S_12  and  C_15
REMARK    8  A    between atoms: C_18  and  O_19
REMARK    9  A    between atoms: O_19  and  C_20
REMARK                            x       y       z     vdW  Elec       q    Type
REMARK                         _______ _______ _______ _____ _____    ______ ____
ROOT
ATOM      1  S   UNL     1       0.815   9.059  21.194  0.00  0.00    +0.000 S 
ATOM      2  O   UNL     1       1.831   9.573  22.088  0.00  0.00    +0.000 OA
ATOM      3  O   UNL     1      -0.472   8.636  21.707  0.00  0.00    +0.000 OA
ENDROOT
BRANCH   1   4
ATOM      4  C   UNL     1       1.501   7.682  20.311  0.00  0.00    +0.000 A 
ATOM      5  C   UNL     1       2.128   7.882  19.076  0.00  0.00    +0.000 A 
ATOM      6  C   UNL     1       2.806   6.820  18.471  0.00  0.00    +0.000 A 
ATOM      7  C   UNL     1       2.865   5.572  19.098  0.00  0.00    +0.000 A 
ATOM      8  C   UNL     1       2.169   5.361  20.292  0.00  0.00    +0.000 A 
ATOM      9  C   UNL     1       1.506   6.423  20.915  0.00  0.00    +0.000 A 
BRANCH   7  10
ATOM     10  O   UNL     1       3.587   4.598  18.446  0.00  0.00    +0.000 OA
BRANCH  10  11
ATOM     11  C   UNL     1       4.946   4.751  18.277  0.00  0.00    +0.000 A 
ATOM     12  C   UNL     1       5.451   4.399  17.023  0.00  0.00    +0.000 A 
ATOM     13  C   UNL     1       6.816   4.516  16.755  0.00  0.00    +0.000 A 
ATOM     14  C   UNL     1       7.682   4.991  17.739  0.00  0.00    +0.000 A 
ATOM     15  C   UNL     1       7.178   5.380  18.979  0.00  0.00    +0.000 A 
ATOM     16  C   UNL     1       5.809   5.284  19.241  0.00  0.00    +0.000 A 
ENDBRANCH  10  11
ENDBRANCH   7  10
ENDBRANCH   1   4
BRANCH   1  20
ATOM     17  C   UNL     1      -1.543  11.533  19.909  0.00  0.00    +0.000 C 
ATOM     18  C   UNL     1      -0.554  12.154  20.891  0.00  0.00    +0.000 C 
ATOM     19  C   UNL     1       0.811  11.664  20.412  0.00  0.00    +0.000 C 
ATOM     20  N   UNL     1       0.546  10.249  20.008  0.00  0.00    +0.000 NA
ATOM     21  C   UNL     1      -0.845  10.237  19.435  0.00  0.00    +0.000 C 
BRANCH  19  22
ATOM     22  C   UNL     1       1.396  12.457  19.226  0.00  0.00    +0.000 C 
ATOM     23  O   UNL     1       1.222  13.666  19.049  0.00  0.00    +0.000 OA
ATOM     24  N   UNL     1       2.073  11.707  18.289  0.00  0.00    +0.000 N 
ATOM     25  H   UNL     1       2.030  10.699  18.218  0.00  0.00    +0.000 HD
BRANCH  24  26
ATOM     26  O   UNL     1       2.524  12.400  17.142  0.00  0.00    +0.000 OA
ATOM     27  H   UNL     1       2.318  11.763  16.421  0.00  0.00    +0.000 HD
ENDBRANCH  24  26
ENDBRANCH  19  22
BRANCH  17  28
ATOM     28  N   UNL     1      -1.821  12.534  18.868  0.00  0.00    +0.000 NA
ATOM     29  H   UNL     1      -2.767  12.889  19.029  0.00  0.00    +0.000 HD
BRANCH  28  31
ATOM     30  C   UNL     1      -3.394  11.536  17.441  0.00  0.00    +0.000 C 
ATOM     31  O   UNL     1      -1.998  11.791  17.624  0.00  0.00    +0.000 OA
ENDBRANCH  28  31
ENDBRANCH  17  28
ENDBRANCH   1  20
TORSDOF 8
ENDMDL
MODEL 7
REMARK VINA RESULT:      -7.4      3.652      8.477
REMARK  Name = 
REMARK  9 active torsions:
REMARK  status: ('A' for Active; 'I' for Inactive)
REMARK    1  A    between atoms: C_1  and  O_2
REMARK    2  A    between atoms: O_2  and  N_3
REMARK    3  A    between atoms: N_3  and  C_4
REMARK    4  A    between atoms: C_6  and  C_7
REMARK    5  A    between atoms: N_9  and  O_10
REMARK    6  A    between atoms: N_11  and  S_12
REMARK    7  A    between atoms: S_12  and  C_15
REMARK    8  A    between atoms: C_18  and  O_19
REMARK    9  A    between atoms: O_19  and  C_20
REMARK                            x       y       z     vdW  Elec       q    Type
REMARK                         _______ _______ _______ _____ _____    ______ ____
ROOT
ATOM      1  S   UNL     1       3.275   4.130  18.260  0.00  0.00    +0.000 S 
ATOM      2  O   UNL     1       2.774   3.726  16.963  0.00  0.00    +0.000 OA
ATOM      3  O   UNL     1       3.064   3.295  19.424  0.00  0.00    +0.000 OA
ENDROOT
BRANCH   1   4
ATOM      4  C   UNL     1       2.607   5.729  18.637  0.00  0.00    +0.000 A 
ATOM      5  C   UNL     1       2.309   6.071  19.961  0.00  0.00    +0.000 A 
ATOM      6  C   UNL     1       1.940   7.385  20.263  0.00  0.00    +0.000 A 
ATOM      7  C   UNL     1       1.879   8.352  19.256  0.00  0.00    +0.000 A 
ATOM      8  C   UNL     1       2.103   7.982  17.925  0.00  0.00    +0.000 A 
ATOM      9  C   UNL     1       2.492   6.675  17.615  0.00  0.00    +0.000 A 
BRANCH   7  10
ATOM     10  O   UNL     1       1.545   9.626  19.655  0.00  0.00    +0.000 OA
BRANCH  10  11
ATOM     11  C   UNL     1       0.328  10.159  19.291  0.00  0.00    +0.000 A 
ATOM     12  C   UNL     1      -0.217  11.097  20.172  0.00  0.00    +0.000 A 
ATOM     13  C   UNL     1      -1.449  11.692  19.894  0.00  0.00    +0.000 A 
ATOM     14  C   UNL     1      -2.140  11.354  18.731  0.00  0.00    +0.000 A 
ATOM     15  C   UNL     1      -1.584  10.447  17.830  0.00  0.00    +0.000 A 
ATOM     16  C   UNL     1      -0.340   9.868  18.097  0.00  0.00    +0.000 A 
ENDBRANCH  10  11
ENDBRANCH   7  10
ENDBRANCH   1   4
BRANCH   1  20
ATOM     17  C   UNL     1       5.993   4.720  15.894  0.00  0.00    +0.000 C 
ATOM     18  C   UNL     1       5.436   6.028  16.450  0.00  0.00    +0.000 C 
ATOM     19  C   UNL     1       5.395   5.807  17.961  0.00  0.00    +0.000 C 
ATOM     20  N   UNL     1       4.949   4.386  18.089  0.00  0.00    +0.000 NA
ATOM     21  C   UNL     1       5.564   3.653  16.927  0.00  0.00    +0.000 C 
BRANCH  19  22
ATOM     22  C   UNL     1       6.748   6.007  18.673  0.00  0.00    +0.000 C 
ATOM     23  O   UNL     1       7.667   6.704  18.233  0.00  0.00    +0.000 OA
ATOM     24  N   UNL     1       6.924   5.274  19.826  0.00  0.00    +0.000 N 
ATOM     25  H   UNL     1       6.346   4.492  20.105  0.00  0.00    +0.000 HD
BRANCH  24  26
ATOM     26  O   UNL     1       8.197   5.363  20.436  0.00  0.00    +0.000 OA
ATOM     27  H   UNL     1       8.655   6.021  19.865  0.00  0.00    +0.000 HD
ENDBRANCH  24  26
ENDBRANCH  19  22
BRANCH  17  28
ATOM     28  N   UNL     1       7.442   4.897  15.713  0.00  0.00    +0.000 NA
ATOM     29  H   UNL     1       7.730   5.689  16.294  0.00  0.00    +0.000 HD
BRANCH  28  31
ATOM     30  C   UNL     1       6.974   4.574  13.436  0.00  0.00    +0.000 C 
ATOM     31  O   UNL     1       7.621   5.443  14.371  0.00  0.00    +0.000 OA
ENDBRANCH  28  31
ENDBRANCH  17  28
ENDBRANCH   1  20
TORSDOF 8
ENDMDL
MODEL 8
REMARK VINA RESULT:      -7.3      0.655      1.116
REMARK  Name = 
REMARK  9 active torsions:
REMARK  status: ('A' for Active; 'I' for Inactive)
REMARK    1  A    between atoms: C_1  and  O_2
REMARK    2  A    between atoms: O_2  and  N_3
REMARK    3  A    between atoms: N_3  and  C_4
REMARK    4  A    between atoms: C_6  and  C_7
REMARK    5  A    between atoms: N_9  and  O_10
REMARK    6  A    between atoms: N_11  and  S_12
REMARK    7  A    between atoms: S_12  and  C_15
REMARK    8  A    between atoms: C_18  and  O_19
REMARK    9  A    between atoms: O_19  and  C_20
REMARK                            x       y       z     vdW  Elec       q    Type
REMARK                         _______ _______ _______ _____ _____    ______ ____
ROOT
ATOM      1  S   UNL     1       0.835   8.868  21.136  0.00  0.00    +0.000 S 
ATOM      2  O   UNL     1       1.732   9.404  22.139  0.00  0.00    +0.000 OA
ATOM      3  O   UNL     1      -0.439   8.294  21.519  0.00  0.00    +0.000 OA
ENDROOT
BRANCH   1   4
ATOM      4  C   UNL     1       1.709   7.630  20.216  0.00  0.00    +0.000 A 
ATOM      5  C   UNL     1       1.781   6.318  20.697  0.00  0.00    +0.000 A 
ATOM      6  C   UNL     1       2.329   5.320  19.886  0.00  0.00    +0.000 A 
ATOM      7  C   UNL     1       2.791   5.626  18.602  0.00  0.00    +0.000 A 
ATOM      8  C   UNL     1       2.786   6.954  18.162  0.00  0.00    +0.000 A 
ATOM      9  C   UNL     1       2.222   7.956  18.957  0.00  0.00    +0.000 A 
BRANCH   7  10
ATOM     10  O   UNL     1       3.277   4.572  17.863  0.00  0.00    +0.000 OA
BRANCH  10  11
ATOM     11  C   UNL     1       4.564   4.616  17.374  0.00  0.00    +0.000 A 
ATOM     12  C   UNL     1       5.582   4.635  18.332  0.00  0.00    +0.000 A 
ATOM     13  C   UNL     1       6.920   4.683  17.937  0.00  0.00    +0.000 A 
ATOM     14  C   UNL     1       7.247   4.708  16.581  0.00  0.00    +0.000 A 
ATOM     15  C   UNL     1       6.237   4.651  15.622  0.00  0.00    +0.000 A 
ATOM     16  C   UNL     1       4.898   4.580  16.016  0.00  0.00    +0.000 A 
ENDBRANCH  10  11
ENDBRANCH   7  10
ENDBRANCH   1   4
BRANCH   1  20
ATOM     17  C   UNL     1      -1.516  11.457  20.086  0.00  0.00    +0.000 C 
ATOM     18  C   UNL     1      -0.458  12.009  21.037  0.00  0.00    +0.000 C 
ATOM     19  C   UNL     1       0.864  11.504  20.465  0.00  0.00    +0.000 C 
ATOM     20  N   UNL     1       0.537  10.115  20.017  0.00  0.00    +0.000 NA
ATOM     21  C   UNL     1      -0.883  10.165  19.521  0.00  0.00    +0.000 C 
BRANCH  19  22
ATOM     22  C   UNL     1       1.407  12.331  19.282  0.00  0.00    +0.000 C 
ATOM     23  O   UNL     1       1.200  13.538  19.129  0.00  0.00    +0.000 OA
ATOM     24  N   UNL     1       2.085  11.615  18.320  0.00  0.00    +0.000 N 
ATOM     25  H   UNL     1       2.066  10.607  18.232  0.00  0.00    +0.000 HD
BRANCH  24  26
ATOM     26  O   UNL     1       2.498  12.338  17.177  0.00  0.00    +0.000 OA
ATOM     27  H   UNL     1       2.321  11.697  16.452  0.00  0.00    +0.000 HD
ENDBRANCH  24  26
ENDBRANCH  19  22
BRANCH  17  28
ATOM     28  N   UNL     1      -1.821  12.509  19.104  0.00  0.00    +0.000 NA
ATOM     29  H   UNL     1      -1.805  13.405  19.599  0.00  0.00    +0.000 HD
BRANCH  28  31
ATOM     30  C   UNL     1      -3.991  12.578  19.993  0.00  0.00    +0.000 C 
ATOM     31  O   UNL     1      -3.241  12.376  18.792  0.00  0.00    +0.000 OA
ENDBRANCH  28  31
ENDBRANCH  17  28
ENDBRANCH   1  20
TORSDOF 8
ENDMDL
MODEL 9
REMARK VINA RESULT:      -7.2      3.714      8.382
REMARK  Name = 
REMARK  9 active torsions:
REMARK  status: ('A' for Active; 'I' for Inactive)
REMARK    1  A    between atoms: C_1  and  O_2
REMARK    2  A    between atoms: O_2  and  N_3
REMARK    3  A    between atoms: N_3  and  C_4
REMARK    4  A    between atoms: C_6  and  C_7
REMARK    5  A    between atoms: N_9  and  O_10
REMARK    6  A    between atoms: N_11  and  S_12
REMARK    7  A    between atoms: S_12  and  C_15
REMARK    8  A    between atoms: C_18  and  O_19
REMARK    9  A    between atoms: O_19  and  C_20
REMARK                            x       y       z     vdW  Elec       q    Type
REMARK                         _______ _______ _______ _____ _____    ______ ____
ROOT
ATOM      1  S   UNL     1       3.427   4.342  18.131  0.00  0.00    +0.000 S 
ATOM      2  O   UNL     1       2.831   4.320  16.812  0.00  0.00    +0.000 OA
ATOM      3  O   UNL     1       3.247   3.227  19.039  0.00  0.00    +0.000 OA
ENDROOT
BRANCH   1   4
ATOM      4  C   UNL     1       2.858   5.796  18.973  0.00  0.00    +0.000 A 
ATOM      5  C   UNL     1       2.725   7.002  18.278  0.00  0.00    +0.000 A 
ATOM      6  C   UNL     1       2.122   8.094  18.908  0.00  0.00    +0.000 A 
ATOM      7  C   UNL     1       1.648   7.980  20.219  0.00  0.00    +0.000 A 
ATOM      8  C   UNL     1       1.857   6.794  20.931  0.00  0.00    +0.000 A 
ATOM      9  C   UNL     1       2.440   5.690  20.302  0.00  0.00    +0.000 A 
BRANCH   7  10
ATOM     10  O   UNL     1       1.034   9.095  20.743  0.00  0.00    +0.000 OA
BRANCH  10  11
ATOM     11  C   UNL     1       0.459  10.020  19.899  0.00  0.00    +0.000 A 
ATOM     12  C   UNL     1      -0.802   9.689  19.398  0.00  0.00    +0.000 A 
ATOM     13  C   UNL     1      -1.467  10.559  18.532  0.00  0.00    +0.000 A 
ATOM     14  C   UNL     1      -0.873  11.767  18.166  0.00  0.00    +0.000 A 
ATOM     15  C   UNL     1       0.369  12.119  18.693  0.00  0.00    +0.000 A 
ATOM     16  C   UNL     1       1.024  11.258  19.578  0.00  0.00    +0.000 A 
ENDBRANCH  10  11
ENDBRANCH   7  10
ENDBRANCH   1   4
BRANCH   1  20
ATOM     17  C   UNL     1       6.062   5.126  15.729  0.00  0.00    +0.000 C 
ATOM     18  C   UNL     1       5.554   6.379  16.438  0.00  0.00    +0.000 C 
ATOM     19  C   UNL     1       5.568   6.005  17.919  0.00  0.00    +0.000 C 
ATOM     20  N   UNL     1       5.098   4.586  17.920  0.00  0.00    +0.000 NA
ATOM     21  C   UNL     1       5.652   3.966  16.665  0.00  0.00    +0.000 C 
BRANCH  19  22
ATOM     22  C   UNL     1       6.951   6.109  18.592  0.00  0.00    +0.000 C 
ATOM     23  O   UNL     1       7.876   6.810  18.171  0.00  0.00    +0.000 OA
ATOM     24  N   UNL     1       7.145   5.284  19.678  0.00  0.00    +0.000 N 
ATOM     25  H   UNL     1       6.551   4.500  19.918  0.00  0.00    +0.000 HD
BRANCH  24  26
ATOM     26  O   UNL     1       8.441   5.287  20.243  0.00  0.00    +0.000 OA
ATOM     27  H   UNL     1       8.756   6.195  20.034  0.00  0.00    +0.000 HD
ENDBRANCH  24  26
ENDBRANCH  19  22
BRANCH  17  28
ATOM     28  N   UNL     1       7.506   5.297  15.508  0.00  0.00    +0.000 NA
ATOM     29  H   UNL     1       7.763   6.225  15.856  0.00  0.00    +0.000 HD
BRANCH  28  31
ATOM     30  C   UNL     1       6.899   4.480  13.394  0.00  0.00    +0.000 C 
ATOM     31  O   UNL     1       7.680   5.471  14.069  0.00  0.00    +0.000 OA
ENDBRANCH  28  31
ENDBRANCH  17  28
ENDBRANCH   1  20
TORSDOF 8
ENDMDL
