MODEL 1
REMARK VINA RESULT:      -7.9      0.000      0.000
REMARK  Name = 
REMARK  5 active torsions:
REMARK  status: ('A' for Active; 'I' for Inactive)
REMARK    1  A    between atoms: C_1  and  C_2
REMARK    2  A    between atoms: C_2  and  C_3
REMARK    3  A    between atoms: C_3  and  N_4
REMARK    4  A    between atoms: C_5  and  C_7
REMARK    5  A    between atoms: C_10  and  N_11
REMARK                            x       y       z     vdW  Elec       q    Type
REMARK                         _______ _______ _______ _____ _____    ______ ____
ROOT
ATOM      1  C   UNL     1       6.504   4.514  15.939  0.00  0.00    +0.000 A 
ATOM      2  C   UNL     1       7.256   4.941  17.012  0.00  0.00    +0.000 A 
ATOM      3  C   UNL     1       6.602   4.711  18.260  0.00  0.00    +0.000 A 
ATOM      4  C   UNL     1       5.365   4.090  18.143  0.00  0.00    +0.000 A 
ATOM      5  S   UNL     1       5.036   3.821  16.468  0.00  0.00    +0.000 S 
ENDROOT
BRANCH   4   6
ATOM      6  N   UNL     1       4.494   3.728  19.149  0.00  0.00    +0.000 N 
ATOM      7  C   UNL     1       4.491   2.366  19.706  0.00  0.00    +0.000 C 
ATOM      8  C   UNL     1       3.368   1.537  19.103  0.00  0.00    +0.000 C 
ATOM      9  S   UNL     1       1.739   2.153  19.615  0.00  0.00    +0.000 S 
ATOM     10  C   UNL     1       2.093   3.904  19.795  0.00  0.00    +0.000 A 
ATOM     11  C   UNL     1       1.015   4.704  20.208  0.00  0.00    +0.000 A 
ATOM     12  C   UNL     1       1.173   6.075  20.399  0.00  0.00    +0.000 A 
ATOM     13  C   UNL     1       2.413   6.661  20.182  0.00  0.00    +0.000 A 
ATOM     14  C   UNL     1       3.490   5.878  19.763  0.00  0.00    +0.000 A 
ATOM     15  C   UNL     1       3.359   4.489  19.551  0.00  0.00    +0.000 A 
ENDBRANCH   4   6
BRANCH   1  17
ATOM     16  N   UNL     1       6.252   3.652  13.716  0.00  0.00    +0.000 N 
ATOM     17  C   UNL     1       6.849   4.600  14.524  0.00  0.00    +0.000 C 
ATOM     18  O   UNL     1       7.608   5.453  14.072  0.00  0.00    +0.000 OA
ATOM     19  H   UNL     1       5.677   2.951  14.164  0.00  0.00    +0.000 HD
BRANCH  16  20
ATOM     20  C   UNL     1       6.508   3.538  12.298  0.00  0.00    +0.000 C 
BRANCH  20  22
ATOM     21  C   UNL     1       4.175   3.231  11.336  0.00  0.00    +0.000 C 
ATOM     22  C   UNL     1       5.533   2.595  11.598  0.00  0.00    +0.000 C 
ENDBRANCH  20  22
ENDBRANCH  16  20
ENDBRANCH   1  17
TORSDOF 4
ENDMDL
MODEL 2
REMARK VINA RESULT:      -7.0      1.740      2.364
REMARK  Name = 
REMARK  5 active torsions:
REMARK  status: ('A' for Active; 'I' for Inactive)
REMARK    1  A    between atoms: C_1  and  C_2
REMARK    2  A    between atoms: C_2  and  C_3
REMARK    3  A    between atoms: C_3  and  N_4
REMARK    4  A    between atoms: C_5  and  C_7
REMARK    5  A    between atoms: C_10  and  N_11
REMARK                            x       y       z     vdW  Elec       q    Type
REMARK                         _______ _______ _______ _____ _____    ______ ____
ROOT
ATOM      1  C   UNL     1       6.185   4.191  14.151  0.00  0.00    +0.000 A 
ATOM      2  C   UNL     1       7.233   4.946  14.630  0.00  0.00    +0.000 A 
ATOM      3  C   UNL     1       7.016   5.388  15.970  0.00  0.00    +0.000 A 
ATOM      4  C   UNL     1       5.818   4.953  16.521  0.00  0.00    +0.000 A 
ATOM      5  S   UNL     1       4.975   4.012  15.342  0.00  0.00    +0.000 S 
ENDROOT
BRANCH   4   6
ATOM      6  N   UNL     1       5.320   5.198  17.784  0.00  0.00    +0.000 N 
ATOM      7  C   UNL     1       5.727   4.382  18.939  0.00  0.00    +0.000 C 
ATOM      8  C   UNL     1       4.673   3.334  19.259  0.00  0.00    +0.000 C 
ATOM      9  S   UNL     1       3.140   4.096  19.863  0.00  0.00    +0.000 S 
ATOM     10  C   UNL     1       3.177   5.654  18.971  0.00  0.00    +0.000 A 
ATOM     11  C   UNL     1       2.103   6.525  19.223  0.00  0.00    +0.000 A 
ATOM     12  C   UNL     1       2.031   7.770  18.602  0.00  0.00    +0.000 A 
ATOM     13  C   UNL     1       3.035   8.160  17.725  0.00  0.00    +0.000 A 
ATOM     14  C   UNL     1       4.103   7.300  17.461  0.00  0.00    +0.000 A 
ATOM     15  C   UNL     1       4.198   6.029  18.065  0.00  0.00    +0.000 A 
ENDBRANCH   4   6
BRANCH   1  17
ATOM     16  N   UNL     1       4.764   3.464  12.361  0.00  0.00    +0.000 N 
ATOM     17  C   UNL     1       6.058   3.590  12.827  0.00  0.00    +0.000 C 
ATOM     18  O   UNL     1       7.025   3.225  12.164  0.00  0.00    +0.000 OA
ATOM     19  H   UNL     1       4.014   3.741  12.982  0.00  0.00    +0.000 HD
BRANCH  16  20
ATOM     20  C   UNL     1       4.427   2.846  11.099  0.00  0.00    +0.000 C 
BRANCH  20  22
ATOM     21  C   UNL     1       2.985   4.310   9.602  0.00  0.00    +0.000 C 
ATOM     22  C   UNL     1       3.015   3.190  10.634  0.00  0.00    +0.000 C 
ENDBRANCH  20  22
ENDBRANCH  16  20
ENDBRANCH   1  17
TORSDOF 4
ENDMDL
MODEL 3
REMARK VINA RESULT:      -7.0      4.199      7.819
REMARK  Name = 
REMARK  5 active torsions:
REMARK  status: ('A' for Active; 'I' for Inactive)
REMARK    1  A    between atoms: C_1  and  C_2
REMARK    2  A    between atoms: C_2  and  C_3
REMARK    3  A    between atoms: C_3  and  N_4
REMARK    4  A    between atoms: C_5  and  C_7
REMARK    5  A    between atoms: C_10  and  N_11
REMARK                            x       y       z     vdW  Elec       q    Type
REMARK                         _______ _______ _______ _____ _____    ______ ____
ROOT
ATOM      1  C   UNL     1       1.401   9.273  19.093  0.00  0.00    +0.000 A 
ATOM      2  C   UNL     1       1.844   9.148  17.793  0.00  0.00    +0.000 A 
ATOM      3  C   UNL     1       2.568   7.937  17.581  0.00  0.00    +0.000 A 
ATOM      4  C   UNL     1       2.659   7.128  18.706  0.00  0.00    +0.000 A 
ATOM      5  S   UNL     1       1.849   7.909  20.017  0.00  0.00    +0.000 S 
ENDROOT
BRANCH   4   6
ATOM      6  N   UNL     1       3.279   5.902  18.827  0.00  0.00    +0.000 N 
ATOM      7  C   UNL     1       4.738   5.766  18.692  0.00  0.00    +0.000 C 
ATOM      8  C   UNL     1       5.109   5.268  17.304  0.00  0.00    +0.000 C 
ATOM      9  S   UNL     1       4.549   3.562  17.038  0.00  0.00    +0.000 S 
ATOM     10  C   UNL     1       3.075   3.538  18.062  0.00  0.00    +0.000 A 
ATOM     11  C   UNL     1       2.377   2.320  18.097  0.00  0.00    +0.000 A 
ATOM     12  C   UNL     1       1.228   2.175  18.870  0.00  0.00    +0.000 A 
ATOM     13  C   UNL     1       0.765   3.247  19.622  0.00  0.00    +0.000 A 
ATOM     14  C   UNL     1       1.445   4.467  19.589  0.00  0.00    +0.000 A 
ATOM     15  C   UNL     1       2.605   4.647  18.807  0.00  0.00    +0.000 A 
ENDBRANCH   4   6
BRANCH   1  17
ATOM     16  N   UNL     1       0.043  10.110  20.883  0.00  0.00    +0.000 N 
ATOM     17  C   UNL     1       0.644  10.379  19.669  0.00  0.00    +0.000 C 
ATOM     18  O   UNL     1       0.548  11.477  19.127  0.00  0.00    +0.000 OA
ATOM     19  H   UNL     1       0.125   9.169  21.247  0.00  0.00    +0.000 HD
BRANCH  16  20
ATOM     20  C   UNL     1      -0.792  11.057  21.587  0.00  0.00    +0.000 C 
BRANCH  20  22
ATOM     21  C   UNL     1      -0.129   9.512  23.495  0.00  0.00    +0.000 C 
ATOM     22  C   UNL     1      -0.996  10.684  23.053  0.00  0.00    +0.000 C 
ENDBRANCH  20  22
ENDBRANCH  16  20
ENDBRANCH   1  17
TORSDOF 4
ENDMDL
MODEL 4
REMARK VINA RESULT:      -6.9      4.383      7.253
REMARK  Name = 
REMARK  5 active torsions:
REMARK  status: ('A' for Active; 'I' for Inactive)
REMARK    1  A    between atoms: C_1  and  C_2
REMARK    2  A    between atoms: C_2  and  C_3
REMARK    3  A    between atoms: C_3  and  N_4
REMARK    4  A    between atoms: C_5  and  C_7
REMARK    5  A    between atoms: C_10  and  N_11
REMARK                            x       y       z     vdW  Elec       q    Type
REMARK                         _______ _______ _______ _____ _____    ______ ____
ROOT
ATOM      1  C   UNL     1       1.214   9.286  19.373  0.00  0.00    +0.000 A 
ATOM      2  C   UNL     1       1.115   8.783  20.653  0.00  0.00    +0.000 A 
ATOM      3  C   UNL     1       1.742   7.507  20.784  0.00  0.00    +0.000 A 
ATOM      4  C   UNL     1       2.337   7.048  19.617  0.00  0.00    +0.000 A 
ATOM      5  S   UNL     1       2.085   8.216  18.369  0.00  0.00    +0.000 S 
ENDROOT
BRANCH   4   6
ATOM      6  N   UNL     1       3.022   5.868  19.416  0.00  0.00    +0.000 N 
ATOM      7  C   UNL     1       4.470   5.858  19.153  0.00  0.00    +0.000 C 
ATOM      8  C   UNL     1       4.749   5.704  17.666  0.00  0.00    +0.000 C 
ATOM      9  S   UNL     1       4.250   4.066  17.062  0.00  0.00    +0.000 S 
ATOM     10  C   UNL     1       2.867   3.723  18.155  0.00  0.00    +0.000 A 
ATOM     11  C   UNL     1       2.231   2.485  17.962  0.00  0.00    +0.000 A 
ATOM     12  C   UNL     1       1.157   2.100  18.761  0.00  0.00    +0.000 A 
ATOM     13  C   UNL     1       0.707   2.948  19.764  0.00  0.00    +0.000 A 
ATOM     14  C   UNL     1       1.325   4.185  19.960  0.00  0.00    +0.000 A 
ATOM     15  C   UNL     1       2.408   4.607  19.160  0.00  0.00    +0.000 A 
ENDBRANCH   4   6
BRANCH   1  17
ATOM     16  N   UNL     1      -0.690  10.588  18.716  0.00  0.00    +0.000 N 
ATOM     17  C   UNL     1       0.682  10.550  18.875  0.00  0.00    +0.000 C 
ATOM     18  O   UNL     1       1.391  11.519  18.619  0.00  0.00    +0.000 OA
ATOM     19  H   UNL     1      -1.205   9.736  18.900  0.00  0.00    +0.000 HD
BRANCH  16  20
ATOM     20  C   UNL     1      -1.400  11.728  18.184  0.00  0.00    +0.000 C 
BRANCH  20  22
ATOM     21  C   UNL     1      -2.851   9.906  17.164  0.00  0.00    +0.000 C 
ATOM     22  C   UNL     1      -2.372  11.349  17.069  0.00  0.00    +0.000 C 
ENDBRANCH  20  22
ENDBRANCH  16  20
ENDBRANCH   1  17
TORSDOF 4
ENDMDL
MODEL 5
REMARK VINA RESULT:      -6.9      5.356      8.057
REMARK  Name = 
REMARK  5 active torsions:
REMARK  status: ('A' for Active; 'I' for Inactive)
REMARK    1  A    between atoms: C_1  and  C_2
REMARK    2  A    between atoms: C_2  and  C_3
REMARK    3  A    between atoms: C_3  and  N_4
REMARK    4  A    between atoms: C_5  and  C_7
REMARK    5  A    between atoms: C_10  and  N_11
REMARK                            x       y       z     vdW  Elec       q    Type
REMARK                         _______ _______ _______ _____ _____    ______ ____
ROOT
ATOM      1  C   UNL     1       2.472   7.143  19.232  0.00  0.00    +0.000 A 
ATOM      2  C   UNL     1       2.776   7.582  17.961  0.00  0.00    +0.000 A 
ATOM      3  C   UNL     1       2.170   8.840  17.662  0.00  0.00    +0.000 A 
ATOM      4  C   UNL     1       1.426   9.370  18.708  0.00  0.00    +0.000 A 
ATOM      5  S   UNL     1       1.484   8.274  20.042  0.00  0.00    +0.000 S 
ENDROOT
BRANCH   4   6
ATOM      6  N   UNL     1       0.729  10.561  18.741  0.00  0.00    +0.000 N 
ATOM      7  C   UNL     1       1.328  11.783  19.300  0.00  0.00    +0.000 C 
ATOM      8  C   UNL     1       0.841  12.023  20.721  0.00  0.00    +0.000 C 
ATOM      9  S   UNL     1      -0.929  12.424  20.757  0.00  0.00    +0.000 S 
ATOM     10  C   UNL     1      -1.507  11.485  19.340  0.00  0.00    +0.000 A 
ATOM     11  C   UNL     1      -2.881  11.583  19.063  0.00  0.00    +0.000 A 
ATOM     12  C   UNL     1      -3.442  10.913  17.978  0.00  0.00    +0.000 A 
ATOM     13  C   UNL     1      -2.634  10.139  17.155  0.00  0.00    +0.000 A 
ATOM     14  C   UNL     1      -1.268  10.027  17.425  0.00  0.00    +0.000 A 
ATOM     15  C   UNL     1      -0.673  10.685  18.522  0.00  0.00    +0.000 A 
ENDBRANCH   4   6
BRANCH   1  17
ATOM     16  N   UNL     1       1.972   5.316  20.702  0.00  0.00    +0.000 N 
ATOM     17  C   UNL     1       2.903   5.902  19.867  0.00  0.00    +0.000 C 
ATOM     18  O   UNL     1       4.008   5.402  19.674  0.00  0.00    +0.000 OA
ATOM     19  H   UNL     1       1.101   5.809  20.850  0.00  0.00    +0.000 HD
BRANCH  16  20
ATOM     20  C   UNL     1       2.228   4.114  21.463  0.00  0.00    +0.000 C 
BRANCH  20  22
ATOM     21  C   UNL     1       1.211   2.674  19.631  0.00  0.00    +0.000 C 
ATOM     22  C   UNL     1       1.260   2.984  21.121  0.00  0.00    +0.000 C 
ENDBRANCH  20  22
ENDBRANCH  16  20
ENDBRANCH   1  17
TORSDOF 4
ENDMDL
MODEL 6
REMARK VINA RESULT:      -6.9      1.671      2.657
REMARK  Name = 
REMARK  5 active torsions:
REMARK  status: ('A' for Active; 'I' for Inactive)
REMARK    1  A    between atoms: C_1  and  C_2
REMARK    2  A    between atoms: C_2  and  C_3
REMARK    3  A    between atoms: C_3  and  N_4
REMARK    4  A    between atoms: C_5  and  C_7
REMARK    5  A    between atoms: C_10  and  N_11
REMARK                            x       y       z     vdW  Elec       q    Type
REMARK                         _______ _______ _______ _____ _____    ______ ____
ROOT
ATOM      1  C   UNL     1       6.095   5.234  15.612  0.00  0.00    +0.000 A 
ATOM      2  C   UNL     1       6.529   5.991  16.680  0.00  0.00    +0.000 A 
ATOM      3  C   UNL     1       5.519   6.156  17.674  0.00  0.00    +0.000 A 
ATOM      4  C   UNL     1       4.326   5.510  17.380  0.00  0.00    +0.000 A 
ATOM      5  S   UNL     1       4.485   4.720  15.852  0.00  0.00    +0.000 S 
ENDROOT
BRANCH   4   6
ATOM      6  N   UNL     1       3.170   5.469  18.132  0.00  0.00    +0.000 N 
ATOM      7  C   UNL     1       2.169   6.545  18.057  0.00  0.00    +0.000 C 
ATOM      8  C   UNL     1       2.316   7.505  19.227  0.00  0.00    +0.000 C 
ATOM      9  S   UNL     1       1.886   6.706  20.799  0.00  0.00    +0.000 S 
ATOM     10  C   UNL     1       2.378   5.014  20.452  0.00  0.00    +0.000 A 
ATOM     11  C   UNL     1       2.164   4.092  21.490  0.00  0.00    +0.000 A 
ATOM     12  C   UNL     1       2.491   2.748  21.331  0.00  0.00    +0.000 A 
ATOM     13  C   UNL     1       3.032   2.308  20.130  0.00  0.00    +0.000 A 
ATOM     14  C   UNL     1       3.257   3.217  19.094  0.00  0.00    +0.000 A 
ATOM     15  C   UNL     1       2.947   4.586  19.228  0.00  0.00    +0.000 A 
ENDBRANCH   4   6
BRANCH   1  17
ATOM     16  N   UNL     1       6.219   3.980  13.572  0.00  0.00    +0.000 N 
ATOM     17  C   UNL     1       6.848   4.875  14.416  0.00  0.00    +0.000 C 
ATOM     18  O   UNL     1       7.959   5.334  14.163  0.00  0.00    +0.000 OA
ATOM     19  H   UNL     1       5.326   3.607  13.869  0.00  0.00    +0.000 HD
BRANCH  16  20
ATOM     20  C   UNL     1       6.823   3.461  12.366  0.00  0.00    +0.000 C 
BRANCH  20  22
ATOM     21  C   UNL     1       4.462   3.112  11.487  0.00  0.00    +0.000 C 
ATOM     22  C   UNL     1       5.878   2.558  11.578  0.00  0.00    +0.000 C 
ENDBRANCH  20  22
ENDBRANCH  16  20
ENDBRANCH   1  17
TORSDOF 4
ENDMDL
MODEL 7
REMARK VINA RESULT:      -6.8      4.672      7.805
REMARK  Name = 
REMARK  5 active torsions:
REMARK  status: ('A' for Active; 'I' for Inactive)
REMARK    1  A    between atoms: C_1  and  C_2
REMARK    2  A    between atoms: C_2  and  C_3
REMARK    3  A    between atoms: C_3  and  N_4
REMARK    4  A    between atoms: C_5  and  C_7
REMARK    5  A    between atoms: C_10  and  N_11
REMARK                            x       y       z     vdW  Elec       q    Type
REMARK                         _______ _______ _______ _____ _____    ______ ____
ROOT
ATOM      1  C   UNL     1       1.227   9.244  19.660  0.00  0.00    +0.000 A 
ATOM      2  C   UNL     1       1.519   9.200  18.313  0.00  0.00    +0.000 A 
ATOM      3  C   UNL     1       2.233   8.019  17.951  0.00  0.00    +0.000 A 
ATOM      4  C   UNL     1       2.465   7.152  19.010  0.00  0.00    +0.000 A 
ATOM      5  S   UNL     1       1.800   7.842  20.448  0.00  0.00    +0.000 S 
ENDROOT
BRANCH   4   6
ATOM      6  N   UNL     1       3.116   5.935  18.990  0.00  0.00    +0.000 N 
ATOM      7  C   UNL     1       4.564   5.845  18.746  0.00  0.00    +0.000 C 
ATOM      8  C   UNL     1       4.847   5.468  17.300  0.00  0.00    +0.000 C 
ATOM      9  S   UNL     1       4.301   3.775  16.936  0.00  0.00    +0.000 S 
ATOM     10  C   UNL     1       2.902   3.636  18.052  0.00  0.00    +0.000 A 
ATOM     11  C   UNL     1       2.230   2.402  18.036  0.00  0.00    +0.000 A 
ATOM     12  C   UNL     1       1.140   2.169  18.871  0.00  0.00    +0.000 A 
ATOM     13  C   UNL     1       0.711   3.167  19.736  0.00  0.00    +0.000 A 
ATOM     14  C   UNL     1       1.365   4.401  19.755  0.00  0.00    +0.000 A 
ATOM     15  C   UNL     1       2.465   4.670  18.914  0.00  0.00    +0.000 A 
ENDBRANCH   4   6
BRANCH   1  17
ATOM     16  N   UNL     1      -0.627  10.761  19.771  0.00  0.00    +0.000 N 
ATOM     17  C   UNL     1       0.524  10.300  20.381  0.00  0.00    +0.000 C 
ATOM     18  O   UNL     1       0.914  10.749  21.455  0.00  0.00    +0.000 OA
ATOM     19  H   UNL     1      -0.861  10.378  18.864  0.00  0.00    +0.000 HD
BRANCH  16  20
ATOM     20  C   UNL     1      -1.432  11.838  20.300  0.00  0.00    +0.000 C 
BRANCH  20  22
ATOM     21  C   UNL     1      -0.575  13.206  18.335  0.00  0.00    +0.000 C 
ATOM     22  C   UNL     1      -0.979  13.209  19.804  0.00  0.00    +0.000 C 
ENDBRANCH  20  22
ENDBRANCH  16  20
ENDBRANCH   1  17
TORSDOF 4
ENDMDL
MODEL 8
REMARK VINA RESULT:      -6.7      1.125      1.344
REMARK  Name = 
REMARK  5 active torsions:
REMARK  status: ('A' for Active; 'I' for Inactive)
REMARK    1  A    between atoms: C_1  and  C_2
REMARK    2  A    between atoms: C_2  and  C_3
REMARK    3  A    between atoms: C_3  and  N_4
REMARK    4  A    between atoms: C_5  and  C_7
REMARK    5  A    between atoms: C_10  and  N_11
REMARK                            x       y       z     vdW  Elec       q    Type
REMARK                         _______ _______ _______ _____ _____    ______ ____
ROOT
ATOM      1  C   UNL     1       5.929   5.080  15.290  0.00  0.00    +0.000 A 
ATOM      2  C   UNL     1       5.347   6.282  15.630  0.00  0.00    +0.000 A 
ATOM      3  C   UNL     1       4.737   6.245  16.920  0.00  0.00    +0.000 A 
ATOM      4  C   UNL     1       4.871   5.027  17.573  0.00  0.00    +0.000 A 
ATOM      5  S   UNL     1       5.746   3.943  16.550  0.00  0.00    +0.000 S 
ENDROOT
BRANCH   4   6
ATOM      6  N   UNL     1       4.405   4.673  18.822  0.00  0.00    +0.000 N 
ATOM      7  C   UNL     1       4.857   3.441  19.487  0.00  0.00    +0.000 C 
ATOM      8  C   UNL     1       3.830   2.330  19.327  0.00  0.00    +0.000 C 
ATOM      9  S   UNL     1       2.302   2.703  20.232  0.00  0.00    +0.000 S 
ATOM     10  C   UNL     1       2.287   4.495  20.124  0.00  0.00    +0.000 A 
ATOM     11  C   UNL     1       1.206   5.134  20.754  0.00  0.00    +0.000 A 
ATOM     12  C   UNL     1       1.095   6.523  20.753  0.00  0.00    +0.000 A 
ATOM     13  C   UNL     1       2.067   7.289  20.123  0.00  0.00    +0.000 A 
ATOM     14  C   UNL     1       3.142   6.665  19.486  0.00  0.00    +0.000 A 
ATOM     15  C   UNL     1       3.276   5.261  19.462  0.00  0.00    +0.000 A 
ENDBRANCH   4   6
BRANCH   1  17
ATOM     16  N   UNL     1       6.001   3.811  13.257  0.00  0.00    +0.000 N 
ATOM     17  C   UNL     1       6.627   4.751  14.052  0.00  0.00    +0.000 C 
ATOM     18  O   UNL     1       7.691   5.272  13.726  0.00  0.00    +0.000 OA
ATOM     19  H   UNL     1       5.152   3.389  13.612  0.00  0.00    +0.000 HD
BRANCH  16  20
ATOM     20  C   UNL     1       6.559   3.315  12.019  0.00  0.00    +0.000 C 
BRANCH  20  22
ATOM     21  C   UNL     1       6.642   0.996  10.978  0.00  0.00    +0.000 C 
ATOM     22  C   UNL     1       5.761   2.148  11.441  0.00  0.00    +0.000 C 
ENDBRANCH  20  22
ENDBRANCH  16  20
ENDBRANCH   1  17
TORSDOF 4
ENDMDL
MODEL 9
REMARK VINA RESULT:      -6.5      4.520      7.766
REMARK  Name = 
REMARK  5 active torsions:
REMARK  status: ('A' for Active; 'I' for Inactive)
REMARK    1  A    between atoms: C_1  and  C_2
REMARK    2  A    between atoms: C_2  and  C_3
REMARK    3  A    between atoms: C_3  and  N_4
REMARK    4  A    between atoms: C_5  and  C_7
REMARK    5  A    between atoms: C_10  and  N_11
REMARK                            x       y       z     vdW  Elec       q    Type
REMARK                         _______ _______ _______ _____ _____    ______ ____
ROOT
ATOM      1  C   UNL     1       1.211   9.280  19.455  0.00  0.00    +0.000 A 
ATOM      2  C   UNL     1       1.108   8.736  20.718  0.00  0.00    +0.000 A 
ATOM      3  C   UNL     1       1.736   7.458  20.812  0.00  0.00    +0.000 A 
ATOM      4  C   UNL     1       2.337   7.037  19.633  0.00  0.00    +0.000 A 
ATOM      5  S   UNL     1       2.089   8.243  18.421  0.00  0.00    +0.000 S 
ENDROOT
BRANCH   4   6
ATOM      6  N   UNL     1       3.026   5.865  19.398  0.00  0.00    +0.000 N 
ATOM      7  C   UNL     1       4.467   5.870  19.101  0.00  0.00    +0.000 C 
ATOM      8  C   UNL     1       4.712   5.740  17.606  0.00  0.00    +0.000 C 
ATOM      9  S   UNL     1       4.210   4.109  16.988  0.00  0.00    +0.000 S 
ATOM     10  C   UNL     1       2.856   3.739  18.108  0.00  0.00    +0.000 A 
ATOM     11  C   UNL     1       2.225   2.499  17.911  0.00  0.00    +0.000 A 
ATOM     12  C   UNL     1       1.172   2.094  18.729  0.00  0.00    +0.000 A 
ATOM     13  C   UNL     1       0.741   2.923  19.755  0.00  0.00    +0.000 A 
ATOM     14  C   UNL     1       1.354   4.162  19.955  0.00  0.00    +0.000 A 
ATOM     15  C   UNL     1       2.415   4.604  19.137  0.00  0.00    +0.000 A 
ENDBRANCH   4   6
BRANCH   1  17
ATOM     16  N   UNL     1      -0.697  10.670  19.037  0.00  0.00    +0.000 N 
ATOM     17  C   UNL     1       0.679  10.558  18.995  0.00  0.00    +0.000 C 
ATOM     18  O   UNL     1       1.393  11.477  18.603  0.00  0.00    +0.000 OA
ATOM     19  H   UNL     1      -1.224   9.855  19.325  0.00  0.00    +0.000 HD
BRANCH  16  20
ATOM     20  C   UNL     1      -1.417  11.835  18.574  0.00  0.00    +0.000 C 
BRANCH  20  22
ATOM     21  C   UNL     1      -3.282  12.669  20.088  0.00  0.00    +0.000 C 
ATOM     22  C   UNL     1      -1.810  12.774  19.712  0.00  0.00    +0.000 C 
ENDBRANCH  20  22
ENDBRANCH  16  20
ENDBRANCH   1  17
TORSDOF 4
ENDMDL
