MODEL 1
REMARK VINA RESULT:      -8.7      0.000      0.000
REMARK  Name = 
REMARK  11 active torsions:
REMARK  status: ('A' for Active; 'I' for Inactive)
REMARK    1  A    between atoms: C_1  and  C_2
REMARK    2  A    between atoms: C_2  and  C_3
REMARK    3  A    between atoms: C_2  and  C_4
REMARK    4  A    between atoms: C_8  and  C_9
REMARK    5  A    between atoms: C_9  and  C_10
REMARK    6  A    between atoms: C_10  and  C_11
REMARK    7  A    between atoms: C_11  and  S_12
REMARK    8  A    between atoms: S_12  and  N_15
REMARK    9  A    between atoms: N_15  and  C_16
REMARK   10  A    between atoms: C_23  and  C_24
REMARK   11  A    between atoms: C_24  and  O_26
REMARK                            x       y       z     vdW  Elec       q    Type
REMARK                         _______ _______ _______ _____ _____    ______ ____
ROOT
ATOM      1  C   UNL     1       4.959   5.197  16.701  0.00  0.00    +0.000 A 
ATOM      2  C   UNL     1       4.500   6.561  16.828  0.00  0.00    +0.000 A 
ATOM      3  C   UNL     1       3.644   7.098  17.701  0.00  0.00    +0.000 A 
ATOM      4  C   UNL     1       2.916   6.472  18.768  0.00  0.00    +0.000 A 
ATOM      5  C   UNL     1       2.123   7.105  19.677  0.00  0.00    +0.000 A 
ATOM      6  C   UNL     1       1.590   6.109  20.612  0.00  0.00    +0.000 A 
ATOM      7  C   UNL     1       2.019   4.879  20.286  0.00  0.00    +0.000 A 
ATOM      8  C   UNL     1       2.900   5.040  19.122  0.00  0.00    +0.000 A 
ATOM      9  C   UNL     1       3.614   4.066  18.536  0.00  0.00    +0.000 A 
ATOM     10  C   UNL     1       4.537   4.146  17.430  0.00  0.00    +0.000 A 
ENDROOT
BRANCH   1  12
ATOM     11  C   UNL     1       7.369   4.549  16.276  0.00  0.00    +0.000 C 
ATOM     12  C   UNL     1       6.058   5.024  15.642  0.00  0.00    +0.000 C 
ATOM     13  C   UNL     1       5.614   4.114  14.496  0.00  0.00    +0.000 C 
ENDBRANCH   1  12
BRANCH   7  14
ATOM     14  C   UNL     1       1.642   3.705  21.087  0.00  0.00    +0.000 C 
ATOM     15  O   UNL     1       2.220   3.383  22.115  0.00  0.00    +0.000 OA
BRANCH  14  16
ATOM     16  O   UNL     1       0.567   3.028  20.631  0.00  0.00    +0.000 OA
ATOM     17  H   UNL     1       0.248   3.338  19.765  0.00  0.00    +0.000 HD
ENDBRANCH  14  16
ENDBRANCH   7  14
BRANCH   5  18
ATOM     18  C   UNL     1       1.716   8.542  19.913  0.00  0.00    +0.000 C 
BRANCH  18  19
ATOM     19  C   UNL     1       1.178   9.325  18.706  0.00  0.00    +0.000 C 
BRANCH  19  20
ATOM     20  C   UNL     1       1.280  10.841  18.787  0.00  0.00    +0.000 C 
BRANCH  20  21
ATOM     21  S   UNL     1      -0.145  11.654  19.482  0.00  0.00    +0.000 S 
ATOM     22  O   UNL     1       0.031  11.717  20.917  0.00  0.00    +0.000 OA
ATOM     23  O   UNL     1      -0.432  12.841  18.703  0.00  0.00    +0.000 OA
BRANCH  21  24
ATOM     24  N   UNL     1      -1.365  10.533  19.226  0.00  0.00    +0.000 N 
ATOM     25  H   UNL     1      -1.255   9.628  19.679  0.00  0.00    +0.000 HD
BRANCH  24  26
ATOM     26  C   UNL     1      -2.220  10.662  18.105  0.00  0.00    +0.000 A 
ATOM     27  C   UNL     1      -3.377  11.442  18.187  0.00  0.00    +0.000 A 
ATOM     28  C   UNL     1      -4.238  11.519  17.091  0.00  0.00    +0.000 A 
ATOM     29  C   UNL     1      -3.931  10.836  15.914  0.00  0.00    +0.000 A 
ATOM     30  C   UNL     1      -2.767  10.072  15.832  0.00  0.00    +0.000 A 
ATOM     31  C   UNL     1      -1.915   9.977  16.933  0.00  0.00    +0.000 A 
ENDBRANCH  24  26
ENDBRANCH  21  24
ENDBRANCH  20  21
ENDBRANCH  19  20
ENDBRANCH  18  19
ENDBRANCH   5  18
TORSDOF 9
ENDMDL
MODEL 2
REMARK VINA RESULT:      -8.5      0.623      1.401
REMARK  Name = 
REMARK  11 active torsions:
REMARK  status: ('A' for Active; 'I' for Inactive)
REMARK    1  A    between atoms: C_1  and  C_2
REMARK    2  A    between atoms: C_2  and  C_3
REMARK    3  A    between atoms: C_2  and  C_4
REMARK    4  A    between atoms: C_8  and  C_9
REMARK    5  A    between atoms: C_9  and  C_10
REMARK    6  A    between atoms: C_10  and  C_11
REMARK    7  A    between atoms: C_11  and  S_12
REMARK    8  A    between atoms: S_12  and  N_15
REMARK    9  A    between atoms: N_15  and  C_16
REMARK   10  A    between atoms: C_23  and  C_24
REMARK   11  A    between atoms: C_24  and  O_26
REMARK                            x       y       z     vdW  Elec       q    Type
REMARK                         _______ _______ _______ _____ _____    ______ ____
ROOT
ATOM      1  C   UNL     1       5.037   4.394  16.449  0.00  0.00    +0.000 A 
ATOM      2  C   UNL     1       4.678   5.792  16.513  0.00  0.00    +0.000 A 
ATOM      3  C   UNL     1       3.874   6.432  17.366  0.00  0.00    +0.000 A 
ATOM      4  C   UNL     1       3.118   5.913  18.470  0.00  0.00    +0.000 A 
ATOM      5  C   UNL     1       2.384   6.645  19.354  0.00  0.00    +0.000 A 
ATOM      6  C   UNL     1       1.794   5.737  20.343  0.00  0.00    +0.000 A 
ATOM      7  C   UNL     1       2.131   4.465  20.075  0.00  0.00    +0.000 A 
ATOM      8  C   UNL     1       3.005   4.505  18.896  0.00  0.00    +0.000 A 
ATOM      9  C   UNL     1       3.640   3.455  18.352  0.00  0.00    +0.000 A 
ATOM     10  C   UNL     1       4.551   3.414  17.234  0.00  0.00    +0.000 A 
ENDROOT
BRANCH   1  12
ATOM     11  C   UNL     1       5.502   4.068  13.982  0.00  0.00    +0.000 C 
ATOM     12  C   UNL     1       6.106   4.092  15.390  0.00  0.00    +0.000 C 
ATOM     13  C   UNL     1       7.297   5.047  15.485  0.00  0.00    +0.000 C 
ENDBRANCH   1  12
BRANCH   7  14
ATOM     14  C   UNL     1       1.681   3.362  20.937  0.00  0.00    +0.000 C 
ATOM     15  O   UNL     1       0.870   2.522  20.579  0.00  0.00    +0.000 OA
BRANCH  14  16
ATOM     16  O   UNL     1       2.273   3.312  22.149  0.00  0.00    +0.000 OA
ATOM     17  H   UNL     1       3.005   3.945  22.254  0.00  0.00    +0.000 HD
ENDBRANCH  14  16
ENDBRANCH   7  14
BRANCH   5  18
ATOM     18  C   UNL     1       2.083   8.118  19.523  0.00  0.00    +0.000 C 
BRANCH  18  19
ATOM     19  C   UNL     1       1.519   8.861  18.302  0.00  0.00    +0.000 C 
BRANCH  19  20
ATOM     20  C   UNL     1       1.580  10.380  18.351  0.00  0.00    +0.000 C 
BRANCH  20  21
ATOM     21  S   UNL     1       0.312  11.153  19.335  0.00  0.00    +0.000 S 
ATOM     22  O   UNL     1       0.686  11.026  20.727  0.00  0.00    +0.000 OA
ATOM     23  O   UNL     1      -0.011  12.439  18.754  0.00  0.00    +0.000 OA
BRANCH  21  24
ATOM     24  N   UNL     1      -0.993  10.122  19.123  0.00  0.00    +0.000 N 
ATOM     25  H   UNL     1      -0.891   9.177  19.487  0.00  0.00    +0.000 HD
BRANCH  24  26
ATOM     26  C   UNL     1      -1.949  10.391  18.114  0.00  0.00    +0.000 A 
ATOM     27  C   UNL     1      -1.835   9.792  16.857  0.00  0.00    +0.000 A 
ATOM     28  C   UNL     1      -2.754  10.106  15.855  0.00  0.00    +0.000 A 
ATOM     29  C   UNL     1      -3.794  10.999  16.118  0.00  0.00    +0.000 A 
ATOM     30  C   UNL     1      -3.912  11.583  17.379  0.00  0.00    +0.000 A 
ATOM     31  C   UNL     1      -2.982  11.286  18.375  0.00  0.00    +0.000 A 
ENDBRANCH  24  26
ENDBRANCH  21  24
ENDBRANCH  20  21
ENDBRANCH  19  20
ENDBRANCH  18  19
ENDBRANCH   5  18
TORSDOF 9
ENDMDL
MODEL 3
REMARK VINA RESULT:      -8.3      1.230      1.544
REMARK  Name = 
REMARK  11 active torsions:
REMARK  status: ('A' for Active; 'I' for Inactive)
REMARK    1  A    between atoms: C_1  and  C_2
REMARK    2  A    between atoms: C_2  and  C_3
REMARK    3  A    between atoms: C_2  and  C_4
REMARK    4  A    between atoms: C_8  and  C_9
REMARK    5  A    between atoms: C_9  and  C_10
REMARK    6  A    between atoms: C_10  and  C_11
REMARK    7  A    between atoms: C_11  and  S_12
REMARK    8  A    between atoms: S_12  and  N_15
REMARK    9  A    between atoms: N_15  and  C_16
REMARK   10  A    between atoms: C_23  and  C_24
REMARK   11  A    between atoms: C_24  and  O_26
REMARK                            x       y       z     vdW  Elec       q    Type
REMARK                         _______ _______ _______ _____ _____    ______ ____
ROOT
ATOM      1  C   UNL     1       4.872   4.552  16.740  0.00  0.00    +0.000 A 
ATOM      2  C   UNL     1       4.490   5.942  16.838  0.00  0.00    +0.000 A 
ATOM      3  C   UNL     1       3.681   6.548  17.711  0.00  0.00    +0.000 A 
ATOM      4  C   UNL     1       2.941   5.991  18.808  0.00  0.00    +0.000 A 
ATOM      5  C   UNL     1       2.201   6.690  19.714  0.00  0.00    +0.000 A 
ATOM      6  C   UNL     1       1.634   5.750  20.685  0.00  0.00    +0.000 A 
ATOM      7  C   UNL     1       1.990   4.490  20.385  0.00  0.00    +0.000 A 
ATOM      8  C   UNL     1       2.855   4.572  19.202  0.00  0.00    +0.000 A 
ATOM      9  C   UNL     1       3.504   3.546  18.630  0.00  0.00    +0.000 A 
ATOM     10  C   UNL     1       4.408   3.547  17.505  0.00  0.00    +0.000 A 
ENDROOT
BRANCH   1  12
ATOM     11  C   UNL     1       5.320   4.262  14.265  0.00  0.00    +0.000 C 
ATOM     12  C   UNL     1       5.939   4.293  15.667  0.00  0.00    +0.000 C 
ATOM     13  C   UNL     1       7.099   5.285  15.757  0.00  0.00    +0.000 C 
ENDBRANCH   1  12
BRANCH   7  14
ATOM     14  C   UNL     1       1.566   3.360  21.225  0.00  0.00    +0.000 C 
ATOM     15  O   UNL     1       2.147   3.033  22.249  0.00  0.00    +0.000 OA
BRANCH  14  16
ATOM     16  O   UNL     1       0.445   2.734  20.809  0.00  0.00    +0.000 OA
ATOM     17  H   UNL     1      -0.209   3.329  20.403  0.00  0.00    +0.000 HD
ENDBRANCH  14  16
ENDBRANCH   7  14
BRANCH   5  18
ATOM     18  C   UNL     1       1.877   8.153  19.918  0.00  0.00    +0.000 C 
BRANCH  18  19
ATOM     19  C   UNL     1       1.353   8.568  21.301  0.00  0.00    +0.000 C 
BRANCH  19  20
ATOM     20  C   UNL     1      -0.063   9.124  21.346  0.00  0.00    +0.000 C 
BRANCH  20  21
ATOM     21  S   UNL     1      -0.181  10.895  21.191  0.00  0.00    +0.000 S 
ATOM     22  O   UNL     1      -1.490  11.299  21.657  0.00  0.00    +0.000 OA
ATOM     23  O   UNL     1       1.027  11.491  21.723  0.00  0.00    +0.000 OA
BRANCH  21  24
ATOM     24  N   UNL     1      -0.205  11.114  19.529  0.00  0.00    +0.000 N 
ATOM     25  H   UNL     1       0.566  11.646  19.129  0.00  0.00    +0.000 HD
BRANCH  24  26
ATOM     26  C   UNL     1      -1.421  10.987  18.817  0.00  0.00    +0.000 A 
ATOM     27  C   UNL     1      -2.340  12.040  18.798  0.00  0.00    +0.000 A 
ATOM     28  C   UNL     1      -3.558  11.883  18.136  0.00  0.00    +0.000 A 
ATOM     29  C   UNL     1      -3.846  10.686  17.480  0.00  0.00    +0.000 A 
ATOM     30  C   UNL     1      -2.919   9.643  17.489  0.00  0.00    +0.000 A 
ATOM     31  C   UNL     1      -1.709   9.791  18.167  0.00  0.00    +0.000 A 
ENDBRANCH  24  26
ENDBRANCH  21  24
ENDBRANCH  20  21
ENDBRANCH  19  20
ENDBRANCH  18  19
ENDBRANCH   5  18
TORSDOF 9
ENDMDL
MODEL 4
REMARK VINA RESULT:      -8.1      2.890      3.522
REMARK  Name = 
REMARK  11 active torsions:
REMARK  status: ('A' for Active; 'I' for Inactive)
REMARK    1  A    between atoms: C_1  and  C_2
REMARK    2  A    between atoms: C_2  and  C_3
REMARK    3  A    between atoms: C_2  and  C_4
REMARK    4  A    between atoms: C_8  and  C_9
REMARK    5  A    between atoms: C_9  and  C_10
REMARK    6  A    between atoms: C_10  and  C_11
REMARK    7  A    between atoms: C_11  and  S_12
REMARK    8  A    between atoms: S_12  and  N_15
REMARK    9  A    between atoms: N_15  and  C_16
REMARK   10  A    between atoms: C_23  and  C_24
REMARK   11  A    between atoms: C_24  and  O_26
REMARK                            x       y       z     vdW  Elec       q    Type
REMARK                         _______ _______ _______ _____ _____    ______ ____
ROOT
ATOM      1  C   UNL     1       4.772   5.329  16.730  0.00  0.00    +0.000 A 
ATOM      2  C   UNL     1       4.395   6.698  16.998  0.00  0.00    +0.000 A 
ATOM      3  C   UNL     1       3.589   7.195  17.940  0.00  0.00    +0.000 A 
ATOM      4  C   UNL     1       2.848   6.510  18.960  0.00  0.00    +0.000 A 
ATOM      5  C   UNL     1       2.111   7.095  19.946  0.00  0.00    +0.000 A 
ATOM      6  C   UNL     1       1.540   6.045  20.795  0.00  0.00    +0.000 A 
ATOM      7  C   UNL     1       1.891   4.831  20.343  0.00  0.00    +0.000 A 
ATOM      8  C   UNL     1       2.756   5.054  19.177  0.00  0.00    +0.000 A 
ATOM      9  C   UNL     1       3.401   4.103  18.483  0.00  0.00    +0.000 A 
ATOM     10  C   UNL     1       4.305   4.238  17.366  0.00  0.00    +0.000 A 
ENDROOT
BRANCH   1  12
ATOM     11  C   UNL     1       7.179   4.739  16.213  0.00  0.00    +0.000 C 
ATOM     12  C   UNL     1       5.837   5.199  15.632  0.00  0.00    +0.000 C 
ATOM     13  C   UNL     1       5.374   4.300  14.484  0.00  0.00    +0.000 C 
ENDBRANCH   1  12
BRANCH   7  14
ATOM     14  C   UNL     1       1.463   3.608  21.037  0.00  0.00    +0.000 C 
ATOM     15  O   UNL     1       2.003   3.190  22.051  0.00  0.00    +0.000 OA
BRANCH  14  16
ATOM     16  O   UNL     1       0.385   2.998  20.501  0.00  0.00    +0.000 OA
ATOM     17  H   UNL     1      -0.319   3.614  20.230  0.00  0.00    +0.000 HD
ENDBRANCH  14  16
ENDBRANCH   7  14
BRANCH   5  18
ATOM     18  C   UNL     1       1.792   8.524  20.328  0.00  0.00    +0.000 C 
BRANCH  18  19
ATOM     19  C   UNL     1       0.408   8.793  20.938  0.00  0.00    +0.000 C 
BRANCH  19  20
ATOM     20  C   UNL     1      -0.489   9.755  20.173  0.00  0.00    +0.000 C 
BRANCH  20  21
ATOM     21  S   UNL     1      -0.519  11.420  20.806  0.00  0.00    +0.000 S 
ATOM     22  O   UNL     1       0.845  11.898  20.874  0.00  0.00    +0.000 OA
ATOM     23  O   UNL     1      -1.547  12.166  20.109  0.00  0.00    +0.000 OA
BRANCH  21  24
ATOM     24  N   UNL     1      -0.999  11.197  22.397  0.00  0.00    +0.000 N 
ATOM     25  H   UNL     1      -1.062  10.234  22.723  0.00  0.00    +0.000 HD
BRANCH  24  26
ATOM     26  C   UNL     1      -1.708  12.219  23.071  0.00  0.00    +0.000 A 
ATOM     27  C   UNL     1      -3.017  11.999  23.508  0.00  0.00    +0.000 A 
ATOM     28  C   UNL     1      -3.724  13.032  24.124  0.00  0.00    +0.000 A 
ATOM     29  C   UNL     1      -3.116  14.272  24.321  0.00  0.00    +0.000 A 
ATOM     30  C   UNL     1      -1.803  14.482  23.897  0.00  0.00    +0.000 A 
ATOM     31  C   UNL     1      -1.103  13.458  23.262  0.00  0.00    +0.000 A 
ENDBRANCH  24  26
ENDBRANCH  21  24
ENDBRANCH  20  21
ENDBRANCH  19  20
ENDBRANCH  18  19
ENDBRANCH   5  18
TORSDOF 9
ENDMDL
MODEL 5
REMARK VINA RESULT:      -8.0      2.207      2.622
REMARK  Name = 
REMARK  11 active torsions:
REMARK  status: ('A' for Active; 'I' for Inactive)
REMARK    1  A    between atoms: C_1  and  C_2
REMARK    2  A    between atoms: C_2  and  C_3
REMARK    3  A    between atoms: C_2  and  C_4
REMARK    4  A    between atoms: C_8  and  C_9
REMARK    5  A    between atoms: C_9  and  C_10
REMARK    6  A    between atoms: C_10  and  C_11
REMARK    7  A    between atoms: C_11  and  S_12
REMARK    8  A    between atoms: S_12  and  N_15
REMARK    9  A    between atoms: N_15  and  C_16
REMARK   10  A    between atoms: C_23  and  C_24
REMARK   11  A    between atoms: C_24  and  O_26
REMARK                            x       y       z     vdW  Elec       q    Type
REMARK                         _______ _______ _______ _____ _____    ______ ____
ROOT
ATOM      1  C   UNL     1       4.833   5.148  16.400  0.00  0.00    +0.000 A 
ATOM      2  C   UNL     1       4.538   6.493  16.837  0.00  0.00    +0.000 A 
ATOM      3  C   UNL     1       3.700   6.920  17.786  0.00  0.00    +0.000 A 
ATOM      4  C   UNL     1       2.834   6.165  18.645  0.00  0.00    +0.000 A 
ATOM      5  C   UNL     1       2.068   6.668  19.654  0.00  0.00    +0.000 A 
ATOM      6  C   UNL     1       1.358   5.561  20.303  0.00  0.00    +0.000 A 
ATOM      7  C   UNL     1       1.653   4.396  19.705  0.00  0.00    +0.000 A 
ATOM      8  C   UNL     1       2.620   4.706  18.644  0.00  0.00    +0.000 A 
ATOM      9  C   UNL     1       3.244   3.810  17.863  0.00  0.00    +0.000 A 
ATOM     10  C   UNL     1       4.239   4.023  16.840  0.00  0.00    +0.000 A 
ENDROOT
BRANCH   1  12
ATOM     11  C   UNL     1       7.302   4.726  16.031  0.00  0.00    +0.000 C 
ATOM     12  C   UNL     1       5.967   5.083  15.368  0.00  0.00    +0.000 C 
ATOM     13  C   UNL     1       5.637   4.142  14.208  0.00  0.00    +0.000 C 
ENDBRANCH   1  12
BRANCH   7  14
ATOM     14  C   UNL     1       1.084   3.129  20.186  0.00  0.00    +0.000 C 
ATOM     15  O   UNL     1       1.344   2.653  21.281  0.00  0.00    +0.000 OA
BRANCH  14  16
ATOM     16  O   UNL     1       0.204   2.546  19.346  0.00  0.00    +0.000 OA
ATOM     17  H   UNL     1      -0.533   3.127  19.086  0.00  0.00    +0.000 HD
ENDBRANCH  14  16
ENDBRANCH   7  14
BRANCH   5  18
ATOM     18  C   UNL     1       1.827   8.051  20.217  0.00  0.00    +0.000 C 
BRANCH  18  19
ATOM     19  C   UNL     1       0.996   8.147  21.505  0.00  0.00    +0.000 C 
BRANCH  19  20
ATOM     20  C   UNL     1      -0.297   8.945  21.416  0.00  0.00    +0.000 C 
BRANCH  20  21
ATOM     21  S   UNL     1      -0.223  10.579  22.121  0.00  0.00    +0.000 S 
ATOM     22  O   UNL     1      -0.738  10.508  23.471  0.00  0.00    +0.000 OA
ATOM     23  O   UNL     1       1.077  11.151  21.837  0.00  0.00    +0.000 OA
BRANCH  21  24
ATOM     24  N   UNL     1      -1.381  11.410  21.238  0.00  0.00    +0.000 N 
ATOM     25  H   UNL     1      -2.252  10.916  21.050  0.00  0.00    +0.000 HD
BRANCH  24  26
ATOM     26  C   UNL     1      -1.000  12.504  20.425  0.00  0.00    +0.000 A 
ATOM     27  C   UNL     1      -1.171  13.814  20.881  0.00  0.00    +0.000 A 
ATOM     28  C   UNL     1      -0.840  14.884  20.048  0.00  0.00    +0.000 A 
ATOM     29  C   UNL     1      -0.321  14.643  18.776  0.00  0.00    +0.000 A 
ATOM     30  C   UNL     1      -0.138  13.333  18.332  0.00  0.00    +0.000 A 
ATOM     31  C   UNL     1      -0.488  12.262  19.154  0.00  0.00    +0.000 A 
ENDBRANCH  24  26
ENDBRANCH  21  24
ENDBRANCH  20  21
ENDBRANCH  19  20
ENDBRANCH  18  19
ENDBRANCH   5  18
TORSDOF 9
ENDMDL
MODEL 6
REMARK VINA RESULT:      -8.0      0.824      1.210
REMARK  Name = 
REMARK  11 active torsions:
REMARK  status: ('A' for Active; 'I' for Inactive)
REMARK    1  A    between atoms: C_1  and  C_2
REMARK    2  A    between atoms: C_2  and  C_3
REMARK    3  A    between atoms: C_2  and  C_4
REMARK    4  A    between atoms: C_8  and  C_9
REMARK    5  A    between atoms: C_9  and  C_10
REMARK    6  A    between atoms: C_10  and  C_11
REMARK    7  A    between atoms: C_11  and  S_12
REMARK    8  A    between atoms: S_12  and  N_15
REMARK    9  A    between atoms: N_15  and  C_16
REMARK   10  A    between atoms: C_23  and  C_24
REMARK   11  A    between atoms: C_24  and  O_26
REMARK                            x       y       z     vdW  Elec       q    Type
REMARK                         _______ _______ _______ _____ _____    ______ ____
ROOT
ATOM      1  C   UNL     1       5.179   4.429  16.122  0.00  0.00    +0.000 A 
ATOM      2  C   UNL     1       4.989   5.858  16.229  0.00  0.00    +0.000 A 
ATOM      3  C   UNL     1       4.171   6.556  17.020  0.00  0.00    +0.000 A 
ATOM      4  C   UNL     1       3.225   6.089  17.993  0.00  0.00    +0.000 A 
ATOM      5  C   UNL     1       2.482   6.869  18.828  0.00  0.00    +0.000 A 
ATOM      6  C   UNL     1       1.667   6.001  19.683  0.00  0.00    +0.000 A 
ATOM      7  C   UNL     1       1.875   4.710  19.379  0.00  0.00    +0.000 A 
ATOM      8  C   UNL     1       2.887   4.690  18.315  0.00  0.00    +0.000 A 
ATOM      9  C   UNL     1       3.450   3.592  17.786  0.00  0.00    +0.000 A 
ATOM     10  C   UNL     1       4.482   3.486  16.783  0.00  0.00    +0.000 A 
ENDROOT
BRANCH   1  12
ATOM     11  C   UNL     1       5.800   3.678  13.786  0.00  0.00    +0.000 C 
ATOM     12  C   UNL     1       6.326   4.040  15.179  0.00  0.00    +0.000 C 
ATOM     13  C   UNL     1       7.412   5.115  15.119  0.00  0.00    +0.000 C 
ENDBRANCH   1  12
BRANCH   7  14
ATOM     14  C   UNL     1       1.190   3.636  20.113  0.00  0.00    +0.000 C 
ATOM     15  O   UNL     1       0.469   2.811  19.572  0.00  0.00    +0.000 OA
BRANCH  14  16
ATOM     16  O   UNL     1       1.456   3.593  21.435  0.00  0.00    +0.000 OA
ATOM     17  H   UNL     1       2.350   3.902  21.665  0.00  0.00    +0.000 HD
ENDBRANCH  14  16
ENDBRANCH   7  14
BRANCH   5  18
ATOM     18  C   UNL     1       2.347   8.359  19.050  0.00  0.00    +0.000 C 
BRANCH  18  19
ATOM     19  C   UNL     1       1.630   9.168  17.958  0.00  0.00    +0.000 C 
BRANCH  19  20
ATOM     20  C   UNL     1       1.597  10.677  18.149  0.00  0.00    +0.000 C 
BRANCH  20  21
ATOM     21  S   UNL     1       0.233  11.282  19.122  0.00  0.00    +0.000 S 
ATOM     22  O   UNL     1       0.572  11.117  20.519  0.00  0.00    +0.000 OA
ATOM     23  O   UNL     1      -0.184  12.564  18.593  0.00  0.00    +0.000 OA
BRANCH  21  24
ATOM     24  N   UNL     1      -0.966  10.153  18.811  0.00  0.00    +0.000 N 
ATOM     25  H   UNL     1      -0.727   9.177  18.977  0.00  0.00    +0.000 HD
BRANCH  24  26
ATOM     26  C   UNL     1      -2.038  10.481  17.947  0.00  0.00    +0.000 A 
ATOM     27  C   UNL     1      -3.034  11.368  18.365  0.00  0.00    +0.000 A 
ATOM     28  C   UNL     1      -4.113  11.642  17.524  0.00  0.00    +0.000 A 
ATOM     29  C   UNL     1      -4.184  11.048  16.264  0.00  0.00    +0.000 A 
ATOM     30  C   UNL     1      -3.179  10.174  15.846  0.00  0.00    +0.000 A 
ATOM     31  C   UNL     1      -2.111   9.883  16.693  0.00  0.00    +0.000 A 
ENDBRANCH  24  26
ENDBRANCH  21  24
ENDBRANCH  20  21
ENDBRANCH  19  20
ENDBRANCH  18  19
ENDBRANCH   5  18
TORSDOF 9
ENDMDL
MODEL 7
REMARK VINA RESULT:      -8.0      1.297      1.848
REMARK  Name = 
REMARK  11 active torsions:
REMARK  status: ('A' for Active; 'I' for Inactive)
REMARK    1  A    between atoms: C_1  and  C_2
REMARK    2  A    between atoms: C_2  and  C_3
REMARK    3  A    between atoms: C_2  and  C_4
REMARK    4  A    between atoms: C_8  and  C_9
REMARK    5  A    between atoms: C_9  and  C_10
REMARK    6  A    between atoms: C_10  and  C_11
REMARK    7  A    between atoms: C_11  and  S_12
REMARK    8  A    between atoms: S_12  and  N_15
REMARK    9  A    between atoms: N_15  and  C_16
REMARK   10  A    between atoms: C_23  and  C_24
REMARK   11  A    between atoms: C_24  and  O_26
REMARK                            x       y       z     vdW  Elec       q    Type
REMARK                         _______ _______ _______ _____ _____    ______ ____
ROOT
ATOM      1  C   UNL     1       4.943   4.357  16.432  0.00  0.00    +0.000 A 
ATOM      2  C   UNL     1       4.722   5.767  16.654  0.00  0.00    +0.000 A 
ATOM      3  C   UNL     1       3.912   6.382  17.520  0.00  0.00    +0.000 A 
ATOM      4  C   UNL     1       3.010   5.817  18.483  0.00  0.00    +0.000 A 
ATOM      5  C   UNL     1       2.276   6.511  19.398  0.00  0.00    +0.000 A 
ATOM      6  C   UNL     1       1.510   5.559  20.208  0.00  0.00    +0.000 A 
ATOM      7  C   UNL     1       1.740   4.301  19.800  0.00  0.00    +0.000 A 
ATOM      8  C   UNL     1       2.718   4.389  18.708  0.00  0.00    +0.000 A 
ATOM      9  C   UNL     1       3.290   3.350  18.079  0.00  0.00    +0.000 A 
ATOM     10  C   UNL     1       4.291   3.347  17.039  0.00  0.00    +0.000 A 
ENDROOT
BRANCH   1  12
ATOM     11  C   UNL     1       5.542   4.081  13.988  0.00  0.00    +0.000 C 
ATOM     12  C   UNL     1       6.067   4.070  15.428  0.00  0.00    +0.000 C 
ATOM     13  C   UNL     1       7.255   5.017  15.609  0.00  0.00    +0.000 C 
ENDBRANCH   1  12
BRANCH   7  14
ATOM     14  C   UNL     1       1.105   3.157  20.470  0.00  0.00    +0.000 C 
ATOM     15  O   UNL     1       1.411   2.786  21.593  0.00  0.00    +0.000 OA
BRANCH  14  16
ATOM     16  O   UNL     1       0.112   2.568  19.770  0.00  0.00    +0.000 OA
ATOM     17  H   UNL     1      -0.748   2.579  20.226  0.00  0.00    +0.000 HD
ENDBRANCH  14  16
ENDBRANCH   7  14
BRANCH   5  18
ATOM     18  C   UNL     1       2.112   7.976  19.737  0.00  0.00    +0.000 C 
BRANCH  18  19
ATOM     19  C   UNL     1       1.640   8.907  18.610  0.00  0.00    +0.000 C 
BRANCH  19  20
ATOM     20  C   UNL     1       0.600   9.951  18.989  0.00  0.00    +0.000 C 
BRANCH  20  21
ATOM     21  S   UNL     1       1.184  11.635  18.972  0.00  0.00    +0.000 S 
ATOM     22  O   UNL     1       1.075  12.160  20.316  0.00  0.00    +0.000 OA
ATOM     23  O   UNL     1       2.432  11.688  18.238  0.00  0.00    +0.000 OA
BRANCH  21  24
ATOM     24  N   UNL     1       0.001  12.421  18.082  0.00  0.00    +0.000 N 
ATOM     25  H   UNL     1       0.285  13.268  17.594  0.00  0.00    +0.000 HD
BRANCH  24  26
ATOM     26  C   UNL     1      -1.367  12.198  18.371  0.00  0.00    +0.000 A 
ATOM     27  C   UNL     1      -2.203  11.613  17.417  0.00  0.00    +0.000 A 
ATOM     28  C   UNL     1      -3.560  11.447  17.695  0.00  0.00    +0.000 A 
ATOM     29  C   UNL     1      -4.072  11.845  18.931  0.00  0.00    +0.000 A 
ATOM     30  C   UNL     1      -3.230  12.414  19.886  0.00  0.00    +0.000 A 
ATOM     31  C   UNL     1      -1.877  12.601  19.602  0.00  0.00    +0.000 A 
ENDBRANCH  24  26
ENDBRANCH  21  24
ENDBRANCH  20  21
ENDBRANCH  19  20
ENDBRANCH  18  19
ENDBRANCH   5  18
TORSDOF 9
ENDMDL
MODEL 8
REMARK VINA RESULT:      -8.0      2.198      2.891
REMARK  Name = 
REMARK  11 active torsions:
REMARK  status: ('A' for Active; 'I' for Inactive)
REMARK    1  A    between atoms: C_1  and  C_2
REMARK    2  A    between atoms: C_2  and  C_3
REMARK    3  A    between atoms: C_2  and  C_4
REMARK    4  A    between atoms: C_8  and  C_9
REMARK    5  A    between atoms: C_9  and  C_10
REMARK    6  A    between atoms: C_10  and  C_11
REMARK    7  A    between atoms: C_11  and  S_12
REMARK    8  A    between atoms: S_12  and  N_15
REMARK    9  A    between atoms: N_15  and  C_16
REMARK   10  A    between atoms: C_23  and  C_24
REMARK   11  A    between atoms: C_24  and  O_26
REMARK                            x       y       z     vdW  Elec       q    Type
REMARK                         _______ _______ _______ _____ _____    ______ ____
ROOT
ATOM      1  C   UNL     1       4.867   5.278  16.594  0.00  0.00    +0.000 A 
ATOM      2  C   UNL     1       4.441   6.647  16.775  0.00  0.00    +0.000 A 
ATOM      3  C   UNL     1       3.614   7.174  17.682  0.00  0.00    +0.000 A 
ATOM      4  C   UNL     1       2.894   6.529  18.742  0.00  0.00    +0.000 A 
ATOM      5  C   UNL     1       2.133   7.149  19.688  0.00  0.00    +0.000 A 
ATOM      6  C   UNL     1       1.596   6.135  20.601  0.00  0.00    +0.000 A 
ATOM      7  C   UNL     1       1.992   4.908  20.227  0.00  0.00    +0.000 A 
ATOM      8  C   UNL     1       2.853   5.087  19.051  0.00  0.00    +0.000 A 
ATOM      9  C   UNL     1       3.533   4.117  18.419  0.00  0.00    +0.000 A 
ATOM     10  C   UNL     1       4.435   4.214  17.298  0.00  0.00    +0.000 A 
ENDROOT
BRANCH   1  12
ATOM     11  C   UNL     1       7.261   4.616  16.104  0.00  0.00    +0.000 C 
ATOM     12  C   UNL     1       5.940   5.116  15.509  0.00  0.00    +0.000 C 
ATOM     13  C   UNL     1       5.462   4.233  14.354  0.00  0.00    +0.000 C 
ENDBRANCH   1  12
BRANCH   7  14
ATOM     14  C   UNL     1       1.604   3.717  20.997  0.00  0.00    +0.000 C 
ATOM     15  O   UNL     1       2.170   3.371  22.023  0.00  0.00    +0.000 OA
BRANCH  14  16
ATOM     16  O   UNL     1       0.533   3.053  20.515  0.00  0.00    +0.000 OA
ATOM     17  H   UNL     1       0.070   3.523  19.799  0.00  0.00    +0.000 HD
ENDBRANCH  14  16
ENDBRANCH   7  14
BRANCH   5  18
ATOM     18  C   UNL     1       1.763   8.587  19.978  0.00  0.00    +0.000 C 
BRANCH  18  19
ATOM     19  C   UNL     1       1.057   9.368  18.860  0.00  0.00    +0.000 C 
BRANCH  19  20
ATOM     20  C   UNL     1       1.196  10.882  18.904  0.00  0.00    +0.000 C 
BRANCH  20  21
ATOM     21  S   UNL     1      -0.330  11.771  19.140  0.00  0.00    +0.000 S 
ATOM     22  O   UNL     1      -0.326  12.912  18.249  0.00  0.00    +0.000 OA
ATOM     23  O   UNL     1      -1.425  10.824  19.150  0.00  0.00    +0.000 OA
BRANCH  21  24
ATOM     24  N   UNL     1      -0.149  12.402  20.683  0.00  0.00    +0.000 N 
ATOM     25  H   UNL     1       0.786  12.361  21.085  0.00  0.00    +0.000 HD
BRANCH  24  26
ATOM     26  C   UNL     1      -1.276  12.539  21.527  0.00  0.00    +0.000 A 
ATOM     27  C   UNL     1      -1.426  11.710  22.642  0.00  0.00    +0.000 A 
ATOM     28  C   UNL     1      -2.568  11.819  23.437  0.00  0.00    +0.000 A 
ATOM     29  C   UNL     1      -3.544  12.767  23.128  0.00  0.00    +0.000 A 
ATOM     30  C   UNL     1      -3.383  13.602  22.022  0.00  0.00    +0.000 A 
ATOM     31  C   UNL     1      -2.252  13.481  21.215  0.00  0.00    +0.000 A 
ENDBRANCH  24  26
ENDBRANCH  21  24
ENDBRANCH  20  21
ENDBRANCH  19  20
ENDBRANCH  18  19
ENDBRANCH   5  18
TORSDOF 9
ENDMDL
MODEL 9
REMARK VINA RESULT:      -8.0      2.368      3.271
REMARK  Name = 
REMARK  11 active torsions:
REMARK  status: ('A' for Active; 'I' for Inactive)
REMARK    1  A    between atoms: C_1  and  C_2
REMARK    2  A    between atoms: C_2  and  C_3
REMARK    3  A    between atoms: C_2  and  C_4
REMARK    4  A    between atoms: C_8  and  C_9
REMARK    5  A    between atoms: C_9  and  C_10
REMARK    6  A    between atoms: C_10  and  C_11
REMARK    7  A    between atoms: C_11  and  S_12
REMARK    8  A    between atoms: S_12  and  N_15
REMARK    9  A    between atoms: N_15  and  C_16
REMARK   10  A    between atoms: C_23  and  C_24
REMARK   11  A    between atoms: C_24  and  O_26
REMARK                            x       y       z     vdW  Elec       q    Type
REMARK                         _______ _______ _______ _____ _____    ______ ____
ROOT
ATOM      1  C   UNL     1       4.895   5.121  16.341  0.00  0.00    +0.000 A 
ATOM      2  C   UNL     1       4.649   6.441  16.876  0.00  0.00    +0.000 A 
ATOM      3  C   UNL     1       3.814   6.832  17.842  0.00  0.00    +0.000 A 
ATOM      4  C   UNL     1       2.901   6.053  18.628  0.00  0.00    +0.000 A 
ATOM      5  C   UNL     1       2.139   6.511  19.662  0.00  0.00    +0.000 A 
ATOM      6  C   UNL     1       1.371   5.391  20.214  0.00  0.00    +0.000 A 
ATOM      7  C   UNL     1       1.627   4.263  19.532  0.00  0.00    +0.000 A 
ATOM      8  C   UNL     1       2.624   4.609  18.512  0.00  0.00    +0.000 A 
ATOM      9  C   UNL     1       3.224   3.747  17.675  0.00  0.00    +0.000 A 
ATOM     10  C   UNL     1       4.245   3.993  16.685  0.00  0.00    +0.000 A 
ENDROOT
BRANCH   1  12
ATOM     11  C   UNL     1       7.374   4.741  16.001  0.00  0.00    +0.000 C 
ATOM     12  C   UNL     1       6.043   5.084  15.324  0.00  0.00    +0.000 C 
ATOM     13  C   UNL     1       5.742   4.151  14.150  0.00  0.00    +0.000 C 
ENDBRANCH   1  12
BRANCH   7  14
ATOM     14  C   UNL     1       0.995   2.989  19.907  0.00  0.00    +0.000 C 
ATOM     15  O   UNL     1       0.268   2.356  19.155  0.00  0.00    +0.000 OA
BRANCH  14  16
ATOM     16  O   UNL     1       1.318   2.535  21.136  0.00  0.00    +0.000 OA
ATOM     17  H   UNL     1       0.883   1.695  21.370  0.00  0.00    +0.000 HD
ENDBRANCH  14  16
ENDBRANCH   7  14
BRANCH   5  18
ATOM     18  C   UNL     1       1.948   7.857  20.325  0.00  0.00    +0.000 C 
BRANCH  18  19
ATOM     19  C   UNL     1       1.317   8.972  19.476  0.00  0.00    +0.000 C 
BRANCH  19  20
ATOM     20  C   UNL     1       0.062   9.620  20.040  0.00  0.00    +0.000 C 
BRANCH  20  21
ATOM     21  S   UNL     1       0.169  11.382  20.283  0.00  0.00    +0.000 S 
ATOM     22  O   UNL     1      -1.171  11.888  20.492  0.00  0.00    +0.000 OA
ATOM     23  O   UNL     1       1.236  11.658  21.223  0.00  0.00    +0.000 OA
BRANCH  21  24
ATOM     24  N   UNL     1       0.629  11.931  18.768  0.00  0.00    +0.000 N 
ATOM     25  H   UNL     1       0.665  11.238  18.023  0.00  0.00    +0.000 HD
BRANCH  24  26
ATOM     26  C   UNL     1       1.359  13.138  18.645  0.00  0.00    +0.000 A 
ATOM     27  C   UNL     1       0.728  14.367  18.855  0.00  0.00    +0.000 A 
ATOM     28  C   UNL     1       1.445  15.551  18.679  0.00  0.00    +0.000 A 
ATOM     29  C   UNL     1       2.791  15.504  18.317  0.00  0.00    +0.000 A 
ATOM     30  C   UNL     1       3.420  14.274  18.123  0.00  0.00    +0.000 A 
ATOM     31  C   UNL     1       2.700  13.090  18.278  0.00  0.00    +0.000 A 
ENDBRANCH  24  26
ENDBRANCH  21  24
ENDBRANCH  20  21
ENDBRANCH  19  20
ENDBRANCH  18  19
ENDBRANCH   5  18
TORSDOF 9
ENDMDL
