MODEL 1
REMARK VINA RESULT:      -8.2      0.000      0.000
REMARK  Name = 
REMARK  4 active torsions:
REMARK  status: ('A' for Active; 'I' for Inactive)
REMARK    1  A    between atoms: C_1  and  C_2
REMARK    2  A    between atoms: C_2  and  C_3
REMARK    3  A    between atoms: C_9  and  C_11
REMARK    4  A    between atoms: C_20  and  C_21
REMARK                            x       y       z     vdW  Elec       q    Type
REMARK                         _______ _______ _______ _____ _____    ______ ____
ROOT
ATOM      1  C   UNL     1       6.514   3.899  12.558  0.00  0.00    +0.000 A 
ATOM      2  N   UNL     1       7.516   4.395  11.823  0.00  0.00    +0.000 NA
ATOM      3  O   UNL     1       8.076   5.392  12.601  0.00  0.00    +0.000 OA
ATOM      4  N   UNL     1       7.414   5.506  13.803  0.00  0.00    +0.000 NA
ATOM      5  C   UNL     1       6.443   4.588  13.796  0.00  0.00    +0.000 A 
ATOM      6  N   UNL     1       5.558   4.376  14.848  0.00  0.00    +0.000 N 
ATOM      7  C   UNL     1       5.615   5.109  16.021  0.00  0.00    +0.000 C 
ATOM      8  O   UNL     1       6.380   6.046  16.221  0.00  0.00    +0.000 OA
ATOM      9  H   UNL     1       4.875   3.636  14.776  0.00  0.00    +0.000 HD
ENDROOT
BRANCH   7  10
ATOM     10  C   UNL     1       4.699   4.672  17.070  0.00  0.00    +0.000 A 
ATOM     11  O   UNL     1       3.404   4.333  16.774  0.00  0.00    +0.000 OA
ATOM     12  C   UNL     1       2.820   3.929  17.939  0.00  0.00    +0.000 A 
ATOM     13  C   UNL     1       1.508   3.477  18.080  0.00  0.00    +0.000 A 
ATOM     14  C   UNL     1       1.120   3.057  19.361  0.00  0.00    +0.000 A 
ATOM     15  C   UNL     1       2.010   3.114  20.434  0.00  0.00    +0.000 A 
ATOM     16 BR   UNL     1       1.458   2.506  22.141  0.00  0.00    +0.000 Br
ATOM     17  C   UNL     1       3.313   3.596  20.274  0.00  0.00    +0.000 A 
ATOM     18  C   UNL     1       3.725   4.006  18.991  0.00  0.00    +0.000 A 
ATOM     19  C   UNL     1       4.936   4.504  18.431  0.00  0.00    +0.000 A 
ATOM     20  C   UNL     1       6.220   4.752  19.140  0.00  0.00    +0.000 C 
ENDBRANCH   7  10
BRANCH   1  22
ATOM     21  C   UNL     1       4.369   3.256  11.450  0.00  0.00    +0.000 C 
ATOM     22  C   UNL     1       5.710   2.786  11.995  0.00  0.00    +0.000 C 
ENDBRANCH   1  22
TORSDOF 2
ENDMDL
MODEL 2
REMARK VINA RESULT:      -7.6      5.896      7.607
REMARK  Name = 
REMARK  4 active torsions:
REMARK  status: ('A' for Active; 'I' for Inactive)
REMARK    1  A    between atoms: C_1  and  C_2
REMARK    2  A    between atoms: C_2  and  C_3
REMARK    3  A    between atoms: C_9  and  C_11
REMARK    4  A    between atoms: C_20  and  C_21
REMARK                            x       y       z     vdW  Elec       q    Type
REMARK                         _______ _______ _______ _____ _____    ______ ____
ROOT
ATOM      1  C   UNL     1       3.448   3.561  20.212  0.00  0.00    +0.000 A 
ATOM      2  N   UNL     1       4.389   2.888  19.543  0.00  0.00    +0.000 NA
ATOM      3  O   UNL     1       4.846   3.768  18.579  0.00  0.00    +0.000 OA
ATOM      4  N   UNL     1       4.181   4.971  18.659  0.00  0.00    +0.000 NA
ATOM      5  C   UNL     1       3.310   4.862  19.666  0.00  0.00    +0.000 A 
ATOM      6  N   UNL     1       2.455   5.881  20.076  0.00  0.00    +0.000 N 
ATOM      7  C   UNL     1       2.441   7.124  19.467  0.00  0.00    +0.000 C 
ATOM      8  O   UNL     1       3.105   7.425  18.481  0.00  0.00    +0.000 OA
ATOM      9  H   UNL     1       1.852   5.728  20.871  0.00  0.00    +0.000 HD
ENDROOT
BRANCH   7  10
ATOM     10  C   UNL     1       1.579   8.116  20.102  0.00  0.00    +0.000 A 
ATOM     11  O   UNL     1       1.223   7.993  21.420  0.00  0.00    +0.000 OA
ATOM     12  C   UNL     1       0.460   9.082  21.731  0.00  0.00    +0.000 A 
ATOM     13  C   UNL     1      -0.091   9.362  22.981  0.00  0.00    +0.000 A 
ATOM     14  C   UNL     1      -0.800  10.566  23.103  0.00  0.00    +0.000 A 
ATOM     15  C   UNL     1      -0.952  11.421  22.010  0.00  0.00    +0.000 A 
ATOM     16 BR   UNL     1      -1.887  13.054  22.224  0.00  0.00    +0.000 Br
ATOM     17  C   UNL     1      -0.413  11.107  20.759  0.00  0.00    +0.000 A 
ATOM     18  C   UNL     1       0.317   9.909  20.623  0.00  0.00    +0.000 A 
ATOM     19  C   UNL     1       1.026   9.274  19.564  0.00  0.00    +0.000 A 
ATOM     20  C   UNL     1       1.192   9.767  18.170  0.00  0.00    +0.000 C 
ENDBRANCH   7  10
BRANCH   1  22
ATOM     21  C   UNL     1       1.255   2.795  21.134  0.00  0.00    +0.000 C 
ATOM     22  C   UNL     1       2.761   2.880  21.339  0.00  0.00    +0.000 C 
ENDBRANCH   1  22
TORSDOF 2
ENDMDL
MODEL 3
REMARK VINA RESULT:      -7.5      0.989      1.095
REMARK  Name = 
REMARK  4 active torsions:
REMARK  status: ('A' for Active; 'I' for Inactive)
REMARK    1  A    between atoms: C_1  and  C_2
REMARK    2  A    between atoms: C_2  and  C_3
REMARK    3  A    between atoms: C_9  and  C_11
REMARK    4  A    between atoms: C_20  and  C_21
REMARK                            x       y       z     vdW  Elec       q    Type
REMARK                         _______ _______ _______ _____ _____    ______ ____
ROOT
ATOM      1  C   UNL     1       6.653   3.953  12.416  0.00  0.00    +0.000 A 
ATOM      2  N   UNL     1       7.627   4.531  11.704  0.00  0.00    +0.000 NA
ATOM      3  O   UNL     1       8.154   5.502  12.535  0.00  0.00    +0.000 OA
ATOM      4  N   UNL     1       7.500   5.519  13.746  0.00  0.00    +0.000 NA
ATOM      5  C   UNL     1       6.567   4.565  13.692  0.00  0.00    +0.000 A 
ATOM      6  N   UNL     1       5.701   4.255  14.736  0.00  0.00    +0.000 N 
ATOM      7  C   UNL     1       5.740   4.920  15.950  0.00  0.00    +0.000 C 
ATOM      8  O   UNL     1       6.469   5.874  16.200  0.00  0.00    +0.000 OA
ATOM      9  H   UNL     1       5.047   3.494  14.626  0.00  0.00    +0.000 HD
ENDROOT
BRANCH   7  10
ATOM     10  C   UNL     1       4.853   4.385  16.979  0.00  0.00    +0.000 A 
ATOM     11  O   UNL     1       4.544   3.050  17.013  0.00  0.00    +0.000 OA
ATOM     12  C   UNL     1       3.742   2.853  18.100  0.00  0.00    +0.000 A 
ATOM     13  C   UNL     1       3.217   1.630  18.516  0.00  0.00    +0.000 A 
ATOM     14  C   UNL     1       2.456   1.638  19.694  0.00  0.00    +0.000 A 
ATOM     15  C   UNL     1       2.229   2.824  20.393  0.00  0.00    +0.000 A 
ATOM     16 BR   UNL     1       1.225   2.787  21.998  0.00  0.00    +0.000 Br
ATOM     17  C   UNL     1       2.743   4.044  19.941  0.00  0.00    +0.000 A 
ATOM     18  C   UNL     1       3.524   4.052  18.769  0.00  0.00    +0.000 A 
ATOM     19  C   UNL     1       4.229   5.047  18.033  0.00  0.00    +0.000 A 
ATOM     20  C   UNL     1       4.327   6.498  18.346  0.00  0.00    +0.000 C 
ENDBRANCH   7  10
BRANCH   1  22
ATOM     21  C   UNL     1       4.458   3.240  11.456  0.00  0.00    +0.000 C 
ATOM     22  C   UNL     1       5.888   2.843  11.794  0.00  0.00    +0.000 C 
ENDBRANCH   1  22
TORSDOF 2
ENDMDL
MODEL 4
REMARK VINA RESULT:      -7.5      4.408      5.469
REMARK  Name = 
REMARK  4 active torsions:
REMARK  status: ('A' for Active; 'I' for Inactive)
REMARK    1  A    between atoms: C_1  and  C_2
REMARK    2  A    between atoms: C_2  and  C_3
REMARK    3  A    between atoms: C_9  and  C_11
REMARK    4  A    between atoms: C_20  and  C_21
REMARK                            x       y       z     vdW  Elec       q    Type
REMARK                         _______ _______ _______ _____ _____    ______ ____
ROOT
ATOM      1  C   UNL     1       6.769   5.305  17.104  0.00  0.00    +0.000 A 
ATOM      2  N   UNL     1       7.152   4.394  16.203  0.00  0.00    +0.000 NA
ATOM      3  O   UNL     1       5.983   3.785  15.785  0.00  0.00    +0.000 OA
ATOM      4  N   UNL     1       4.893   4.320  16.435  0.00  0.00    +0.000 NA
ATOM      5  C   UNL     1       5.360   5.265  17.255  0.00  0.00    +0.000 A 
ATOM      6  N   UNL     1       4.561   6.052  18.079  0.00  0.00    +0.000 N 
ATOM      7  C   UNL     1       3.183   5.925  18.112  0.00  0.00    +0.000 C 
ATOM      8  O   UNL     1       2.545   5.080  17.494  0.00  0.00    +0.000 OA
ATOM      9  H   UNL     1       4.991   6.769  18.644  0.00  0.00    +0.000 HD
ENDROOT
BRANCH   7  10
ATOM     10  C   UNL     1       2.489   6.914  18.932  0.00  0.00    +0.000 A 
ATOM     11  O   UNL     1       2.267   8.182  18.462  0.00  0.00    +0.000 OA
ATOM     12  C   UNL     1       1.567   8.848  19.427  0.00  0.00    +0.000 A 
ATOM     13  C   UNL     1       1.115  10.166  19.344  0.00  0.00    +0.000 A 
ATOM     14  C   UNL     1       0.366  10.644  20.428  0.00  0.00    +0.000 A 
ATOM     15  C   UNL     1       0.109   9.835  21.536  0.00  0.00    +0.000 A 
ATOM     16 BR   UNL     1      -0.937  10.507  22.964  0.00  0.00    +0.000 Br
ATOM     17  C   UNL     1       0.595   8.525  21.608  0.00  0.00    +0.000 A 
ATOM     18  C   UNL     1       1.336   8.022  20.521  0.00  0.00    +0.000 A 
ATOM     19  C   UNL     1       1.948   6.775  20.207  0.00  0.00    +0.000 A 
ATOM     20  C   UNL     1       1.969   5.547  21.046  0.00  0.00    +0.000 C 
ENDBRANCH   7  10
BRANCH   1  22
ATOM     21  C   UNL     1       7.613   7.630  17.458  0.00  0.00    +0.000 C 
ATOM     22  C   UNL     1       7.811   6.148  17.741  0.00  0.00    +0.000 C 
ENDBRANCH   1  22
TORSDOF 2
ENDMDL
MODEL 5
REMARK VINA RESULT:      -7.3      5.504      6.978
REMARK  Name = 
REMARK  4 active torsions:
REMARK  status: ('A' for Active; 'I' for Inactive)
REMARK    1  A    between atoms: C_1  and  C_2
REMARK    2  A    between atoms: C_2  and  C_3
REMARK    3  A    between atoms: C_9  and  C_11
REMARK    4  A    between atoms: C_20  and  C_21
REMARK                            x       y       z     vdW  Elec       q    Type
REMARK                         _______ _______ _______ _____ _____    ______ ____
ROOT
ATOM      1  C   UNL     1       2.573   3.253  18.395  0.00  0.00    +0.000 A 
ATOM      2  N   UNL     1       3.493   2.572  17.704  0.00  0.00    +0.000 NA
ATOM      3  O   UNL     1       4.357   3.532  17.209  0.00  0.00    +0.000 OA
ATOM      4  N   UNL     1       3.960   4.793  17.593  0.00  0.00    +0.000 NA
ATOM      5  C   UNL     1       2.857   4.641  18.330  0.00  0.00    +0.000 A 
ATOM      6  N   UNL     1       2.158   5.689  18.921  0.00  0.00    +0.000 N 
ATOM      7  C   UNL     1       2.561   7.008  18.798  0.00  0.00    +0.000 C 
ATOM      8  O   UNL     1       3.505   7.388  18.113  0.00  0.00    +0.000 OA
ATOM      9  H   UNL     1       1.352   5.484  19.493  0.00  0.00    +0.000 HD
ENDROOT
BRANCH   7  10
ATOM     10  C   UNL     1       1.792   7.967  19.585  0.00  0.00    +0.000 A 
ATOM     11  O   UNL     1       1.404   7.672  20.866  0.00  0.00    +0.000 OA
ATOM     12  C   UNL     1       0.749   8.768  21.348  0.00  0.00    +0.000 A 
ATOM     13  C   UNL     1       0.208   8.899  22.627  0.00  0.00    +0.000 A 
ATOM     14  C   UNL     1      -0.379  10.133  22.940  0.00  0.00    +0.000 A 
ATOM     15  C   UNL     1      -0.428  11.163  22.000  0.00  0.00    +0.000 A 
ATOM     16 BR   UNL     1      -1.199  12.826  22.474  0.00  0.00    +0.000 Br
ATOM     17  C   UNL     1       0.098  11.000  20.714  0.00  0.00    +0.000 A 
ATOM     18  C   UNL     1       0.707   9.773  20.388  0.00  0.00    +0.000 A 
ATOM     19  C   UNL     1       1.366   9.247  19.240  0.00  0.00    +0.000 A 
ATOM     20  C   UNL     1       1.603   9.937  17.943  0.00  0.00    +0.000 C 
ENDBRANCH   7  10
BRANCH   1  22
ATOM     21  C   UNL     1       1.549   2.624  20.586  0.00  0.00    +0.000 C 
ATOM     22  C   UNL     1       1.493   2.492  19.071  0.00  0.00    +0.000 C 
ENDBRANCH   1  22
TORSDOF 2
ENDMDL
MODEL 6
REMARK VINA RESULT:      -7.3      5.000      6.124
REMARK  Name = 
REMARK  4 active torsions:
REMARK  status: ('A' for Active; 'I' for Inactive)
REMARK    1  A    between atoms: C_1  and  C_2
REMARK    2  A    between atoms: C_2  and  C_3
REMARK    3  A    between atoms: C_9  and  C_11
REMARK    4  A    between atoms: C_20  and  C_21
REMARK                            x       y       z     vdW  Elec       q    Type
REMARK                         _______ _______ _______ _____ _____    ______ ____
ROOT
ATOM      1  C   UNL     1       6.521   5.604  17.651  0.00  0.00    +0.000 A 
ATOM      2  N   UNL     1       6.928   4.642  16.816  0.00  0.00    +0.000 NA
ATOM      3  O   UNL     1       5.769   4.017  16.393  0.00  0.00    +0.000 OA
ATOM      4  N   UNL     1       4.662   4.593  16.972  0.00  0.00    +0.000 NA
ATOM      5  C   UNL     1       5.107   5.580  17.754  0.00  0.00    +0.000 A 
ATOM      6  N   UNL     1       4.285   6.417  18.503  0.00  0.00    +0.000 N 
ATOM      7  C   UNL     1       2.906   6.301  18.494  0.00  0.00    +0.000 C 
ATOM      8  O   UNL     1       2.284   5.425  17.902  0.00  0.00    +0.000 OA
ATOM      9  H   UNL     1       4.701   7.163  19.042  0.00  0.00    +0.000 HD
ENDROOT
BRANCH   7  10
ATOM     10  C   UNL     1       2.191   7.338  19.232  0.00  0.00    +0.000 A 
ATOM     11  O   UNL     1       1.795   7.129  20.528  0.00  0.00    +0.000 OA
ATOM     12  C   UNL     1       1.199   8.281  20.954  0.00  0.00    +0.000 A 
ATOM     13  C   UNL     1       0.672   8.505  22.226  0.00  0.00    +0.000 A 
ATOM     14  C   UNL     1       0.150   9.782  22.476  0.00  0.00    +0.000 A 
ATOM     15  C   UNL     1       0.150  10.764  21.484  0.00  0.00    +0.000 A 
ATOM     16 BR   UNL     1      -0.532  12.487  21.873  0.00  0.00    +0.000 Br
ATOM     17  C   UNL     1       0.661  10.508  20.207  0.00  0.00    +0.000 A 
ATOM     18  C   UNL     1       1.204   9.236  19.943  0.00  0.00    +0.000 A 
ATOM     19  C   UNL     1       1.830   8.618  18.823  0.00  0.00    +0.000 A 
ATOM     20  C   UNL     1       2.096   9.228  17.492  0.00  0.00    +0.000 C 
ENDBRANCH   7  10
BRANCH   1  22
ATOM     21  C   UNL     1       7.644   7.836  17.601  0.00  0.00    +0.000 C 
ATOM     22  C   UNL     1       7.546   6.476  18.277  0.00  0.00    +0.000 C 
ENDBRANCH   1  22
TORSDOF 2
ENDMDL
MODEL 7
REMARK VINA RESULT:      -7.1      5.956      7.387
REMARK  Name = 
REMARK  4 active torsions:
REMARK  status: ('A' for Active; 'I' for Inactive)
REMARK    1  A    between atoms: C_1  and  C_2
REMARK    2  A    between atoms: C_2  and  C_3
REMARK    3  A    between atoms: C_9  and  C_11
REMARK    4  A    between atoms: C_20  and  C_21
REMARK                            x       y       z     vdW  Elec       q    Type
REMARK                         _______ _______ _______ _____ _____    ______ ____
ROOT
ATOM      1  C   UNL     1       5.284   4.723  19.115  0.00  0.00    +0.000 A 
ATOM      2  N   UNL     1       5.478   3.400  19.143  0.00  0.00    +0.000 NA
ATOM      3  O   UNL     1       4.308   2.874  19.659  0.00  0.00    +0.000 OA
ATOM      4  N   UNL     1       3.408   3.874  19.949  0.00  0.00    +0.000 NA
ATOM      5  C   UNL     1       3.994   5.027  19.618  0.00  0.00    +0.000 A 
ATOM      6  N   UNL     1       3.395   6.277  19.748  0.00  0.00    +0.000 N 
ATOM      7  C   UNL     1       2.108   6.432  20.234  0.00  0.00    +0.000 C 
ATOM      8  O   UNL     1       1.409   5.520  20.661  0.00  0.00    +0.000 OA
ATOM      9  H   UNL     1       3.895   7.098  19.440  0.00  0.00    +0.000 HD
ENDROOT
BRANCH   7  10
ATOM     10  C   UNL     1       1.586   7.794  20.184  0.00  0.00    +0.000 A 
ATOM     11  O   UNL     1       1.034   8.375  21.296  0.00  0.00    +0.000 OA
ATOM     12  C   UNL     1       0.683   9.648  20.949  0.00  0.00    +0.000 A 
ATOM     13  C   UNL     1       0.105  10.594  21.796  0.00  0.00    +0.000 A 
ATOM     14  C   UNL     1      -0.129  11.866  21.254  0.00  0.00    +0.000 A 
ATOM     15  C   UNL     1       0.190  12.149  19.925  0.00  0.00    +0.000 A 
ATOM     16 BR   UNL     1      -0.110  13.889  19.240  0.00  0.00    +0.000 Br
ATOM     17  C   UNL     1       0.744  11.175  19.086  0.00  0.00    +0.000 A 
ATOM     18  C   UNL     1       1.001   9.897  19.619  0.00  0.00    +0.000 A 
ATOM     19  C   UNL     1       1.570   8.691  19.119  0.00  0.00    +0.000 A 
ATOM     20  C   UNL     1       2.092   8.443  17.748  0.00  0.00    +0.000 C 
ENDBRANCH   7  10
BRANCH   1  22
ATOM     21  C   UNL     1       7.401   4.801  17.789  0.00  0.00    +0.000 C 
ATOM     22  C   UNL     1       6.374   5.585  18.593  0.00  0.00    +0.000 C 
ENDBRANCH   1  22
TORSDOF 2
ENDMDL
MODEL 8
REMARK VINA RESULT:      -6.9      5.816      7.043
REMARK  Name = 
REMARK  4 active torsions:
REMARK  status: ('A' for Active; 'I' for Inactive)
REMARK    1  A    between atoms: C_1  and  C_2
REMARK    2  A    between atoms: C_2  and  C_3
REMARK    3  A    between atoms: C_9  and  C_11
REMARK    4  A    between atoms: C_20  and  C_21
REMARK                            x       y       z     vdW  Elec       q    Type
REMARK                         _______ _______ _______ _____ _____    ______ ____
ROOT
ATOM      1  C   UNL     1       3.552   4.211  18.535  0.00  0.00    +0.000 A 
ATOM      2  N   UNL     1       4.496   3.776  17.693  0.00  0.00    +0.000 NA
ATOM      3  O   UNL     1       4.887   4.894  16.980  0.00  0.00    +0.000 OA
ATOM      4  N   UNL     1       4.179   6.005  17.383  0.00  0.00    +0.000 NA
ATOM      5  C   UNL     1       3.348   5.601  18.347  0.00  0.00    +0.000 A 
ATOM      6  N   UNL     1       2.469   6.440  19.026  0.00  0.00    +0.000 N 
ATOM      7  C   UNL     1       2.387   7.796  18.760  0.00  0.00    +0.000 C 
ATOM      8  O   UNL     1       3.007   8.371  17.871  0.00  0.00    +0.000 OA
ATOM      9  H   UNL     1       1.899   6.061  19.768  0.00  0.00    +0.000 HD
ENDROOT
BRANCH   7  10
ATOM     10  C   UNL     1       1.511   8.551  19.649  0.00  0.00    +0.000 A 
ATOM     11  O   UNL     1       1.457   8.265  20.989  0.00  0.00    +0.000 OA
ATOM     12  C   UNL     1       0.593   9.158  21.554  0.00  0.00    +0.000 A 
ATOM     13  C   UNL     1       0.265   9.232  22.908  0.00  0.00    +0.000 A 
ATOM     14  C   UNL     1      -0.606  10.262  23.291  0.00  0.00    +0.000 A 
ATOM     15  C   UNL     1      -1.125  11.149  22.347  0.00  0.00    +0.000 A 
ATOM     16 BR   UNL     1      -2.272  12.548  22.909  0.00  0.00    +0.000 Br
ATOM     17  C   UNL     1      -0.804  11.039  20.990  0.00  0.00    +0.000 A 
ATOM     18  C   UNL     1       0.083  10.020  20.590  0.00  0.00    +0.000 A 
ATOM     19  C   UNL     1       0.664   9.616  19.355  0.00  0.00    +0.000 A 
ATOM     20  C   UNL     1       0.454  10.232  18.017  0.00  0.00    +0.000 C 
ENDBRANCH   7  10
BRANCH   1  22
ATOM     21  C   UNL     1       2.594   1.915  18.777  0.00  0.00    +0.000 C 
ATOM     22  C   UNL     1       2.929   3.233  19.461  0.00  0.00    +0.000 C 
ENDBRANCH   1  22
TORSDOF 2
ENDMDL
MODEL 9
REMARK VINA RESULT:      -6.8      1.108      1.457
REMARK  Name = 
REMARK  4 active torsions:
REMARK  status: ('A' for Active; 'I' for Inactive)
REMARK    1  A    between atoms: C_1  and  C_2
REMARK    2  A    between atoms: C_2  and  C_3
REMARK    3  A    between atoms: C_9  and  C_11
REMARK    4  A    between atoms: C_20  and  C_21
REMARK                            x       y       z     vdW  Elec       q    Type
REMARK                         _______ _______ _______ _____ _____    ______ ____
ROOT
ATOM      1  C   UNL     1       6.591   4.019  12.618  0.00  0.00    +0.000 A 
ATOM      2  N   UNL     1       7.563   4.442  11.803  0.00  0.00    +0.000 NA
ATOM      3  O   UNL     1       8.207   5.448  12.499  0.00  0.00    +0.000 OA
ATOM      4  N   UNL     1       7.625   5.640  13.732  0.00  0.00    +0.000 NA
ATOM      5  C   UNL     1       6.623   4.762  13.825  0.00  0.00    +0.000 A 
ATOM      6  N   UNL     1       5.797   4.631  14.937  0.00  0.00    +0.000 N 
ATOM      7  C   UNL     1       5.953   5.410  16.070  0.00  0.00    +0.000 C 
ATOM      8  O   UNL     1       6.764   6.324  16.182  0.00  0.00    +0.000 OA
ATOM      9  H   UNL     1       5.083   3.917  14.940  0.00  0.00    +0.000 HD
ENDROOT
BRANCH   7  10
ATOM     10  C   UNL     1       5.088   5.056  17.191  0.00  0.00    +0.000 A 
ATOM     11  O   UNL     1       4.546   6.027  17.992  0.00  0.00    +0.000 OA
ATOM     12  C   UNL     1       3.760   5.394  18.911  0.00  0.00    +0.000 A 
ATOM     13  C   UNL     1       3.004   6.016  19.905  0.00  0.00    +0.000 A 
ATOM     14  C   UNL     1       2.220   5.182  20.716  0.00  0.00    +0.000 A 
ATOM     15  C   UNL     1       2.223   3.798  20.535  0.00  0.00    +0.000 A 
ATOM     16 BR   UNL     1       1.124   2.710  21.628  0.00  0.00    +0.000 Br
ATOM     17  C   UNL     1       3.010   3.194  19.549  0.00  0.00    +0.000 A 
ATOM     18  C   UNL     1       3.790   4.018  18.714  0.00  0.00    +0.000 A 
ATOM     19  C   UNL     1       4.665   3.799  17.612  0.00  0.00    +0.000 A 
ATOM     20  C   UNL     1       5.022   2.494  16.993  0.00  0.00    +0.000 C 
ENDBRANCH   7  10
BRANCH   1  22
ATOM     21  C   UNL     1       4.384   3.421  11.609  0.00  0.00    +0.000 C 
ATOM     22  C   UNL     1       5.712   2.916  12.155  0.00  0.00    +0.000 C 
ENDBRANCH   1  22
TORSDOF 2
ENDMDL
