MODEL 1
REMARK VINA RESULT:      -9.5      0.000      0.000
REMARK  Name = 
REMARK  10 active torsions:
REMARK  status: ('A' for Active; 'I' for Inactive)
REMARK    1  A    between atoms: C_1  and  C_2
REMARK    2  A    between atoms: C_5  and  N_6
REMARK    3  A    between atoms: N_6  and  C_7
REMARK    4  A    between atoms: N_6  and  C_8
REMARK    5  A    between atoms: C_8  and  C_9
REMARK    6  A    between atoms: C_9  and  C_10
REMARK    7  A    between atoms: C_9  and  N_17
REMARK    8  A    between atoms: C_10  and  C_11
REMARK    9  A    between atoms: C_18  and  C_20
REMARK   10  A    between atoms: C_20  and  C_21
REMARK                            x       y       z     vdW  Elec       q    Type
REMARK                         _______ _______ _______ _____ _____    ______ ____
ROOT
ATOM      1  C   UNL     1       3.183   6.951  18.226  0.00  0.00    +0.000 C 
ENDROOT
BRANCH   1   2
ATOM      2  N   UNL     1       2.462   8.168  17.850  0.00  0.00    +0.000 N 
ATOM      3  C   UNL     1       1.706   8.864  18.773  0.00  0.00    +0.000 C 
ATOM      4  O   UNL     1       1.498   8.439  19.912  0.00  0.00    +0.000 OA
ATOM      5  H   UNL     1       2.613   8.549  16.923  0.00  0.00    +0.000 HD
BRANCH   3   6
ATOM      6  C   UNL     1       1.134  10.164  18.274  0.00  0.00    +0.000 C 
BRANCH   6   7
ATOM      7  C   UNL     1      -0.206  10.662  18.807  0.00  0.00    +0.000 A 
ATOM      8  C   UNL     1      -0.104  11.352  20.039  0.00  0.00    +0.000 A 
ATOM      9  C   UNL     1      -1.183  12.041  20.578  0.00  0.00    +0.000 A 
ATOM     10  C   UNL     1      -2.369  12.114  19.862  0.00  0.00    +0.000 A 
ATOM     11  C   UNL     1      -2.519  11.433  18.648  0.00  0.00    +0.000 A 
ATOM     12  C   UNL     1      -3.713  11.588  17.921  0.00  0.00    +0.000 A 
ATOM     13  C   UNL     1      -3.939  10.876  16.748  0.00  0.00    +0.000 A 
ATOM     14  C   UNL     1      -3.005   9.944  16.333  0.00  0.00    +0.000 A 
ATOM     15  C   UNL     1      -1.800   9.807  17.028  0.00  0.00    +0.000 A 
ATOM     16  C   UNL     1      -1.474  10.608  18.149  0.00  0.00    +0.000 A 
ENDBRANCH   6   7
ENDBRANCH   3   6
ENDBRANCH   1   2
BRANCH   1  17
ATOM     17  C   UNL     1       4.663   6.938  17.757  0.00  0.00    +0.000 C 
BRANCH  17  18
ATOM     18  N   UNL     1       5.258   5.580  17.671  0.00  0.00    +0.000 N 
ATOM     19  C   UNL     1       5.758   5.076  18.954  0.00  0.00    +0.000 C 
BRANCH  18  24
ATOM     20  C   UNL     1       6.730   3.628  12.445  0.00  0.00    +0.000 C 
ATOM     21  C   UNL     1       6.389   4.062  13.838  0.00  0.00    +0.000 A 
ATOM     22  C   UNL     1       5.212   3.649  14.453  0.00  0.00    +0.000 A 
ATOM     23  C   UNL     1       4.866   4.122  15.731  0.00  0.00    +0.000 A 
ATOM     24  C   UNL     1       5.663   5.025  16.457  0.00  0.00    +0.000 A 
ATOM     25  C   UNL     1       6.872   5.372  15.827  0.00  0.00    +0.000 A 
ATOM     26  C   UNL     1       7.227   4.918  14.545  0.00  0.00    +0.000 A 
ENDBRANCH  18  24
ENDBRANCH  17  18
ENDBRANCH   1  17
BRANCH   1  27
ATOM     27  C   UNL     1       2.443   5.665  17.788  0.00  0.00    +0.000 C 
BRANCH  27  28
ATOM     28  C   UNL     1       1.983   4.733  18.887  0.00  0.00    +0.000 A 
ATOM     29  C   UNL     1       1.253   3.574  18.593  0.00  0.00    +0.000 A 
ATOM     30  C   UNL     1       0.892   2.688  19.612  0.00  0.00    +0.000 A 
ATOM     31  C   UNL     1       1.260   2.950  20.928  0.00  0.00    +0.000 A 
ATOM     32  C   UNL     1       1.979   4.102  21.235  0.00  0.00    +0.000 A 
ATOM     33  C   UNL     1       2.334   4.992  20.220  0.00  0.00    +0.000 A 
ENDBRANCH  27  28
ENDBRANCH   1  27
TORSDOF 8
ENDMDL
MODEL 2
REMARK VINA RESULT:      -8.6      2.124      9.892
REMARK  Name = 
REMARK  10 active torsions:
REMARK  status: ('A' for Active; 'I' for Inactive)
REMARK    1  A    between atoms: C_1  and  C_2
REMARK    2  A    between atoms: C_5  and  N_6
REMARK    3  A    between atoms: N_6  and  C_7
REMARK    4  A    between atoms: N_6  and  C_8
REMARK    5  A    between atoms: C_8  and  C_9
REMARK    6  A    between atoms: C_9  and  C_10
REMARK    7  A    between atoms: C_9  and  N_17
REMARK    8  A    between atoms: C_10  and  C_11
REMARK    9  A    between atoms: C_18  and  C_20
REMARK   10  A    between atoms: C_20  and  C_21
REMARK                            x       y       z     vdW  Elec       q    Type
REMARK                         _______ _______ _______ _____ _____    ______ ____
ROOT
ATOM      1  C   UNL     1       0.037  10.452  18.829  0.00  0.00    +0.000 C 
ENDROOT
BRANCH   1   2
ATOM      2  N   UNL     1       0.770   9.238  19.192  0.00  0.00    +0.000 N 
ATOM      3  C   UNL     1       1.807   8.768  18.410  0.00  0.00    +0.000 C 
ATOM      4  O   UNL     1       2.087   9.265  17.315  0.00  0.00    +0.000 OA
ATOM      5  H   UNL     1       0.570   8.806  20.087  0.00  0.00    +0.000 HD
BRANCH   3   6
ATOM      6  C   UNL     1       2.550   7.590  18.981  0.00  0.00    +0.000 C 
BRANCH   6   7
ATOM      7  C   UNL     1       3.130   6.531  18.049  0.00  0.00    +0.000 A 
ATOM      8  C   UNL     1       4.259   6.976  17.320  0.00  0.00    +0.000 A 
ATOM      9  C   UNL     1       5.034   6.099  16.572  0.00  0.00    +0.000 A 
ATOM     10  C   UNL     1       4.739   4.744  16.593  0.00  0.00    +0.000 A 
ATOM     11  C   UNL     1       3.622   4.261  17.287  0.00  0.00    +0.000 A 
ATOM     12  C   UNL     1       3.397   2.875  17.340  0.00  0.00    +0.000 A 
ATOM     13  C   UNL     1       2.263   2.352  17.953  0.00  0.00    +0.000 A 
ATOM     14  C   UNL     1       1.306   3.217  18.453  0.00  0.00    +0.000 A 
ATOM     15  C   UNL     1       1.536   4.596  18.437  0.00  0.00    +0.000 A 
ATOM     16  C   UNL     1       2.737   5.161  17.942  0.00  0.00    +0.000 A 
ENDBRANCH   6   7
ENDBRANCH   3   6
ENDBRANCH   1   2
BRANCH   1  17
ATOM     17  C   UNL     1       0.601  11.737  19.490  0.00  0.00    +0.000 C 
BRANCH  17  18
ATOM     18  N   UNL     1      -0.392  12.833  19.627  0.00  0.00    +0.000 N 
ATOM     19  C   UNL     1      -0.279  13.861  18.588  0.00  0.00    +0.000 C 
BRANCH  18  24
ATOM     20  C   UNL     1      -3.150  14.247  24.494  0.00  0.00    +0.000 C 
ATOM     21  C   UNL     1      -2.447  13.792  23.252  0.00  0.00    +0.000 A 
ATOM     22  C   UNL     1      -1.081  13.533  23.250  0.00  0.00    +0.000 A 
ATOM     23  C   UNL     1      -0.418  13.181  22.061  0.00  0.00    +0.000 A 
ATOM     24  C   UNL     1      -1.074  13.069  20.821  0.00  0.00    +0.000 A 
ATOM     25  C   UNL     1      -2.464  13.280  20.875  0.00  0.00    +0.000 A 
ATOM     26  C   UNL     1      -3.139  13.647  22.053  0.00  0.00    +0.000 A 
ENDBRANCH  18  24
ENDBRANCH  17  18
ENDBRANCH   1  17
BRANCH   1  27
ATOM     27  C   UNL     1      -1.485  10.318  19.068  0.00  0.00    +0.000 C 
BRANCH  27  28
ATOM     28  C   UNL     1      -2.383  10.457  17.859  0.00  0.00    +0.000 A 
ATOM     29  C   UNL     1      -3.541  11.244  17.904  0.00  0.00    +0.000 A 
ATOM     30  C   UNL     1      -4.324  11.416  16.759  0.00  0.00    +0.000 A 
ATOM     31  C   UNL     1      -3.956  10.809  15.563  0.00  0.00    +0.000 A 
ATOM     32  C   UNL     1      -2.812  10.017  15.506  0.00  0.00    +0.000 A 
ATOM     33  C   UNL     1      -2.032   9.838  16.649  0.00  0.00    +0.000 A 
ENDBRANCH  27  28
ENDBRANCH   1  27
TORSDOF 8
ENDMDL
MODEL 3
REMARK VINA RESULT:      -8.5      1.588      2.658
REMARK  Name = 
REMARK  10 active torsions:
REMARK  status: ('A' for Active; 'I' for Inactive)
REMARK    1  A    between atoms: C_1  and  C_2
REMARK    2  A    between atoms: C_5  and  N_6
REMARK    3  A    between atoms: N_6  and  C_7
REMARK    4  A    between atoms: N_6  and  C_8
REMARK    5  A    between atoms: C_8  and  C_9
REMARK    6  A    between atoms: C_9  and  C_10
REMARK    7  A    between atoms: C_9  and  N_17
REMARK    8  A    between atoms: C_10  and  C_11
REMARK    9  A    between atoms: C_18  and  C_20
REMARK   10  A    between atoms: C_20  and  C_21
REMARK                            x       y       z     vdW  Elec       q    Type
REMARK                         _______ _______ _______ _____ _____    ______ ____
ROOT
ATOM      1  C   UNL     1       2.746   6.939  18.863  0.00  0.00    +0.000 C 
ENDROOT
BRANCH   1   2
ATOM      2  N   UNL     1       2.104   8.194  19.262  0.00  0.00    +0.000 N 
ATOM      3  C   UNL     1       1.413   8.294  20.454  0.00  0.00    +0.000 C 
ATOM      4  O   UNL     1       1.195   7.318  21.176  0.00  0.00    +0.000 OA
ATOM      5  H   UNL     1       2.267   9.018  18.695  0.00  0.00    +0.000 HD
BRANCH   3   6
ATOM      6  C   UNL     1       0.926   9.678  20.789  0.00  0.00    +0.000 C 
BRANCH   6   7
ATOM      7  C   UNL     1       0.258  10.532  19.715  0.00  0.00    +0.000 A 
ATOM      8  C   UNL     1      -0.865   9.912  19.117  0.00  0.00    +0.000 A 
ATOM      9  C   UNL     1      -1.712  10.608  18.263  0.00  0.00    +0.000 A 
ATOM     10  C   UNL     1      -1.493  11.959  18.042  0.00  0.00    +0.000 A 
ATOM     11  C   UNL     1      -0.384  12.609  18.600  0.00  0.00    +0.000 A 
ATOM     12  C   UNL     1      -0.237  13.994  18.408  0.00  0.00    +0.000 A 
ATOM     13  C   UNL     1       0.884  14.671  18.878  0.00  0.00    +0.000 A 
ATOM     14  C   UNL     1       1.903  13.953  19.479  0.00  0.00    +0.000 A 
ATOM     15  C   UNL     1       1.752  12.583  19.706  0.00  0.00    +0.000 A 
ATOM     16  C   UNL     1       0.570  11.881  19.362  0.00  0.00    +0.000 A 
ENDBRANCH   6   7
ENDBRANCH   3   6
ENDBRANCH   1   2
BRANCH   1  17
ATOM     17  C   UNL     1       4.079   7.143  18.095  0.00  0.00    +0.000 C 
BRANCH  17  18
ATOM     18  N   UNL     1       4.919   5.921  18.007  0.00  0.00    +0.000 N 
ATOM     19  C   UNL     1       5.605   5.587  19.258  0.00  0.00    +0.000 C 
BRANCH  18  24
ATOM     20  C   UNL     1       6.191   3.596  12.881  0.00  0.00    +0.000 C 
ATOM     21  C   UNL     1       5.948   4.223  14.220  0.00  0.00    +0.000 A 
ATOM     22  C   UNL     1       6.084   3.490  15.394  0.00  0.00    +0.000 A 
ATOM     23  C   UNL     1       5.781   4.068  16.640  0.00  0.00    +0.000 A 
ATOM     24  C   UNL     1       5.328   5.392  16.782  0.00  0.00    +0.000 A 
ATOM     25  C   UNL     1       5.261   6.118  15.579  0.00  0.00    +0.000 A 
ATOM     26  C   UNL     1       5.548   5.551  14.324  0.00  0.00    +0.000 A 
ENDBRANCH  18  24
ENDBRANCH  17  18
ENDBRANCH   1  17
BRANCH   1  27
ATOM     27  C   UNL     1       1.788   6.005  18.087  0.00  0.00    +0.000 C 
BRANCH  27  28
ATOM     28  C   UNL     1       1.782   4.547  18.487  0.00  0.00    +0.000 A 
ATOM     29  C   UNL     1       1.267   4.138  19.724  0.00  0.00    +0.000 A 
ATOM     30  C   UNL     1       1.208   2.780  20.052  0.00  0.00    +0.000 A 
ATOM     31  C   UNL     1       1.657   1.823  19.147  0.00  0.00    +0.000 A 
ATOM     32  C   UNL     1       2.179   2.216  17.918  0.00  0.00    +0.000 A 
ATOM     33  C   UNL     1       2.246   3.571  17.591  0.00  0.00    +0.000 A 
ENDBRANCH  27  28
ENDBRANCH   1  27
TORSDOF 8
ENDMDL
MODEL 4
REMARK VINA RESULT:      -8.5      2.102      9.503
REMARK  Name = 
REMARK  10 active torsions:
REMARK  status: ('A' for Active; 'I' for Inactive)
REMARK    1  A    between atoms: C_1  and  C_2
REMARK    2  A    between atoms: C_5  and  N_6
REMARK    3  A    between atoms: N_6  and  C_7
REMARK    4  A    between atoms: N_6  and  C_8
REMARK    5  A    between atoms: C_8  and  C_9
REMARK    6  A    between atoms: C_9  and  C_10
REMARK    7  A    between atoms: C_9  and  N_17
REMARK    8  A    between atoms: C_10  and  C_11
REMARK    9  A    between atoms: C_18  and  C_20
REMARK   10  A    between atoms: C_20  and  C_21
REMARK                            x       y       z     vdW  Elec       q    Type
REMARK                         _______ _______ _______ _____ _____    ______ ____
ROOT
ATOM      1  C   UNL     1      -0.076  10.522  18.662  0.00  0.00    +0.000 C 
ENDROOT
BRANCH   1   2
ATOM      2  N   UNL     1       0.691   9.568  19.466  0.00  0.00    +0.000 N 
ATOM      3  C   UNL     1       1.527   8.643  18.870  0.00  0.00    +0.000 C 
ATOM      4  O   UNL     1       1.577   8.488  17.647  0.00  0.00    +0.000 OA
ATOM      5  H   UNL     1       0.679   9.669  20.474  0.00  0.00    +0.000 HD
BRANCH   3   6
ATOM      6  C   UNL     1       2.350   7.823  19.828  0.00  0.00    +0.000 C 
BRANCH   6   7
ATOM      7  C   UNL     1       2.413   6.306  19.672  0.00  0.00    +0.000 A 
ATOM      8  C   UNL     1       1.526   5.612  20.529  0.00  0.00    +0.000 A 
ATOM      9  C   UNL     1       1.303   4.248  20.394  0.00  0.00    +0.000 A 
ATOM     10  C   UNL     1       1.910   3.559  19.354  0.00  0.00    +0.000 A 
ATOM     11  C   UNL     1       2.808   4.203  18.493  0.00  0.00    +0.000 A 
ATOM     12  C   UNL     1       3.347   3.487  17.410  0.00  0.00    +0.000 A 
ATOM     13  C   UNL     1       4.298   4.058  16.571  0.00  0.00    +0.000 A 
ATOM     14  C   UNL     1       4.773   5.327  16.854  0.00  0.00    +0.000 A 
ATOM     15  C   UNL     1       4.218   6.060  17.906  0.00  0.00    +0.000 A 
ATOM     16  C   UNL     1       3.156   5.565  18.701  0.00  0.00    +0.000 A 
ENDBRANCH   6   7
ENDBRANCH   3   6
ENDBRANCH   1   2
BRANCH   1  17
ATOM     17  C   UNL     1       0.384  11.994  18.841  0.00  0.00    +0.000 C 
BRANCH  17  18
ATOM     18  N   UNL     1       0.467  12.434  20.257  0.00  0.00    +0.000 N 
ATOM     19  C   UNL     1       1.841  12.555  20.755  0.00  0.00    +0.000 C 
BRANCH  18  24
ATOM     20  C   UNL     1      -3.841  12.385  24.095  0.00  0.00    +0.000 C 
ATOM     21  C   UNL     1      -2.766  12.331  23.053  0.00  0.00    +0.000 A 
ATOM     22  C   UNL     1      -1.682  11.468  23.178  0.00  0.00    +0.000 A 
ATOM     23  C   UNL     1      -0.641  11.481  22.234  0.00  0.00    +0.000 A 
ATOM     24  C   UNL     1      -0.622  12.345  21.124  0.00  0.00    +0.000 A 
ATOM     25  C   UNL     1      -1.762  13.160  20.999  0.00  0.00    +0.000 A 
ATOM     26  C   UNL     1      -2.805  13.169  21.943  0.00  0.00    +0.000 A 
ENDBRANCH  18  24
ENDBRANCH  17  18
ENDBRANCH   1  17
BRANCH   1  27
ATOM     27  C   UNL     1      -1.601  10.380  18.874  0.00  0.00    +0.000 C 
BRANCH  27  28
ATOM     28  C   UNL     1      -2.475  10.480  17.643  0.00  0.00    +0.000 A 
ATOM     29  C   UNL     1      -3.638  11.260  17.643  0.00  0.00    +0.000 A 
ATOM     30  C   UNL     1      -4.399  11.396  16.478  0.00  0.00    +0.000 A 
ATOM     31  C   UNL     1      -4.003  10.759  15.307  0.00  0.00    +0.000 A 
ATOM     32  C   UNL     1      -2.853   9.974  15.295  0.00  0.00    +0.000 A 
ATOM     33  C   UNL     1      -2.096   9.831  16.458  0.00  0.00    +0.000 A 
ENDBRANCH  27  28
ENDBRANCH   1  27
TORSDOF 8
ENDMDL
MODEL 5
REMARK VINA RESULT:      -8.5      2.047      9.694
REMARK  Name = 
REMARK  10 active torsions:
REMARK  status: ('A' for Active; 'I' for Inactive)
REMARK    1  A    between atoms: C_1  and  C_2
REMARK    2  A    between atoms: C_5  and  N_6
REMARK    3  A    between atoms: N_6  and  C_7
REMARK    4  A    between atoms: N_6  and  C_8
REMARK    5  A    between atoms: C_8  and  C_9
REMARK    6  A    between atoms: C_9  and  C_10
REMARK    7  A    between atoms: C_9  and  N_17
REMARK    8  A    between atoms: C_10  and  C_11
REMARK    9  A    between atoms: C_18  and  C_20
REMARK   10  A    between atoms: C_20  and  C_21
REMARK                            x       y       z     vdW  Elec       q    Type
REMARK                         _______ _______ _______ _____ _____    ______ ____
ROOT
ATOM      1  C   UNL     1       0.102  10.200  18.874  0.00  0.00    +0.000 C 
ENDROOT
BRANCH   1   2
ATOM      2  N   UNL     1       0.962   9.060  19.197  0.00  0.00    +0.000 N 
ATOM      3  C   UNL     1       1.964   8.654  18.336  0.00  0.00    +0.000 C 
ATOM      4  O   UNL     1       2.105   9.141  17.211  0.00  0.00    +0.000 OA
ATOM      5  H   UNL     1       0.878   8.639  20.115  0.00  0.00    +0.000 HD
BRANCH   3   6
ATOM      6  C   UNL     1       2.848   7.557  18.864  0.00  0.00    +0.000 C 
BRANCH   6   7
ATOM      7  C   UNL     1       3.323   6.445  17.932  0.00  0.00    +0.000 A 
ATOM      8  C   UNL     1       4.441   6.807  17.143  0.00  0.00    +0.000 A 
ATOM      9  C   UNL     1       5.128   5.871  16.383  0.00  0.00    +0.000 A 
ATOM     10  C   UNL     1       4.755   4.536  16.448  0.00  0.00    +0.000 A 
ATOM     11  C   UNL     1       3.645   4.136  17.203  0.00  0.00    +0.000 A 
ATOM     12  C   UNL     1       3.342   2.766  17.298  0.00  0.00    +0.000 A 
ATOM     13  C   UNL     1       2.210   2.325  17.973  0.00  0.00    +0.000 A 
ATOM     14  C   UNL     1       1.328   3.255  18.494  0.00  0.00    +0.000 A 
ATOM     15  C   UNL     1       1.637   4.617  18.436  0.00  0.00    +0.000 A 
ATOM     16  C   UNL     1       2.845   5.099  17.875  0.00  0.00    +0.000 A 
ENDBRANCH   6   7
ENDBRANCH   3   6
ENDBRANCH   1   2
BRANCH   1  17
ATOM     17  C   UNL     1       0.467  11.492  19.653  0.00  0.00    +0.000 C 
BRANCH  17  18
ATOM     18  N   UNL     1       0.149  11.434  21.103  0.00  0.00    +0.000 N 
ATOM     19  C   UNL     1       0.934  10.438  21.837  0.00  0.00    +0.000 C 
BRANCH  18  24
ATOM     20  C   UNL     1      -4.949  13.289  23.068  0.00  0.00    +0.000 C 
ATOM     21  C   UNL     1      -3.587  12.881  22.596  0.00  0.00    +0.000 A 
ATOM     22  C   UNL     1      -3.090  13.311  21.370  0.00  0.00    +0.000 A 
ATOM     23  C   UNL     1      -1.843  12.861  20.903  0.00  0.00    +0.000 A 
ATOM     24  C   UNL     1      -1.031  11.966  21.623  0.00  0.00    +0.000 A 
ATOM     25  C   UNL     1      -1.540  11.601  22.882  0.00  0.00    +0.000 A 
ATOM     26  C   UNL     1      -2.791  12.031  23.358  0.00  0.00    +0.000 A 
ENDBRANCH  18  24
ENDBRANCH  17  18
ENDBRANCH   1  17
BRANCH   1  27
ATOM     27  C   UNL     1      -1.401   9.865  19.013  0.00  0.00    +0.000 C 
BRANCH  27  28
ATOM     28  C   UNL     1      -2.295  10.234  17.850  0.00  0.00    +0.000 A 
ATOM     29  C   UNL     1      -3.398  11.080  18.026  0.00  0.00    +0.000 A 
ATOM     30  C   UNL     1      -4.176  11.465  16.931  0.00  0.00    +0.000 A 
ATOM     31  C   UNL     1      -3.855  11.014  15.654  0.00  0.00    +0.000 A 
ATOM     32  C   UNL     1      -2.767  10.167  15.466  0.00  0.00    +0.000 A 
ATOM     33  C   UNL     1      -1.993   9.775  16.559  0.00  0.00    +0.000 A 
ENDBRANCH  27  28
ENDBRANCH   1  27
TORSDOF 8
ENDMDL
MODEL 6
REMARK VINA RESULT:      -8.4      2.412      9.481
REMARK  Name = 
REMARK  10 active torsions:
REMARK  status: ('A' for Active; 'I' for Inactive)
REMARK    1  A    between atoms: C_1  and  C_2
REMARK    2  A    between atoms: C_5  and  N_6
REMARK    3  A    between atoms: N_6  and  C_7
REMARK    4  A    between atoms: N_6  and  C_8
REMARK    5  A    between atoms: C_8  and  C_9
REMARK    6  A    between atoms: C_9  and  C_10
REMARK    7  A    between atoms: C_9  and  N_17
REMARK    8  A    between atoms: C_10  and  C_11
REMARK    9  A    between atoms: C_18  and  C_20
REMARK   10  A    between atoms: C_20  and  C_21
REMARK                            x       y       z     vdW  Elec       q    Type
REMARK                         _______ _______ _______ _____ _____    ______ ____
ROOT
ATOM      1  C   UNL     1       0.670  10.498  18.617  0.00  0.00    +0.000 C 
ENDROOT
BRANCH   1   2
ATOM      2  N   UNL     1       1.579   9.691  17.799  0.00  0.00    +0.000 N 
ATOM      3  C   UNL     1       2.101   8.503  18.273  0.00  0.00    +0.000 C 
ATOM      4  O   UNL     1       1.936   8.125  19.436  0.00  0.00    +0.000 OA
ATOM      5  H   UNL     1       1.734   9.969  16.837  0.00  0.00    +0.000 HD
BRANCH   3   6
ATOM      6  C   UNL     1       2.909   7.722  17.272  0.00  0.00    +0.000 C 
BRANCH   6   7
ATOM      7  C   UNL     1       3.664   6.471  17.712  0.00  0.00    +0.000 A 
ATOM      8  C   UNL     1       5.060   6.667  17.837  0.00  0.00    +0.000 A 
ATOM      9  C   UNL     1       5.882   5.705  18.409  0.00  0.00    +0.000 A 
ATOM     10  C   UNL     1       5.315   4.553  18.934  0.00  0.00    +0.000 A 
ATOM     11  C   UNL     1       3.941   4.309  18.818  0.00  0.00    +0.000 A 
ATOM     12  C   UNL     1       3.396   3.164  19.424  0.00  0.00    +0.000 A 
ATOM     13  C   UNL     1       2.052   2.840  19.275  0.00  0.00    +0.000 A 
ATOM     14  C   UNL     1       1.257   3.621  18.455  0.00  0.00    +0.000 A 
ATOM     15  C   UNL     1       1.778   4.781  17.876  0.00  0.00    +0.000 A 
ATOM     16  C   UNL     1       3.105   5.217  18.112  0.00  0.00    +0.000 A 
ENDBRANCH   6   7
ENDBRANCH   3   6
ENDBRANCH   1   2
BRANCH   1  17
ATOM     17  C   UNL     1       1.301  10.983  19.949  0.00  0.00    +0.000 C 
BRANCH  17  18
ATOM     18  N   UNL     1       0.702  12.233  20.481  0.00  0.00    +0.000 N 
ATOM     19  C   UNL     1       1.613  13.380  20.455  0.00  0.00    +0.000 C 
BRANCH  18  24
ATOM     20  C   UNL     1      -3.801  12.461  24.082  0.00  0.00    +0.000 C 
ATOM     21  C   UNL     1      -2.680  12.345  23.095  0.00  0.00    +0.000 A 
ATOM     22  C   UNL     1      -1.719  11.347  23.210  0.00  0.00    +0.000 A 
ATOM     23  C   UNL     1      -0.630  11.293  22.322  0.00  0.00    +0.000 A 
ATOM     24  C   UNL     1      -0.440  12.223  21.283  0.00  0.00    +0.000 A 
ATOM     25  C   UNL     1      -1.464  13.180  21.163  0.00  0.00    +0.000 A 
ATOM     26  C   UNL     1      -2.552  13.255  22.050  0.00  0.00    +0.000 A 
ENDBRANCH  18  24
ENDBRANCH  17  18
ENDBRANCH   1  17
BRANCH   1  27
ATOM     27  C   UNL     1      -0.686   9.796  18.860  0.00  0.00    +0.000 C 
BRANCH  27  28
ATOM     28  C   UNL     1      -1.848  10.234  17.996  0.00  0.00    +0.000 A 
ATOM     29  C   UNL     1      -2.796  11.150  18.470  0.00  0.00    +0.000 A 
ATOM     30  C   UNL     1      -3.827  11.596  17.637  0.00  0.00    +0.000 A 
ATOM     31  C   UNL     1      -3.914  11.136  16.328  0.00  0.00    +0.000 A 
ATOM     32  C   UNL     1      -2.983  10.219  15.846  0.00  0.00    +0.000 A 
ATOM     33  C   UNL     1      -1.958   9.767  16.678  0.00  0.00    +0.000 A 
ENDBRANCH  27  28
ENDBRANCH   1  27
TORSDOF 8
ENDMDL
MODEL 7
REMARK VINA RESULT:      -8.4      0.710      2.289
REMARK  Name = 
REMARK  10 active torsions:
REMARK  status: ('A' for Active; 'I' for Inactive)
REMARK    1  A    between atoms: C_1  and  C_2
REMARK    2  A    between atoms: C_5  and  N_6
REMARK    3  A    between atoms: N_6  and  C_7
REMARK    4  A    between atoms: N_6  and  C_8
REMARK    5  A    between atoms: C_8  and  C_9
REMARK    6  A    between atoms: C_9  and  C_10
REMARK    7  A    between atoms: C_9  and  N_17
REMARK    8  A    between atoms: C_10  and  C_11
REMARK    9  A    between atoms: C_18  and  C_20
REMARK   10  A    between atoms: C_20  and  C_21
REMARK                            x       y       z     vdW  Elec       q    Type
REMARK                         _______ _______ _______ _____ _____    ______ ____
ROOT
ATOM      1  C   UNL     1       3.290   6.942  18.269  0.00  0.00    +0.000 C 
ENDROOT
BRANCH   1   2
ATOM      2  N   UNL     1       2.711   8.240  17.915  0.00  0.00    +0.000 N 
ATOM      3  C   UNL     1       1.890   8.919  18.795  0.00  0.00    +0.000 C 
ATOM      4  O   UNL     1       1.504   8.423  19.856  0.00  0.00    +0.000 OA
ATOM      5  H   UNL     1       3.010   8.680  17.053  0.00  0.00    +0.000 HD
BRANCH   3   6
ATOM      6  C   UNL     1       1.482  10.297  18.346  0.00  0.00    +0.000 C 
BRANCH   6   7
ATOM      7  C   UNL     1       0.003  10.671  18.282  0.00  0.00    +0.000 A 
ATOM      8  C   UNL     1      -0.762   9.811  17.459  0.00  0.00    +0.000 A 
ATOM      9  C   UNL     1      -2.149   9.875  17.432  0.00  0.00    +0.000 A 
ATOM     10  C   UNL     1      -2.806  10.754  18.280  0.00  0.00    +0.000 A 
ATOM     11  C   UNL     1      -2.088  11.634  19.100  0.00  0.00    +0.000 A 
ATOM     12  C   UNL     1      -2.790  12.460  19.995  0.00  0.00    +0.000 A 
ATOM     13  C   UNL     1      -2.128  13.402  20.775  0.00  0.00    +0.000 A 
ATOM     14  C   UNL     1      -0.765  13.578  20.612  0.00  0.00    +0.000 A 
ATOM     15  C   UNL     1      -0.053  12.739  19.751  0.00  0.00    +0.000 A 
ATOM     16  C   UNL     1      -0.668  11.681  19.038  0.00  0.00    +0.000 A 
ENDBRANCH   6   7
ENDBRANCH   3   6
ENDBRANCH   1   2
BRANCH   1  17
ATOM     17  C   UNL     1       4.791   6.812  17.898  0.00  0.00    +0.000 C 
BRANCH  17  18
ATOM     18  N   UNL     1       5.207   5.433  17.536  0.00  0.00    +0.000 N 
ATOM     19  C   UNL     1       5.615   4.621  18.686  0.00  0.00    +0.000 C 
BRANCH  18  24
ATOM     20  C   UNL     1       6.822   3.609  12.305  0.00  0.00    +0.000 C 
ATOM     21  C   UNL     1       6.374   4.160  13.624  0.00  0.00    +0.000 A 
ATOM     22  C   UNL     1       7.223   4.932  14.410  0.00  0.00    +0.000 A 
ATOM     23  C   UNL     1       6.819   5.379  15.679  0.00  0.00    +0.000 A 
ATOM     24  C   UNL     1       5.559   5.085  16.232  0.00  0.00    +0.000 A 
ATOM     25  C   UNL     1       4.707   4.354  15.383  0.00  0.00    +0.000 A 
ATOM     26  C   UNL     1       5.101   3.888  14.117  0.00  0.00    +0.000 A 
ENDBRANCH  18  24
ENDBRANCH  17  18
ENDBRANCH   1  17
BRANCH   1  27
ATOM     27  C   UNL     1       2.468   5.757  17.712  0.00  0.00    +0.000 C 
BRANCH  27  28
ATOM     28  C   UNL     1       2.015   4.711  18.707  0.00  0.00    +0.000 A 
ATOM     29  C   UNL     1       2.101   4.940  20.086  0.00  0.00    +0.000 A 
ATOM     30  C   UNL     1       1.617   3.992  20.992  0.00  0.00    +0.000 A 
ATOM     31  C   UNL     1       1.041   2.814  20.528  0.00  0.00    +0.000 A 
ATOM     32  C   UNL     1       0.957   2.570  19.160  0.00  0.00    +0.000 A 
ATOM     33  C   UNL     1       1.447   3.511  18.254  0.00  0.00    +0.000 A 
ENDBRANCH  27  28
ENDBRANCH   1  27
TORSDOF 8
ENDMDL
MODEL 8
REMARK VINA RESULT:      -8.3      1.898      2.940
REMARK  Name = 
REMARK  10 active torsions:
REMARK  status: ('A' for Active; 'I' for Inactive)
REMARK    1  A    between atoms: C_1  and  C_2
REMARK    2  A    between atoms: C_5  and  N_6
REMARK    3  A    between atoms: N_6  and  C_7
REMARK    4  A    between atoms: N_6  and  C_8
REMARK    5  A    between atoms: C_8  and  C_9
REMARK    6  A    between atoms: C_9  and  C_10
REMARK    7  A    between atoms: C_9  and  N_17
REMARK    8  A    between atoms: C_10  and  C_11
REMARK    9  A    between atoms: C_18  and  C_20
REMARK   10  A    between atoms: C_20  and  C_21
REMARK                            x       y       z     vdW  Elec       q    Type
REMARK                         _______ _______ _______ _____ _____    ______ ____
ROOT
ATOM      1  C   UNL     1       3.864   6.438  18.073  0.00  0.00    +0.000 C 
ENDROOT
BRANCH   1   2
ATOM      2  N   UNL     1       2.936   7.488  17.648  0.00  0.00    +0.000 N 
ATOM      3  C   UNL     1       2.160   8.169  18.566  0.00  0.00    +0.000 C 
ATOM      4  O   UNL     1       2.113   7.851  19.758  0.00  0.00    +0.000 OA
ATOM      5  H   UNL     1       2.952   7.779  16.678  0.00  0.00    +0.000 HD
BRANCH   3   6
ATOM      6  C   UNL     1       1.358   9.308  17.997  0.00  0.00    +0.000 C 
BRANCH   6   7
ATOM      7  C   UNL     1       0.885  10.437  18.909  0.00  0.00    +0.000 A 
ATOM      8  C   UNL     1      -0.163  10.058  19.782  0.00  0.00    +0.000 A 
ATOM      9  C   UNL     1      -0.588  10.888  20.811  0.00  0.00    +0.000 A 
ATOM     10  C   UNL     1       0.072  12.087  21.034  0.00  0.00    +0.000 A 
ATOM     11  C   UNL     1       1.103  12.510  20.185  0.00  0.00    +0.000 A 
ATOM     12  C   UNL     1       1.792  13.697  20.485  0.00  0.00    +0.000 A 
ATOM     13  C   UNL     1       2.771  14.197  19.634  0.00  0.00    +0.000 A 
ATOM     14  C   UNL     1       3.017  13.551  18.435  0.00  0.00    +0.000 A 
ATOM     15  C   UNL     1       2.364  12.351  18.143  0.00  0.00    +0.000 A 
ATOM     16  C   UNL     1       1.458  11.740  19.044  0.00  0.00    +0.000 A 
ENDBRANCH   6   7
ENDBRANCH   3   6
ENDBRANCH   1   2
BRANCH   1  17
ATOM     17  C   UNL     1       5.301   6.618  17.514  0.00  0.00    +0.000 C 
BRANCH  17  18
ATOM     18  N   UNL     1       5.957   5.348  17.111  0.00  0.00    +0.000 N 
ATOM     19  C   UNL     1       6.765   4.741  18.172  0.00  0.00    +0.000 C 
BRANCH  18  24
ATOM     20  C   UNL     1       6.822   3.495  11.715  0.00  0.00    +0.000 C 
ATOM     21  C   UNL     1       6.560   4.052  13.081  0.00  0.00    +0.000 A 
ATOM     22  C   UNL     1       7.491   4.864  13.720  0.00  0.00    +0.000 A 
ATOM     23  C   UNL     1       7.268   5.318  15.031  0.00  0.00    +0.000 A 
ATOM     24  C   UNL     1       6.118   4.991  15.772  0.00  0.00    +0.000 A 
ATOM     25  C   UNL     1       5.173   4.218  15.071  0.00  0.00    +0.000 A 
ATOM     26  C   UNL     1       5.387   3.745  13.765  0.00  0.00    +0.000 A 
ENDBRANCH  18  24
ENDBRANCH  17  18
ENDBRANCH   1  17
BRANCH   1  27
ATOM     27  C   UNL     1       3.323   5.018  17.785  0.00  0.00    +0.000 C 
BRANCH  27  28
ATOM     28  C   UNL     1       2.760   4.250  18.960  0.00  0.00    +0.000 A 
ATOM     29  C   UNL     1       3.567   3.385  19.712  0.00  0.00    +0.000 A 
ATOM     30  C   UNL     1       3.050   2.733  20.835  0.00  0.00    +0.000 A 
ATOM     31  C   UNL     1       1.729   2.942  21.217  0.00  0.00    +0.000 A 
ATOM     32  C   UNL     1       0.914   3.792  20.474  0.00  0.00    +0.000 A 
ATOM     33  C   UNL     1       1.425   4.439  19.349  0.00  0.00    +0.000 A 
ENDBRANCH  27  28
ENDBRANCH   1  27
TORSDOF 8
ENDMDL
MODEL 9
REMARK VINA RESULT:      -8.3      2.629      9.910
REMARK  Name = 
REMARK  10 active torsions:
REMARK  status: ('A' for Active; 'I' for Inactive)
REMARK    1  A    between atoms: C_1  and  C_2
REMARK    2  A    between atoms: C_5  and  N_6
REMARK    3  A    between atoms: N_6  and  C_7
REMARK    4  A    between atoms: N_6  and  C_8
REMARK    5  A    between atoms: C_8  and  C_9
REMARK    6  A    between atoms: C_9  and  C_10
REMARK    7  A    between atoms: C_9  and  N_17
REMARK    8  A    between atoms: C_10  and  C_11
REMARK    9  A    between atoms: C_18  and  C_20
REMARK   10  A    between atoms: C_20  and  C_21
REMARK                            x       y       z     vdW  Elec       q    Type
REMARK                         _______ _______ _______ _____ _____    ______ ____
ROOT
ATOM      1  C   UNL     1       1.335  10.152  19.036  0.00  0.00    +0.000 C 
ENDROOT
BRANCH   1   2
ATOM      2  N   UNL     1       1.726   9.006  18.212  0.00  0.00    +0.000 N 
ATOM      3  C   UNL     1       2.125   7.816  18.788  0.00  0.00    +0.000 C 
ATOM      4  O   UNL     1       2.293   7.693  20.004  0.00  0.00    +0.000 OA
ATOM      5  H   UNL     1       1.596   9.069  17.209  0.00  0.00    +0.000 HD
BRANCH   3   6
ATOM      6  C   UNL     1       2.365   6.690  17.817  0.00  0.00    +0.000 C 
BRANCH   6   7
ATOM      7  C   UNL     1       3.086   5.427  18.279  0.00  0.00    +0.000 A 
ATOM      8  C   UNL     1       4.426   5.345  17.833  0.00  0.00    +0.000 A 
ATOM      9  C   UNL     1       5.294   4.371  18.310  0.00  0.00    +0.000 A 
ATOM     10  C   UNL     1       4.859   3.498  19.297  0.00  0.00    +0.000 A 
ATOM     11  C   UNL     1       3.536   3.532  19.755  0.00  0.00    +0.000 A 
ATOM     12  C   UNL     1       3.154   2.678  20.804  0.00  0.00    +0.000 A 
ATOM     13  C   UNL     1       1.836   2.622  21.244  0.00  0.00    +0.000 A 
ATOM     14  C   UNL     1       0.873   3.366  20.587  0.00  0.00    +0.000 A 
ATOM     15  C   UNL     1       1.246   4.245  19.566  0.00  0.00    +0.000 A 
ATOM     16  C   UNL     1       2.596   4.430  19.179  0.00  0.00    +0.000 A 
ENDBRANCH   6   7
ENDBRANCH   3   6
ENDBRANCH   1   2
BRANCH   1  17
ATOM     17  C   UNL     1      -0.177  10.180  19.382  0.00  0.00    +0.000 C 
BRANCH  17  18
ATOM     18  N   UNL     1      -0.463  10.310  20.833  0.00  0.00    +0.000 N 
ATOM     19  C   UNL     1      -0.409   9.038  21.559  0.00  0.00    +0.000 C 
BRANCH  18  24
ATOM     20  C   UNL     1      -2.782  15.190  22.859  0.00  0.00    +0.000 C 
ATOM     21  C   UNL     1      -2.250  13.877  22.371  0.00  0.00    +0.000 A 
ATOM     22  C   UNL     1      -1.386  13.115  23.150  0.00  0.00    +0.000 A 
ATOM     23  C   UNL     1      -0.832  11.923  22.652  0.00  0.00    +0.000 A 
ATOM     24  C   UNL     1      -1.105  11.429  21.363  0.00  0.00    +0.000 A 
ATOM     25  C   UNL     1      -2.029  12.196  20.629  0.00  0.00    +0.000 A 
ATOM     26  C   UNL     1      -2.580  13.398  21.107  0.00  0.00    +0.000 A 
ENDBRANCH  18  24
ENDBRANCH  17  18
ENDBRANCH   1  17
BRANCH   1  27
ATOM     27  C   UNL     1       1.799  11.499  18.433  0.00  0.00    +0.000 C 
BRANCH  27  28
ATOM     28  C   UNL     1       1.417  12.753  19.187  0.00  0.00    +0.000 A 
ATOM     29  C   UNL     1       1.963  13.034  20.446  0.00  0.00    +0.000 A 
ATOM     30  C   UNL     1       1.652  14.229  21.101  0.00  0.00    +0.000 A 
ATOM     31  C   UNL     1       0.800  15.152  20.503  0.00  0.00    +0.000 A 
ATOM     32  C   UNL     1       0.245  14.882  19.256  0.00  0.00    +0.000 A 
ATOM     33  C   UNL     1       0.548  13.686  18.603  0.00  0.00    +0.000 A 
ENDBRANCH  27  28
ENDBRANCH   1  27
TORSDOF 8
ENDMDL
