MODEL 1
REMARK VINA RESULT:      -6.5      0.000      0.000
REMARK  Name = 
REMARK  4 active torsions:
REMARK  status: ('A' for Active; 'I' for Inactive)
REMARK    1  A    between atoms: C_1  and  C_2
REMARK    2  A    between atoms: N_9  and  C_10
REMARK    3  A    between atoms: C_16  and  C_17
REMARK    4  A    between atoms: C_21  and  O_22
REMARK                            x       y       z     vdW  Elec       q    Type
REMARK                         _______ _______ _______ _____ _____    ______ ____
ROOT
ATOM      1  C   UNL     1      -0.825  13.380  22.765  0.00  0.00    +0.000 C 
ATOM      2  C   UNL     1      -0.086  12.689  21.649  0.00  0.00    +0.000 C 
ATOM      3  N   UNL     1       0.783  13.372  20.974  0.00  0.00    +0.000 NA
ATOM      4  C   UNL     1       1.450  12.813  19.928  0.00  0.00    +0.000 A 
ATOM      5  C   UNL     1       1.090  11.659  19.344  0.00  0.00    +0.000 A 
ATOM      6  C   UNL     1       1.995  11.471  18.194  0.00  0.00    +0.000 A 
ATOM      7  O   UNL     1       2.061  10.479  17.493  0.00  0.00    +0.000 OA
ATOM      8  N   UNL     1       2.755  12.620  18.106  0.00  0.00    +0.000 N 
ATOM      9  N   UNL     1       2.542  13.356  19.266  0.00  0.00    +0.000 N 
ATOM     10  C   UNL     1       0.035  10.716  19.722  0.00  0.00    +0.000 C 
ATOM     11  S   UNL     1      -0.526  11.008  21.431  0.00  0.00    +0.000 S 
ATOM     12  H   UNL     1       3.613  12.669  17.572  0.00  0.00    +0.000 HD
ENDROOT
BRANCH   9  13
ATOM     13  C   UNL     1       3.015  14.732  19.381  0.00  0.00    +0.000 C 
ATOM     14  C   UNL     1       2.077  15.718  18.683  0.00  0.00    +0.000 C 
ATOM     15  C   UNL     1       2.679  17.114  18.708  0.00  0.00    +0.000 C 
ATOM     16  O   UNL     1       3.986  17.113  18.136  0.00  0.00    +0.000 OA
ATOM     17  C   UNL     1       4.897  16.297  18.871  0.00  0.00    +0.000 C 
ATOM     18  C   UNL     1       4.446  14.848  18.850  0.00  0.00    +0.000 C 
ENDBRANCH   9  13
BRANCH  10  19
ATOM     19  C   UNL     1      -1.136  10.687  18.753  0.00  0.00    +0.000 A 
ATOM     20  C   UNL     1      -1.138   9.778  17.680  0.00  0.00    +0.000 A 
ATOM     21  C   UNL     1      -2.209   9.733  16.785  0.00  0.00    +0.000 A 
ATOM     22  C   UNL     1      -3.294  10.595  16.946  0.00  0.00    +0.000 A 
ATOM     23  C   UNL     1      -3.291  11.503  17.998  0.00  0.00    +0.000 A 
ATOM     24  C   UNL     1      -2.228  11.560  18.894  0.00  0.00    +0.000 A 
BRANCH  23  25
ATOM     25  O   UNL     1      -4.327  12.369  18.193  0.00  0.00    +0.000 OA
ATOM     26  H   UNL     1      -4.962  12.258  17.468  0.00  0.00    +0.000 HD
ENDBRANCH  23  25
ENDBRANCH  10  19
TORSDOF 3
ENDMDL
MODEL 2
REMARK VINA RESULT:      -6.5      7.655      9.617
REMARK  Name = 
REMARK  4 active torsions:
REMARK  status: ('A' for Active; 'I' for Inactive)
REMARK    1  A    between atoms: C_1  and  C_2
REMARK    2  A    between atoms: N_9  and  C_10
REMARK    3  A    between atoms: C_16  and  C_17
REMARK    4  A    between atoms: C_21  and  O_22
REMARK                            x       y       z     vdW  Elec       q    Type
REMARK                         _______ _______ _______ _____ _____    ______ ____
ROOT
ATOM      1  C   UNL     1       2.165   8.454  17.309  0.00  0.00    +0.000 C 
ATOM      2  C   UNL     1       3.052   7.373  17.871  0.00  0.00    +0.000 C 
ATOM      3  N   UNL     1       3.834   6.738  17.058  0.00  0.00    +0.000 NA
ATOM      4  C   UNL     1       4.626   5.724  17.502  0.00  0.00    +0.000 A 
ATOM      5  C   UNL     1       4.476   5.126  18.694  0.00  0.00    +0.000 A 
ATOM      6  C   UNL     1       5.449   4.018  18.733  0.00  0.00    +0.000 A 
ATOM      7  O   UNL     1       5.700   3.322  19.699  0.00  0.00    +0.000 OA
ATOM      8  N   UNL     1       6.026   3.963  17.480  0.00  0.00    +0.000 N 
ATOM      9  N   UNL     1       5.650   5.111  16.793  0.00  0.00    +0.000 N 
ATOM     10  C   UNL     1       3.562   5.456  19.791  0.00  0.00    +0.000 C 
ATOM     11  S   UNL     1       2.887   7.138  19.598  0.00  0.00    +0.000 S 
ATOM     12  H   UNL     1       6.889   3.469  17.296  0.00  0.00    +0.000 HD
ENDROOT
BRANCH   9  13
ATOM     13  C   UNL     1       5.898   5.246  15.360  0.00  0.00    +0.000 C 
ATOM     14  C   UNL     1       5.123   4.209  14.547  0.00  0.00    +0.000 C 
ATOM     15  C   UNL     1       5.519   4.297  13.081  0.00  0.00    +0.000 C 
ATOM     16  O   UNL     1       6.931   4.158  12.929  0.00  0.00    +0.000 OA
ATOM     17  C   UNL     1       7.650   5.207  13.576  0.00  0.00    +0.000 C 
ATOM     18  C   UNL     1       7.399   5.175  15.073  0.00  0.00    +0.000 C 
ENDBRANCH   9  13
BRANCH  10  19
ATOM     19  C   UNL     1       2.455   4.436  19.995  0.00  0.00    +0.000 A 
ATOM     20  C   UNL     1       1.623   4.077  18.919  0.00  0.00    +0.000 A 
ATOM     21  C   UNL     1       0.605   3.136  19.087  0.00  0.00    +0.000 A 
ATOM     22  C   UNL     1       0.402   2.539  20.331  0.00  0.00    +0.000 A 
ATOM     23  C   UNL     1       1.214   2.898  21.400  0.00  0.00    +0.000 A 
ATOM     24  C   UNL     1       2.228   3.838  21.245  0.00  0.00    +0.000 A 
BRANCH  23  25
ATOM     25  O   UNL     1       1.049   2.345  22.636  0.00  0.00    +0.000 OA
ATOM     26  H   UNL     1       0.248   2.717  23.036  0.00  0.00    +0.000 HD
ENDBRANCH  23  25
ENDBRANCH  10  19
TORSDOF 3
ENDMDL
MODEL 3
REMARK VINA RESULT:      -6.5      7.626      9.622
REMARK  Name = 
REMARK  4 active torsions:
REMARK  status: ('A' for Active; 'I' for Inactive)
REMARK    1  A    between atoms: C_1  and  C_2
REMARK    2  A    between atoms: N_9  and  C_10
REMARK    3  A    between atoms: C_16  and  C_17
REMARK    4  A    between atoms: C_21  and  O_22
REMARK                            x       y       z     vdW  Elec       q    Type
REMARK                         _______ _______ _______ _____ _____    ______ ____
ROOT
ATOM      1  C   UNL     1       1.943   8.270  17.332  0.00  0.00    +0.000 C 
ATOM      2  C   UNL     1       2.912   7.273  17.913  0.00  0.00    +0.000 C 
ATOM      3  N   UNL     1       3.717   6.659  17.107  0.00  0.00    +0.000 NA
ATOM      4  C   UNL     1       4.584   5.718  17.570  0.00  0.00    +0.000 A 
ATOM      5  C   UNL     1       4.501   5.159  18.787  0.00  0.00    +0.000 A 
ATOM      6  C   UNL     1       5.547   4.121  18.845  0.00  0.00    +0.000 A 
ATOM      7  O   UNL     1       5.864   3.482  19.831  0.00  0.00    +0.000 OA
ATOM      8  N   UNL     1       6.098   4.053  17.582  0.00  0.00    +0.000 N 
ATOM      9  N   UNL     1       5.631   5.146  16.860  0.00  0.00    +0.000 N 
ATOM     10  C   UNL     1       3.592   5.473  19.893  0.00  0.00    +0.000 C 
ATOM     11  S   UNL     1       2.802   7.098  19.652  0.00  0.00    +0.000 S 
ATOM     12  H   UNL     1       6.988   3.610  17.396  0.00  0.00    +0.000 HD
ENDROOT
BRANCH   9  13
ATOM     13  C   UNL     1       5.838   5.239  15.417  0.00  0.00    +0.000 C 
ATOM     14  C   UNL     1       5.046   4.174  14.658  0.00  0.00    +0.000 C 
ATOM     15  C   UNL     1       5.400   4.220  13.179  0.00  0.00    +0.000 C 
ATOM     16  O   UNL     1       6.808   4.084  12.992  0.00  0.00    +0.000 OA
ATOM     17  C   UNL     1       7.539   5.155  13.586  0.00  0.00    +0.000 C 
ATOM     18  C   UNL     1       7.331   5.166  15.090  0.00  0.00    +0.000 C 
ENDBRANCH   9  13
BRANCH  10  19
ATOM     19  C   UNL     1       2.560   4.391  20.164  0.00  0.00    +0.000 A 
ATOM     20  C   UNL     1       2.334   3.949  21.479  0.00  0.00    +0.000 A 
ATOM     21  C   UNL     1       1.384   2.961  21.747  0.00  0.00    +0.000 A 
ATOM     22  C   UNL     1       0.647   2.398  20.706  0.00  0.00    +0.000 A 
ATOM     23  C   UNL     1       0.875   2.822  19.402  0.00  0.00    +0.000 A 
ATOM     24  C   UNL     1       1.822   3.803  19.123  0.00  0.00    +0.000 A 
BRANCH  23  25
ATOM     25  O   UNL     1       0.182   2.296  18.351  0.00  0.00    +0.000 OA
ATOM     26  H   UNL     1       0.644   1.500  18.045  0.00  0.00    +0.000 HD
ENDBRANCH  23  25
ENDBRANCH  10  19
TORSDOF 3
ENDMDL
MODEL 4
REMARK VINA RESULT:      -6.4      3.130      5.985
REMARK  Name = 
REMARK  4 active torsions:
REMARK  status: ('A' for Active; 'I' for Inactive)
REMARK    1  A    between atoms: C_1  and  C_2
REMARK    2  A    between atoms: N_9  and  C_10
REMARK    3  A    between atoms: C_16  and  C_17
REMARK    4  A    between atoms: C_21  and  O_22
REMARK                            x       y       z     vdW  Elec       q    Type
REMARK                         _______ _______ _______ _____ _____    ______ ____
ROOT
ATOM      1  C   UNL     1       2.227  13.998  21.200  0.00  0.00    +0.000 C 
ATOM      2  C   UNL     1       1.273  13.256  20.301  0.00  0.00    +0.000 C 
ATOM      3  N   UNL     1       0.037  13.151  20.671  0.00  0.00    +0.000 NA
ATOM      4  C   UNL     1      -0.859  12.456  19.920  0.00  0.00    +0.000 A 
ATOM      5  C   UNL     1      -0.514  11.620  18.929  0.00  0.00    +0.000 A 
ATOM      6  C   UNL     1      -1.762  10.992  18.456  0.00  0.00    +0.000 A 
ATOM      7  O   UNL     1      -1.874  10.268  17.484  0.00  0.00    +0.000 OA
ATOM      8  N   UNL     1      -2.760  11.418  19.310  0.00  0.00    +0.000 N 
ATOM      9  N   UNL     1      -2.237  12.444  20.089  0.00  0.00    +0.000 N 
ATOM     10  C   UNL     1       0.810  11.342  18.366  0.00  0.00    +0.000 C 
ATOM     11  S   UNL     1       2.007  12.633  18.838  0.00  0.00    +0.000 S 
ATOM     12  H   UNL     1      -3.743  11.345  19.083  0.00  0.00    +0.000 HD
ENDROOT
BRANCH   9  13
ATOM     13  C   UNL     1      -2.961  12.950  21.251  0.00  0.00    +0.000 C 
ATOM     14  C   UNL     1      -2.638  12.154  22.515  0.00  0.00    +0.000 C 
ATOM     15  C   UNL     1      -3.516  12.624  23.665  0.00  0.00    +0.000 C 
ATOM     16  O   UNL     1      -4.896  12.544  23.313  0.00  0.00    +0.000 OA
ATOM     17  C   UNL     1      -5.225  13.394  22.215  0.00  0.00    +0.000 C 
ATOM     18  C   UNL     1      -4.466  12.971  20.971  0.00  0.00    +0.000 C 
ENDBRANCH   9  13
BRANCH  10  19
ATOM     19  C   UNL     1       1.335   9.954  18.691  0.00  0.00    +0.000 A 
ATOM     20  C   UNL     1       1.964   9.189  17.693  0.00  0.00    +0.000 A 
ATOM     21  C   UNL     1       2.460   7.915  17.977  0.00  0.00    +0.000 A 
ATOM     22  C   UNL     1       2.334   7.384  19.261  0.00  0.00    +0.000 A 
ATOM     23  C   UNL     1       1.703   8.131  20.248  0.00  0.00    +0.000 A 
ATOM     24  C   UNL     1       1.202   9.400  19.975  0.00  0.00    +0.000 A 
BRANCH  23  25
ATOM     25  O   UNL     1       1.552   7.652  21.516  0.00  0.00    +0.000 OA
ATOM     26  H   UNL     1       1.390   8.400  22.111  0.00  0.00    +0.000 HD
ENDBRANCH  23  25
ENDBRANCH  10  19
TORSDOF 3
ENDMDL
MODEL 5
REMARK VINA RESULT:      -6.3      4.083      7.088
REMARK  Name = 
REMARK  4 active torsions:
REMARK  status: ('A' for Active; 'I' for Inactive)
REMARK    1  A    between atoms: C_1  and  C_2
REMARK    2  A    between atoms: N_9  and  C_10
REMARK    3  A    between atoms: C_16  and  C_17
REMARK    4  A    between atoms: C_21  and  O_22
REMARK                            x       y       z     vdW  Elec       q    Type
REMARK                         _______ _______ _______ _____ _____    ______ ____
ROOT
ATOM      1  C   UNL     1      -0.114   9.479  23.410  0.00  0.00    +0.000 C 
ATOM      2  C   UNL     1       0.223   9.500  21.942  0.00  0.00    +0.000 C 
ATOM      3  N   UNL     1       0.997   8.572  21.476  0.00  0.00    +0.000 NA
ATOM      4  C   UNL     1       1.369   8.565  20.168  0.00  0.00    +0.000 A 
ATOM      5  C   UNL     1       1.216   9.612  19.342  0.00  0.00    +0.000 A 
ATOM      6  C   UNL     1       1.845   9.233  18.063  0.00  0.00    +0.000 A 
ATOM      7  O   UNL     1       1.802   9.872  17.029  0.00  0.00    +0.000 OA
ATOM      8  N   UNL     1       2.451   8.011  18.275  0.00  0.00    +0.000 N 
ATOM      9  N   UNL     1       2.009   7.529  19.502  0.00  0.00    +0.000 N 
ATOM     10  C   UNL     1       0.558  10.898  19.585  0.00  0.00    +0.000 C 
ATOM     11  S   UNL     1      -0.514  10.820  21.057  0.00  0.00    +0.000 S 
ATOM     12  H   UNL     1       2.743   7.406  17.518  0.00  0.00    +0.000 HD
ENDROOT
BRANCH   9  13
ATOM     13  C   UNL     1       2.642   6.371  20.128  0.00  0.00    +0.000 C 
ATOM     14  C   UNL     1       3.668   5.714  19.205  0.00  0.00    +0.000 C 
ATOM     15  C   UNL     1       4.196   4.437  19.841  0.00  0.00    +0.000 C 
ATOM     16  O   UNL     1       3.123   3.556  20.172  0.00  0.00    +0.000 OA
ATOM     17  C   UNL     1       2.239   4.120  21.139  0.00  0.00    +0.000 C 
ATOM     18  C   UNL     1       1.579   5.370  20.587  0.00  0.00    +0.000 C 
ENDBRANCH   9  13
BRANCH  10  19
ATOM     19  C   UNL     1       1.518  12.073  19.662  0.00  0.00    +0.000 A 
ATOM     20  C   UNL     1       2.105  12.579  18.488  0.00  0.00    +0.000 A 
ATOM     21  C   UNL     1       2.984  13.663  18.540  0.00  0.00    +0.000 A 
ATOM     22  C   UNL     1       3.292  14.257  19.763  0.00  0.00    +0.000 A 
ATOM     23  C   UNL     1       2.725  13.754  20.927  0.00  0.00    +0.000 A 
ATOM     24  C   UNL     1       1.851  12.671  20.888  0.00  0.00    +0.000 A 
BRANCH  23  25
ATOM     25  O   UNL     1       3.000  14.299  22.147  0.00  0.00    +0.000 OA
ATOM     26  H   UNL     1       2.485  15.115  22.242  0.00  0.00    +0.000 HD
ENDBRANCH  23  25
ENDBRANCH  10  19
TORSDOF 3
ENDMDL
MODEL 6
REMARK VINA RESULT:      -6.3      8.090     10.232
REMARK  Name = 
REMARK  4 active torsions:
REMARK  status: ('A' for Active; 'I' for Inactive)
REMARK    1  A    between atoms: C_1  and  C_2
REMARK    2  A    between atoms: N_9  and  C_10
REMARK    3  A    between atoms: C_16  and  C_17
REMARK    4  A    between atoms: C_21  and  O_22
REMARK                            x       y       z     vdW  Elec       q    Type
REMARK                         _______ _______ _______ _____ _____    ______ ____
ROOT
ATOM      1  C   UNL     1       7.844   7.612  17.889  0.00  0.00    +0.000 C 
ATOM      2  C   UNL     1       7.032   6.343  17.864  0.00  0.00    +0.000 C 
ATOM      3  N   UNL     1       6.685   5.859  16.714  0.00  0.00    +0.000 NA
ATOM      4  C   UNL     1       5.916   4.740  16.632  0.00  0.00    +0.000 A 
ATOM      5  C   UNL     1       5.242   4.219  17.669  0.00  0.00    +0.000 A 
ATOM      6  C   UNL     1       4.455   3.092  17.133  0.00  0.00    +0.000 A 
ATOM      7  O   UNL     1       3.812   2.295  17.790  0.00  0.00    +0.000 OA
ATOM      8  N   UNL     1       4.627   3.113  15.764  0.00  0.00    +0.000 N 
ATOM      9  N   UNL     1       5.655   4.007  15.483  0.00  0.00    +0.000 N 
ATOM     10  C   UNL     1       5.246   4.622  19.077  0.00  0.00    +0.000 C 
ATOM     11  S   UNL     1       6.675   5.690  19.449  0.00  0.00    +0.000 S 
ATOM     12  H   UNL     1       4.408   2.323  15.172  0.00  0.00    +0.000 HD
ENDROOT
BRANCH   9  13
ATOM     13  C   UNL     1       5.925   4.436  14.114  0.00  0.00    +0.000 C 
ATOM     14  C   UNL     1       5.549   3.362  13.094  0.00  0.00    +0.000 C 
ATOM     15  C   UNL     1       5.975   3.795  11.700  0.00  0.00    +0.000 C 
ATOM     16  O   UNL     1       7.368   4.105  11.671  0.00  0.00    +0.000 OA
ATOM     17  C   UNL     1       7.696   5.201  12.523  0.00  0.00    +0.000 C 
ATOM     18  C   UNL     1       7.389   4.857  13.969  0.00  0.00    +0.000 C 
ENDBRANCH   9  13
BRANCH  10  19
ATOM     19  C   UNL     1       3.945   5.260  19.535  0.00  0.00    +0.000 A 
ATOM     20  C   UNL     1       3.100   4.571  20.422  0.00  0.00    +0.000 A 
ATOM     21  C   UNL     1       1.904   5.145  20.860  0.00  0.00    +0.000 A 
ATOM     22  C   UNL     1       1.533   6.414  20.417  0.00  0.00    +0.000 A 
ATOM     23  C   UNL     1       2.359   7.094  19.531  0.00  0.00    +0.000 A 
ATOM     24  C   UNL     1       3.551   6.531  19.085  0.00  0.00    +0.000 A 
BRANCH  23  25
ATOM     25  O   UNL     1       2.036   8.336  19.066  0.00  0.00    +0.000 OA
ATOM     26  H   UNL     1       1.075   8.447  19.127  0.00  0.00    +0.000 HD
ENDBRANCH  23  25
ENDBRANCH  10  19
TORSDOF 3
ENDMDL
MODEL 7
REMARK VINA RESULT:      -6.2      7.119      9.441
REMARK  Name = 
REMARK  4 active torsions:
REMARK  status: ('A' for Active; 'I' for Inactive)
REMARK    1  A    between atoms: C_1  and  C_2
REMARK    2  A    between atoms: N_9  and  C_10
REMARK    3  A    between atoms: C_16  and  C_17
REMARK    4  A    between atoms: C_21  and  O_22
REMARK                            x       y       z     vdW  Elec       q    Type
REMARK                         _______ _______ _______ _____ _____    ______ ____
ROOT
ATOM      1  C   UNL     1       2.198   2.509  17.782  0.00  0.00    +0.000 C 
ATOM      2  C   UNL     1       3.259   3.578  17.770  0.00  0.00    +0.000 C 
ATOM      3  N   UNL     1       2.890   4.811  17.910  0.00  0.00    +0.000 NA
ATOM      4  C   UNL     1       3.799   5.821  17.864  0.00  0.00    +0.000 A 
ATOM      5  C   UNL     1       5.054   5.677  17.411  0.00  0.00    +0.000 A 
ATOM      6  C   UNL     1       5.663   7.020  17.424  0.00  0.00    +0.000 A 
ATOM      7  O   UNL     1       6.831   7.278  17.200  0.00  0.00    +0.000 OA
ATOM      8  N   UNL     1       4.656   7.899  17.769  0.00  0.00    +0.000 N 
ATOM      9  N   UNL     1       3.572   7.147  18.207  0.00  0.00    +0.000 N 
ATOM     10  C   UNL     1       5.754   4.462  16.985  0.00  0.00    +0.000 C 
ATOM     11  S   UNL     1       4.888   2.968  17.566  0.00  0.00    +0.000 S 
ATOM     12  H   UNL     1       4.838   8.841  18.091  0.00  0.00    +0.000 HD
ENDROOT
BRANCH   9  13
ATOM     13  C   UNL     1       2.265   7.763  18.420  0.00  0.00    +0.000 C 
ATOM     14  C   UNL     1       2.137   9.098  17.687  0.00  0.00    +0.000 C 
ATOM     15  C   UNL     1       0.820   9.767  18.050  0.00  0.00    +0.000 C 
ATOM     16  O   UNL     1       0.700   9.913  19.465  0.00  0.00    +0.000 OA
ATOM     17  C   UNL     1       0.682   8.655  20.139  0.00  0.00    +0.000 C 
ATOM     18  C   UNL     1       1.991   7.918  19.918  0.00  0.00    +0.000 C 
ENDBRANCH   9  13
BRANCH  10  19
ATOM     19  C   UNL     1       6.020   4.401  15.490  0.00  0.00    +0.000 A 
ATOM     20  C   UNL     1       5.140   3.699  14.648  0.00  0.00    +0.000 A 
ATOM     21  C   UNL     1       5.365   3.639  13.271  0.00  0.00    +0.000 A 
ATOM     22  C   UNL     1       6.473   4.277  12.714  0.00  0.00    +0.000 A 
ATOM     23  C   UNL     1       7.353   4.963  13.543  0.00  0.00    +0.000 A 
ATOM     24  C   UNL     1       7.140   5.026  14.917  0.00  0.00    +0.000 A 
BRANCH  23  25
ATOM     25  O   UNL     1       8.452   5.598  13.045  0.00  0.00    +0.000 OA
ATOM     26  H   UNL     1       8.593   6.412  13.552  0.00  0.00    +0.000 HD
ENDBRANCH  23  25
ENDBRANCH  10  19
TORSDOF 3
ENDMDL
MODEL 8
REMARK VINA RESULT:      -6.2      3.992      7.098
REMARK  Name = 
REMARK  4 active torsions:
REMARK  status: ('A' for Active; 'I' for Inactive)
REMARK    1  A    between atoms: C_1  and  C_2
REMARK    2  A    between atoms: N_9  and  C_10
REMARK    3  A    between atoms: C_16  and  C_17
REMARK    4  A    between atoms: C_21  and  O_22
REMARK                            x       y       z     vdW  Elec       q    Type
REMARK                         _______ _______ _______ _____ _____    ______ ____
ROOT
ATOM      1  C   UNL     1      -0.095   9.504  23.406  0.00  0.00    +0.000 C 
ATOM      2  C   UNL     1       0.236   9.522  21.937  0.00  0.00    +0.000 C 
ATOM      3  N   UNL     1       1.007   8.592  21.470  0.00  0.00    +0.000 NA
ATOM      4  C   UNL     1       1.374   8.582  20.160  0.00  0.00    +0.000 A 
ATOM      5  C   UNL     1       1.219   9.627  19.333  0.00  0.00    +0.000 A 
ATOM      6  C   UNL     1       1.842   9.244  18.052  0.00  0.00    +0.000 A 
ATOM      7  O   UNL     1       1.795   9.882  17.016  0.00  0.00    +0.000 OA
ATOM      8  N   UNL     1       2.448   8.022  18.264  0.00  0.00    +0.000 N 
ATOM      9  N   UNL     1       2.010   7.544  19.494  0.00  0.00    +0.000 N 
ATOM     10  C   UNL     1       0.563  10.914  19.575  0.00  0.00    +0.000 C 
ATOM     11  S   UNL     1      -0.503  10.840  21.052  0.00  0.00    +0.000 S 
ATOM     12  H   UNL     1       2.735   7.415  17.508  0.00  0.00    +0.000 HD
ENDROOT
BRANCH   9  13
ATOM     13  C   UNL     1       2.644   6.386  20.120  0.00  0.00    +0.000 C 
ATOM     14  C   UNL     1       3.675   5.733  19.199  0.00  0.00    +0.000 C 
ATOM     15  C   UNL     1       4.204   4.457  19.835  0.00  0.00    +0.000 C 
ATOM     16  O   UNL     1       3.133   3.572  20.161  0.00  0.00    +0.000 OA
ATOM     17  C   UNL     1       2.244   4.132  21.126  0.00  0.00    +0.000 C 
ATOM     18  C   UNL     1       1.582   5.381  20.573  0.00  0.00    +0.000 C 
ENDBRANCH   9  13
BRANCH  10  19
ATOM     19  C   UNL     1       1.525  12.088  19.646  0.00  0.00    +0.000 A 
ATOM     20  C   UNL     1       1.863  12.645  20.892  0.00  0.00    +0.000 A 
ATOM     21  C   UNL     1       2.752  13.720  20.976  0.00  0.00    +0.000 A 
ATOM     22  C   UNL     1       3.315  14.255  19.817  0.00  0.00    +0.000 A 
ATOM     23  C   UNL     1       2.974  13.716  18.583  0.00  0.00    +0.000 A 
ATOM     24  C   UNL     1       2.087  12.648  18.487  0.00  0.00    +0.000 A 
BRANCH  23  25
ATOM     25  O   UNL     1       3.495  14.210  17.422  0.00  0.00    +0.000 OA
ATOM     26  H   UNL     1       3.753  13.464  16.859  0.00  0.00    +0.000 HD
ENDBRANCH  23  25
ENDBRANCH  10  19
TORSDOF 3
ENDMDL
MODEL 9
REMARK VINA RESULT:      -6.2      3.058      4.739
REMARK  Name = 
REMARK  4 active torsions:
REMARK  status: ('A' for Active; 'I' for Inactive)
REMARK    1  A    between atoms: C_1  and  C_2
REMARK    2  A    between atoms: N_9  and  C_10
REMARK    3  A    between atoms: C_16  and  C_17
REMARK    4  A    between atoms: C_21  and  O_22
REMARK                            x       y       z     vdW  Elec       q    Type
REMARK                         _______ _______ _______ _____ _____    ______ ____
ROOT
ATOM      1  C   UNL     1      -0.107   9.259  23.081  0.00  0.00    +0.000 C 
ATOM      2  C   UNL     1      -0.038  10.482  22.203  0.00  0.00    +0.000 C 
ATOM      3  N   UNL     1      -0.435  11.612  22.693  0.00  0.00    +0.000 NA
ATOM      4  C   UNL     1      -0.436  12.741  21.934  0.00  0.00    +0.000 A 
ATOM      5  C   UNL     1      -0.305  12.742  20.598  0.00  0.00    +0.000 A 
ATOM      6  C   UNL     1      -0.472  14.141  20.161  0.00  0.00    +0.000 A 
ATOM      7  O   UNL     1      -0.299  14.562  19.033  0.00  0.00    +0.000 OA
ATOM      8  N   UNL     1      -0.826  14.859  21.285  0.00  0.00    +0.000 N 
ATOM      9  N   UNL     1      -0.630  14.037  22.389  0.00  0.00    +0.000 N 
ATOM     10  C   UNL     1      -0.036  11.624  19.690  0.00  0.00    +0.000 C 
ATOM     11  S   UNL     1       0.596  10.177  20.599  0.00  0.00    +0.000 S 
ATOM     12  H   UNL     1      -0.765  15.868  21.332  0.00  0.00    +0.000 HD
ENDROOT
BRANCH   9  13
ATOM     13  C   UNL     1      -1.133  14.414  23.707  0.00  0.00    +0.000 C 
ATOM     14  C   UNL     1      -2.646  14.220  23.817  0.00  0.00    +0.000 C 
ATOM     15  C   UNL     1      -3.143  14.755  25.152  0.00  0.00    +0.000 C 
ATOM     16  O   UNL     1      -2.758  16.118  25.325  0.00  0.00    +0.000 OA
ATOM     17  C   UNL     1      -1.341  16.280  25.359  0.00  0.00    +0.000 C 
ATOM     18  C   UNL     1      -0.728  15.853  24.038  0.00  0.00    +0.000 C 
ENDBRANCH   9  13
BRANCH  10  19
ATOM     19  C   UNL     1      -1.218  11.252  18.810  0.00  0.00    +0.000 A 
ATOM     20  C   UNL     1      -1.084  10.238  17.845  0.00  0.00    +0.000 A 
ATOM     21  C   UNL     1      -2.162   9.878  17.034  0.00  0.00    +0.000 A 
ATOM     22  C   UNL     1      -3.390  10.525  17.172  0.00  0.00    +0.000 A 
ATOM     23  C   UNL     1      -3.525  11.535  18.116  0.00  0.00    +0.000 A 
ATOM     24  C   UNL     1      -2.456  11.906  18.927  0.00  0.00    +0.000 A 
BRANCH  23  25
ATOM     25  O   UNL     1      -4.704  12.200  18.284  0.00  0.00    +0.000 OA
ATOM     26  H   UNL     1      -4.929  12.195  19.227  0.00  0.00    +0.000 HD
ENDBRANCH  23  25
ENDBRANCH  10  19
TORSDOF 3
ENDMDL
