MODEL 1
REMARK VINA RESULT:      -6.4      0.000      0.000
REMARK  Name = 
REMARK  15 active torsions:
REMARK  status: ('A' for Active; 'I' for Inactive)
REMARK    1  A    between atoms: C_1  and  O_2
REMARK    2  A    between atoms: O_2  and  C_3
REMARK    3  A    between atoms: C_3  and  C_5
REMARK    4  A    between atoms: C_5  and  C_6
REMARK    5  A    between atoms: C_5  and  N_12
REMARK    6  A    between atoms: C_6  and  S_7
REMARK    7  A    between atoms: S_7  and  C_8
REMARK    8  A    between atoms: C_8  and  C_9
REMARK    9  A    between atoms: C_8  and  C_10
REMARK   10  A    between atoms: C_8  and  C_11
REMARK   11  A    between atoms: C_13  and  C_15
REMARK   12  A    between atoms: C_15  and  N_16
REMARK   13  A    between atoms: C_15  and  C_17
REMARK   14  A    between atoms: C_17  and  C_18
REMARK   15  A    between atoms: C_18  and  O_20
REMARK                            x       y       z     vdW  Elec       q    Type
REMARK                         _______ _______ _______ _____ _____    ______ ____
ROOT
ATOM      1  N   UNL     1       2.427   5.224  18.693  0.00  0.00    +0.000 N 
ATOM      2  C   UNL     1       1.641   4.214  18.175  0.00  0.00    +0.000 C 
ATOM      3  O   UNL     1       1.044   4.292  17.105  0.00  0.00    +0.000 OA
ATOM      4  H   UNL     1       3.168   4.881  19.302  0.00  0.00    +0.000 HD
ENDROOT
BRANCH   1   5
ATOM      5  C   UNL     1       2.755   6.407  17.889  0.00  0.00    +0.000 C 
BRANCH   5   6
ATOM      6  C   UNL     1       2.395   7.694  18.649  0.00  0.00    +0.000 C 
ATOM      7  O   UNL     1       2.279   8.798  18.129  0.00  0.00    +0.000 OA
BRANCH   6   9
ATOM      8  C   UNL     1       1.368   8.345  20.649  0.00  0.00    +0.000 C 
ATOM      9  O   UNL     1       2.240   7.434  19.979  0.00  0.00    +0.000 OA
ENDBRANCH   6   9
ENDBRANCH   5   6
BRANCH   5  10
ATOM     10  C   UNL     1       4.265   6.493  17.627  0.00  0.00    +0.000 C 
BRANCH  10  11
ATOM     11  S   UNL     1       5.241   5.338  18.670  0.00  0.00    +0.000 S 
BRANCH  11  12
ATOM     12  C   UNL     1       6.977   5.725  18.133  0.00  0.00    +0.000 C 
ATOM     13  C   UNL     1       7.918   5.803  19.342  0.00  0.00    +0.000 C 
ATOM     14  C   UNL     1       7.434   4.570  17.226  0.00  0.00    +0.000 C 
ATOM     15  C   UNL     1       7.021   7.032  17.332  0.00  0.00    +0.000 C 
ENDBRANCH  11  12
ENDBRANCH  10  11
ENDBRANCH   5  10
ENDBRANCH   1   5
BRANCH   2  16
ATOM     16  C   UNL     1       1.585   2.973  19.080  0.00  0.00    +0.000 C 
BRANCH  16  17
ATOM     17  N   UNL     1       0.821   1.937  18.353  0.00  0.00    +0.000 NA
ATOM     18  H   UNL     1       0.518   2.309  17.452  0.00  0.00    +0.000 HD
ATOM     19  H   UNL     1      -0.049   1.767  18.877  0.00  0.00    +0.000 HD
ENDBRANCH  16  17
BRANCH  16  20
ATOM     20  C   UNL     1       1.002   3.363  20.442  0.00  0.00    +0.000 C 
BRANCH  20  21
ATOM     21  C   UNL     1       2.071   3.587  21.474  0.00  0.00    +0.000 C 
ATOM     22  O   UNL     1       2.511   2.719  22.216  0.00  0.00    +0.000 OA
BRANCH  21  23
ATOM     23  O   UNL     1       2.473   4.873  21.563  0.00  0.00    +0.000 OA
ATOM     24  H   UNL     1       2.768   5.145  22.457  0.00  0.00    +0.000 HD
ENDBRANCH  21  23
ENDBRANCH  20  21
ENDBRANCH  16  20
ENDBRANCH   2  16
TORSDOF 11
ENDMDL
MODEL 2
REMARK VINA RESULT:      -6.3      4.018      6.728
REMARK  Name = 
REMARK  15 active torsions:
REMARK  status: ('A' for Active; 'I' for Inactive)
REMARK    1  A    between atoms: C_1  and  O_2
REMARK    2  A    between atoms: O_2  and  C_3
REMARK    3  A    between atoms: C_3  and  C_5
REMARK    4  A    between atoms: C_5  and  C_6
REMARK    5  A    between atoms: C_5  and  N_12
REMARK    6  A    between atoms: C_6  and  S_7
REMARK    7  A    between atoms: S_7  and  C_8
REMARK    8  A    between atoms: C_8  and  C_9
REMARK    9  A    between atoms: C_8  and  C_10
REMARK   10  A    between atoms: C_8  and  C_11
REMARK   11  A    between atoms: C_13  and  C_15
REMARK   12  A    between atoms: C_15  and  N_16
REMARK   13  A    between atoms: C_15  and  C_17
REMARK   14  A    between atoms: C_17  and  C_18
REMARK   15  A    between atoms: C_18  and  O_20
REMARK                            x       y       z     vdW  Elec       q    Type
REMARK                         _______ _______ _______ _____ _____    ______ ____
ROOT
ATOM      1  N   UNL     1       5.610   4.346  16.410  0.00  0.00    +0.000 N 
ATOM      2  C   UNL     1       6.903   4.336  15.928  0.00  0.00    +0.000 C 
ATOM      3  O   UNL     1       7.900   4.358  16.643  0.00  0.00    +0.000 OA
ATOM      4  H   UNL     1       4.945   3.896  15.784  0.00  0.00    +0.000 HD
ENDROOT
BRANCH   1   5
ATOM      5  C   UNL     1       5.343   4.193  17.845  0.00  0.00    +0.000 C 
BRANCH   5   6
ATOM      6  C   UNL     1       5.195   5.566  18.519  0.00  0.00    +0.000 C 
ATOM      7  O   UNL     1       4.530   6.493  18.069  0.00  0.00    +0.000 OA
BRANCH   6   9
ATOM      8  C   UNL     1       7.330   5.687  19.472  0.00  0.00    +0.000 C 
ATOM      9  O   UNL     1       5.918   5.609  19.674  0.00  0.00    +0.000 OA
ENDBRANCH   6   9
ENDBRANCH   5   6
BRANCH   5  10
ATOM     10  C   UNL     1       4.007   3.473  18.081  0.00  0.00    +0.000 C 
BRANCH  10  11
ATOM     11  S   UNL     1       3.846   2.799  19.782  0.00  0.00    +0.000 S 
BRANCH  11  12
ATOM     12  C   UNL     1       2.160   3.410  20.269  0.00  0.00    +0.000 C 
ATOM     13  C   UNL     1       2.198   4.907  20.600  0.00  0.00    +0.000 C 
ATOM     14  C   UNL     1       1.238   3.196  19.057  0.00  0.00    +0.000 C 
ATOM     15  C   UNL     1       1.612   2.611  21.456  0.00  0.00    +0.000 C 
ENDBRANCH  11  12
ENDBRANCH  10  11
ENDBRANCH   5  10
ENDBRANCH   1   5
BRANCH   2  16
ATOM     16  C   UNL     1       6.971   4.296  14.392  0.00  0.00    +0.000 C 
BRANCH  16  17
ATOM     17  N   UNL     1       7.716   5.496  13.957  0.00  0.00    +0.000 NA
ATOM     18  H   UNL     1       8.011   6.028  14.777  0.00  0.00    +0.000 HD
ATOM     19  H   UNL     1       7.055   6.111  13.464  0.00  0.00    +0.000 HD
ENDBRANCH  16  17
BRANCH  16  20
ATOM     20  C   UNL     1       5.553   4.181  13.825  0.00  0.00    +0.000 C 
BRANCH  20  21
ATOM     21  C   UNL     1       5.542   3.603  12.438  0.00  0.00    +0.000 C 
ATOM     22  O   UNL     1       4.529   3.319  11.812  0.00  0.00    +0.000 OA
BRANCH  21  23
ATOM     23  O   UNL     1       6.776   3.354  11.948  0.00  0.00    +0.000 OA
ATOM     24  H   UNL     1       7.072   2.425  12.047  0.00  0.00    +0.000 HD
ENDBRANCH  21  23
ENDBRANCH  20  21
ENDBRANCH  16  20
ENDBRANCH   2  16
TORSDOF 11
ENDMDL
MODEL 3
REMARK VINA RESULT:      -6.2      0.862      1.164
REMARK  Name = 
REMARK  15 active torsions:
REMARK  status: ('A' for Active; 'I' for Inactive)
REMARK    1  A    between atoms: C_1  and  O_2
REMARK    2  A    between atoms: O_2  and  C_3
REMARK    3  A    between atoms: C_3  and  C_5
REMARK    4  A    between atoms: C_5  and  C_6
REMARK    5  A    between atoms: C_5  and  N_12
REMARK    6  A    between atoms: C_6  and  S_7
REMARK    7  A    between atoms: S_7  and  C_8
REMARK    8  A    between atoms: C_8  and  C_9
REMARK    9  A    between atoms: C_8  and  C_10
REMARK   10  A    between atoms: C_8  and  C_11
REMARK   11  A    between atoms: C_13  and  C_15
REMARK   12  A    between atoms: C_15  and  N_16
REMARK   13  A    between atoms: C_15  and  C_17
REMARK   14  A    between atoms: C_17  and  C_18
REMARK   15  A    between atoms: C_18  and  O_20
REMARK                            x       y       z     vdW  Elec       q    Type
REMARK                         _______ _______ _______ _____ _____    ______ ____
ROOT
ATOM      1  N   UNL     1       2.619   4.860  18.549  0.00  0.00    +0.000 N 
ATOM      2  C   UNL     1       1.646   3.971  18.140  0.00  0.00    +0.000 C 
ATOM      3  O   UNL     1       0.906   4.160  17.180  0.00  0.00    +0.000 OA
ATOM      4  H   UNL     1       3.398   4.410  19.027  0.00  0.00    +0.000 HD
ENDROOT
BRANCH   1   5
ATOM      5  C   UNL     1       2.959   6.029  17.730  0.00  0.00    +0.000 C 
BRANCH   5   6
ATOM      6  C   UNL     1       2.564   7.329  18.450  0.00  0.00    +0.000 C 
ATOM      7  O   UNL     1       2.355   7.420  19.654  0.00  0.00    +0.000 OA
BRANCH   6   9
ATOM      8  C   UNL     1       1.817   9.516  18.080  0.00  0.00    +0.000 C 
ATOM      9  O   UNL     1       2.465   8.356  17.558  0.00  0.00    +0.000 OA
ENDBRANCH   6   9
ENDBRANCH   5   6
BRANCH   5  10
ATOM     10  C   UNL     1       4.476   6.125  17.512  0.00  0.00    +0.000 C 
BRANCH  10  11
ATOM     11  S   UNL     1       5.445   5.335  18.857  0.00  0.00    +0.000 S 
BRANCH  11  12
ATOM     12  C   UNL     1       7.188   5.700  18.326  0.00  0.00    +0.000 C 
ATOM     13  C   UNL     1       8.134   5.718  19.534  0.00  0.00    +0.000 C 
ATOM     14  C   UNL     1       7.616   4.565  17.381  0.00  0.00    +0.000 C 
ATOM     15  C   UNL     1       7.259   7.030  17.568  0.00  0.00    +0.000 C 
ENDBRANCH  11  12
ENDBRANCH  10  11
ENDBRANCH   5  10
ENDBRANCH   1   5
BRANCH   2  16
ATOM     16  C   UNL     1       1.581   2.708  19.016  0.00  0.00    +0.000 C 
BRANCH  16  17
ATOM     17  N   UNL     1       0.214   2.634  19.573  0.00  0.00    +0.000 NA
ATOM     18  H   UNL     1       0.205   1.990  20.365  0.00  0.00    +0.000 HD
ATOM     19  H   UNL     1      -0.388   2.194  18.864  0.00  0.00    +0.000 HD
ENDBRANCH  16  17
BRANCH  16  20
ATOM     20  C   UNL     1       2.698   2.757  20.062  0.00  0.00    +0.000 C 
BRANCH  20  21
ATOM     21  C   UNL     1       2.240   3.372  21.354  0.00  0.00    +0.000 C 
ATOM     22  O   UNL     1       1.704   2.754  22.264  0.00  0.00    +0.000 OA
BRANCH  21  23
ATOM     23  O   UNL     1       2.414   4.710  21.406  0.00  0.00    +0.000 OA
ATOM     24  H   UNL     1       1.585   5.224  21.495  0.00  0.00    +0.000 HD
ENDBRANCH  21  23
ENDBRANCH  20  21
ENDBRANCH  16  20
ENDBRANCH   2  16
TORSDOF 11
ENDMDL
MODEL 4
REMARK VINA RESULT:      -6.2      3.984      6.607
REMARK  Name = 
REMARK  15 active torsions:
REMARK  status: ('A' for Active; 'I' for Inactive)
REMARK    1  A    between atoms: C_1  and  O_2
REMARK    2  A    between atoms: O_2  and  C_3
REMARK    3  A    between atoms: C_3  and  C_5
REMARK    4  A    between atoms: C_5  and  C_6
REMARK    5  A    between atoms: C_5  and  N_12
REMARK    6  A    between atoms: C_6  and  S_7
REMARK    7  A    between atoms: S_7  and  C_8
REMARK    8  A    between atoms: C_8  and  C_9
REMARK    9  A    between atoms: C_8  and  C_10
REMARK   10  A    between atoms: C_8  and  C_11
REMARK   11  A    between atoms: C_13  and  C_15
REMARK   12  A    between atoms: C_15  and  N_16
REMARK   13  A    between atoms: C_15  and  C_17
REMARK   14  A    between atoms: C_17  and  C_18
REMARK   15  A    between atoms: C_18  and  O_20
REMARK                            x       y       z     vdW  Elec       q    Type
REMARK                         _______ _______ _______ _____ _____    ______ ____
ROOT
ATOM      1  N   UNL     1       5.418   3.959  16.444  0.00  0.00    +0.000 N 
ATOM      2  C   UNL     1       6.650   4.364  15.972  0.00  0.00    +0.000 C 
ATOM      3  O   UNL     1       7.527   4.853  16.679  0.00  0.00    +0.000 OA
ATOM      4  H   UNL     1       5.003   3.212  15.889  0.00  0.00    +0.000 HD
ENDROOT
BRANCH   1   5
ATOM      5  C   UNL     1       5.143   3.915  17.885  0.00  0.00    +0.000 C 
BRANCH   5   6
ATOM      6  C   UNL     1       4.737   5.305  18.400  0.00  0.00    +0.000 C 
ATOM      7  O   UNL     1       5.262   5.874  19.351  0.00  0.00    +0.000 OA
BRANCH   6   9
ATOM      8  C   UNL     1       3.330   7.136  18.015  0.00  0.00    +0.000 C 
ATOM      9  O   UNL     1       3.705   5.804  17.661  0.00  0.00    +0.000 OA
ENDBRANCH   6   9
ENDBRANCH   5   6
BRANCH   5  10
ATOM     10  C   UNL     1       3.949   2.999  18.188  0.00  0.00    +0.000 C 
BRANCH  10  11
ATOM     11  S   UNL     1       3.755   2.643  19.980  0.00  0.00    +0.000 S 
BRANCH  11  12
ATOM     12  C   UNL     1       2.068   3.346  20.320  0.00  0.00    +0.000 C 
ATOM     13  C   UNL     1       1.160   3.202  19.092  0.00  0.00    +0.000 C 
ATOM     14  C   UNL     1       1.467   2.530  21.476  0.00  0.00    +0.000 C 
ATOM     15  C   UNL     1       2.165   4.815  20.747  0.00  0.00    +0.000 C 
ENDBRANCH  11  12
ENDBRANCH  10  11
ENDBRANCH   5  10
ENDBRANCH   1   5
BRANCH   2  16
ATOM     16  C   UNL     1       6.818   4.141  14.460  0.00  0.00    +0.000 C 
BRANCH  16  17
ATOM     17  N   UNL     1       7.617   5.270  13.939  0.00  0.00    +0.000 NA
ATOM     18  H   UNL     1       7.000   5.935  13.470  0.00  0.00    +0.000 HD
ATOM     19  H   UNL     1       8.227   4.903  13.196  0.00  0.00    +0.000 HD
ENDBRANCH  16  17
BRANCH  16  20
ATOM     20  C   UNL     1       5.438   3.981  13.815  0.00  0.00    +0.000 C 
BRANCH  20  21
ATOM     21  C   UNL     1       5.520   3.384  12.438  0.00  0.00    +0.000 C 
ATOM     22  O   UNL     1       4.589   3.335  11.646  0.00  0.00    +0.000 OA
BRANCH  21  23
ATOM     23  O   UNL     1       6.721   2.831  12.162  0.00  0.00    +0.000 OA
ATOM     24  H   UNL     1       7.447   3.122  12.752  0.00  0.00    +0.000 HD
ENDBRANCH  21  23
ENDBRANCH  20  21
ENDBRANCH  16  20
ENDBRANCH   2  16
TORSDOF 11
ENDMDL
MODEL 5
REMARK VINA RESULT:      -6.2      0.863      1.553
REMARK  Name = 
REMARK  15 active torsions:
REMARK  status: ('A' for Active; 'I' for Inactive)
REMARK    1  A    between atoms: C_1  and  O_2
REMARK    2  A    between atoms: O_2  and  C_3
REMARK    3  A    between atoms: C_3  and  C_5
REMARK    4  A    between atoms: C_5  and  C_6
REMARK    5  A    between atoms: C_5  and  N_12
REMARK    6  A    between atoms: C_6  and  S_7
REMARK    7  A    between atoms: S_7  and  C_8
REMARK    8  A    between atoms: C_8  and  C_9
REMARK    9  A    between atoms: C_8  and  C_10
REMARK   10  A    between atoms: C_8  and  C_11
REMARK   11  A    between atoms: C_13  and  C_15
REMARK   12  A    between atoms: C_15  and  N_16
REMARK   13  A    between atoms: C_15  and  C_17
REMARK   14  A    between atoms: C_17  and  C_18
REMARK   15  A    between atoms: C_18  and  O_20
REMARK                            x       y       z     vdW  Elec       q    Type
REMARK                         _______ _______ _______ _____ _____    ______ ____
ROOT
ATOM      1  N   UNL     1       2.276   4.820  18.711  0.00  0.00    +0.000 N 
ATOM      2  C   UNL     1       1.898   3.655  18.075  0.00  0.00    +0.000 C 
ATOM      3  O   UNL     1       1.719   3.563  16.864  0.00  0.00    +0.000 OA
ATOM      4  H   UNL     1       2.794   4.655  19.572  0.00  0.00    +0.000 HD
ENDROOT
BRANCH   1   5
ATOM      5  C   UNL     1       2.678   6.001  17.938  0.00  0.00    +0.000 C 
BRANCH   5   6
ATOM      6  C   UNL     1       2.562   7.273  18.793  0.00  0.00    +0.000 C 
ATOM      7  O   UNL     1       2.230   7.289  19.973  0.00  0.00    +0.000 OA
BRANCH   6   9
ATOM      8  C   UNL     1       1.750   9.233  17.804  0.00  0.00    +0.000 C 
ATOM      9  O   UNL     1       2.865   8.375  18.050  0.00  0.00    +0.000 OA
ENDBRANCH   6   9
ENDBRANCH   5   6
BRANCH   5  10
ATOM     10  C   UNL     1       4.155   5.914  17.529  0.00  0.00    +0.000 C 
BRANCH  10  11
ATOM     11  S   UNL     1       5.235   5.279  18.871  0.00  0.00    +0.000 S 
BRANCH  11  12
ATOM     12  C   UNL     1       6.927   5.633  18.189  0.00  0.00    +0.000 C 
ATOM     13  C   UNL     1       7.366   4.529  17.218  0.00  0.00    +0.000 C 
ATOM     14  C   UNL     1       6.831   6.959  17.417  0.00  0.00    +0.000 C 
ATOM     15  C   UNL     1       7.949   5.791  19.320  0.00  0.00    +0.000 C 
ENDBRANCH  11  12
ENDBRANCH  10  11
ENDBRANCH   5  10
ENDBRANCH   1   5
BRANCH   2  16
ATOM     16  C   UNL     1       1.719   2.473  19.042  0.00  0.00    +0.000 C 
BRANCH  16  17
ATOM     17  N   UNL     1       0.311   2.485  19.491  0.00  0.00    +0.000 NA
ATOM     18  H   UNL     1      -0.297   2.681  18.694  0.00  0.00    +0.000 HD
ATOM     19  H   UNL     1       0.192   3.290  20.121  0.00  0.00    +0.000 HD
ENDBRANCH  16  17
BRANCH  16  20
ATOM     20  C   UNL     1       2.752   2.579  20.168  0.00  0.00    +0.000 C 
BRANCH  20  21
ATOM     21  C   UNL     1       2.157   3.124  21.436  0.00  0.00    +0.000 C 
ATOM     22  O   UNL     1       1.624   2.443  22.302  0.00  0.00    +0.000 OA
BRANCH  21  23
ATOM     23  O   UNL     1       2.201   4.472  21.515  0.00  0.00    +0.000 OA
ATOM     24  H   UNL     1       1.340   4.895  21.710  0.00  0.00    +0.000 HD
ENDBRANCH  21  23
ENDBRANCH  20  21
ENDBRANCH  16  20
ENDBRANCH   2  16
TORSDOF 11
ENDMDL
MODEL 6
REMARK VINA RESULT:      -6.1      3.959      6.651
REMARK  Name = 
REMARK  15 active torsions:
REMARK  status: ('A' for Active; 'I' for Inactive)
REMARK    1  A    between atoms: C_1  and  O_2
REMARK    2  A    between atoms: O_2  and  C_3
REMARK    3  A    between atoms: C_3  and  C_5
REMARK    4  A    between atoms: C_5  and  C_6
REMARK    5  A    between atoms: C_5  and  N_12
REMARK    6  A    between atoms: C_6  and  S_7
REMARK    7  A    between atoms: S_7  and  C_8
REMARK    8  A    between atoms: C_8  and  C_9
REMARK    9  A    between atoms: C_8  and  C_10
REMARK   10  A    between atoms: C_8  and  C_11
REMARK   11  A    between atoms: C_13  and  C_15
REMARK   12  A    between atoms: C_15  and  N_16
REMARK   13  A    between atoms: C_15  and  C_17
REMARK   14  A    between atoms: C_17  and  C_18
REMARK   15  A    between atoms: C_18  and  O_20
REMARK                            x       y       z     vdW  Elec       q    Type
REMARK                         _______ _______ _______ _____ _____    ______ ____
ROOT
ATOM      1  N   UNL     1       5.401   4.287  16.369  0.00  0.00    +0.000 N 
ATOM      2  C   UNL     1       6.727   4.375  15.994  0.00  0.00    +0.000 C 
ATOM      3  O   UNL     1       7.651   4.539  16.785  0.00  0.00    +0.000 OA
ATOM      4  H   UNL     1       4.839   3.735  15.723  0.00  0.00    +0.000 HD
ENDROOT
BRANCH   1   5
ATOM      5  C   UNL     1       5.025   4.197  17.784  0.00  0.00    +0.000 C 
BRANCH   5   6
ATOM      6  C   UNL     1       4.627   5.579  18.328  0.00  0.00    +0.000 C 
ATOM      7  O   UNL     1       4.894   5.986  19.453  0.00  0.00    +0.000 OA
BRANCH   6   9
ATOM      8  C   UNL     1       3.248   7.422  17.904  0.00  0.00    +0.000 C 
ATOM      9  O   UNL     1       3.926   6.276  17.388  0.00  0.00    +0.000 OA
ENDBRANCH   6   9
ENDBRANCH   5   6
BRANCH   5  10
ATOM     10  C   UNL     1       3.785   3.311  17.968  0.00  0.00    +0.000 C 
BRANCH  10  11
ATOM     11  S   UNL     1       3.591   2.695  19.688  0.00  0.00    +0.000 S 
BRANCH  11  12
ATOM     12  C   UNL     1       1.803   3.077  20.022  0.00  0.00    +0.000 C 
ATOM     13  C   UNL     1       1.391   2.583  21.415  0.00  0.00    +0.000 C 
ATOM     14  C   UNL     1       1.655   4.607  19.978  0.00  0.00    +0.000 C 
ATOM     15  C   UNL     1       0.904   2.460  18.945  0.00  0.00    +0.000 C 
ENDBRANCH  11  12
ENDBRANCH  10  11
ENDBRANCH   5  10
ENDBRANCH   1   5
BRANCH   2  16
ATOM     16  C   UNL     1       6.932   4.246  14.476  0.00  0.00    +0.000 C 
BRANCH  16  17
ATOM     17  N   UNL     1       7.628   5.469  14.025  0.00  0.00    +0.000 NA
ATOM     18  H   UNL     1       8.438   5.210  13.460  0.00  0.00    +0.000 HD
ATOM     19  H   UNL     1       8.020   5.930  14.858  0.00  0.00    +0.000 HD
ENDBRANCH  16  17
BRANCH  16  20
ATOM     20  C   UNL     1       5.581   3.991  13.801  0.00  0.00    +0.000 C 
BRANCH  20  21
ATOM     21  C   UNL     1       5.735   3.440  12.412  0.00  0.00    +0.000 C 
ATOM     22  O   UNL     1       6.807   3.168  11.888  0.00  0.00    +0.000 OA
BRANCH  21  23
ATOM     23  O   UNL     1       4.566   3.326  11.745  0.00  0.00    +0.000 OA
ATOM     24  H   UNL     1       3.771   3.515  12.284  0.00  0.00    +0.000 HD
ENDBRANCH  21  23
ENDBRANCH  20  21
ENDBRANCH  16  20
ENDBRANCH   2  16
TORSDOF 11
ENDMDL
MODEL 7
REMARK VINA RESULT:      -6.1      0.619      1.567
REMARK  Name = 
REMARK  15 active torsions:
REMARK  status: ('A' for Active; 'I' for Inactive)
REMARK    1  A    between atoms: C_1  and  O_2
REMARK    2  A    between atoms: O_2  and  C_3
REMARK    3  A    between atoms: C_3  and  C_5
REMARK    4  A    between atoms: C_5  and  C_6
REMARK    5  A    between atoms: C_5  and  N_12
REMARK    6  A    between atoms: C_6  and  S_7
REMARK    7  A    between atoms: S_7  and  C_8
REMARK    8  A    between atoms: C_8  and  C_9
REMARK    9  A    between atoms: C_8  and  C_10
REMARK   10  A    between atoms: C_8  and  C_11
REMARK   11  A    between atoms: C_13  and  C_15
REMARK   12  A    between atoms: C_15  and  N_16
REMARK   13  A    between atoms: C_15  and  C_17
REMARK   14  A    between atoms: C_17  and  C_18
REMARK   15  A    between atoms: C_18  and  O_20
REMARK                            x       y       z     vdW  Elec       q    Type
REMARK                         _______ _______ _______ _____ _____    ______ ____
ROOT
ATOM      1  N   UNL     1       2.494   5.100  18.671  0.00  0.00    +0.000 N 
ATOM      2  C   UNL     1       1.662   4.125  18.158  0.00  0.00    +0.000 C 
ATOM      3  O   UNL     1       1.033   4.245  17.110  0.00  0.00    +0.000 OA
ATOM      4  H   UNL     1       3.244   4.724  19.247  0.00  0.00    +0.000 HD
ENDROOT
BRANCH   1   5
ATOM      5  C   UNL     1       2.827   6.293  17.883  0.00  0.00    +0.000 C 
BRANCH   5   6
ATOM      6  C   UNL     1       2.454   7.571  18.651  0.00  0.00    +0.000 C 
ATOM      7  O   UNL     1       2.153   7.605  19.839  0.00  0.00    +0.000 OA
BRANCH   6   9
ATOM      8  C   UNL     1       1.395   9.552  17.992  0.00  0.00    +0.000 C 
ATOM      9  O   UNL     1       2.491   8.652  17.821  0.00  0.00    +0.000 OA
ENDBRANCH   6   9
ENDBRANCH   5   6
BRANCH   5  10
ATOM     10  C   UNL     1       4.341   6.386  17.642  0.00  0.00    +0.000 C 
BRANCH  10  11
ATOM     11  S   UNL     1       5.314   5.300  18.758  0.00  0.00    +0.000 S 
BRANCH  11  12
ATOM     12  C   UNL     1       7.051   5.644  18.194  0.00  0.00    +0.000 C 
ATOM     13  C   UNL     1       7.543   4.546  17.244  0.00  0.00    +0.000 C 
ATOM     14  C   UNL     1       7.019   6.979  17.431  0.00  0.00    +0.000 C 
ATOM     15  C   UNL     1       7.996   5.781  19.393  0.00  0.00    +0.000 C 
ENDBRANCH  11  12
ENDBRANCH  10  11
ENDBRANCH   5  10
ENDBRANCH   1   5
BRANCH   2  16
ATOM     16  C   UNL     1       1.601   2.865  19.036  0.00  0.00    +0.000 C 
BRANCH  16  17
ATOM     17  N   UNL     1       1.027   1.784  18.208  0.00  0.00    +0.000 NA
ATOM     18  H   UNL     1       1.508   1.754  17.307  0.00  0.00    +0.000 HD
ATOM     19  H   UNL     1       0.057   2.044  17.984  0.00  0.00    +0.000 HD
ENDBRANCH  16  17
BRANCH  16  20
ATOM     20  C   UNL     1       0.820   3.176  20.316  0.00  0.00    +0.000 C 
BRANCH  20  21
ATOM     21  C   UNL     1       1.724   3.352  21.504  0.00  0.00    +0.000 C 
ATOM     22  O   UNL     1       2.455   4.317  21.683  0.00  0.00    +0.000 OA
BRANCH  21  23
ATOM     23  O   UNL     1       1.713   2.299  22.351  0.00  0.00    +0.000 OA
ATOM     24  H   UNL     1       0.898   1.757  22.313  0.00  0.00    +0.000 HD
ENDBRANCH  21  23
ENDBRANCH  20  21
ENDBRANCH  16  20
ENDBRANCH   2  16
TORSDOF 11
ENDMDL
MODEL 8
REMARK VINA RESULT:      -6.1      0.891      1.556
REMARK  Name = 
REMARK  15 active torsions:
REMARK  status: ('A' for Active; 'I' for Inactive)
REMARK    1  A    between atoms: C_1  and  O_2
REMARK    2  A    between atoms: O_2  and  C_3
REMARK    3  A    between atoms: C_3  and  C_5
REMARK    4  A    between atoms: C_5  and  C_6
REMARK    5  A    between atoms: C_5  and  N_12
REMARK    6  A    between atoms: C_6  and  S_7
REMARK    7  A    between atoms: S_7  and  C_8
REMARK    8  A    between atoms: C_8  and  C_9
REMARK    9  A    between atoms: C_8  and  C_10
REMARK   10  A    between atoms: C_8  and  C_11
REMARK   11  A    between atoms: C_13  and  C_15
REMARK   12  A    between atoms: C_15  and  N_16
REMARK   13  A    between atoms: C_15  and  C_17
REMARK   14  A    between atoms: C_17  and  C_18
REMARK   15  A    between atoms: C_18  and  O_20
REMARK                            x       y       z     vdW  Elec       q    Type
REMARK                         _______ _______ _______ _____ _____    ______ ____
ROOT
ATOM      1  N   UNL     1       2.569   4.871  18.462  0.00  0.00    +0.000 N 
ATOM      2  C   UNL     1       1.564   4.024  18.040  0.00  0.00    +0.000 C 
ATOM      3  O   UNL     1       0.829   4.257  17.085  0.00  0.00    +0.000 OA
ATOM      4  H   UNL     1       3.332   4.385  18.929  0.00  0.00    +0.000 HD
ENDROOT
BRANCH   1   5
ATOM      5  C   UNL     1       2.949   6.041  17.662  0.00  0.00    +0.000 C 
BRANCH   5   6
ATOM      6  C   UNL     1       2.603   7.341  18.405  0.00  0.00    +0.000 C 
ATOM      7  O   UNL     1       2.307   7.405  19.593  0.00  0.00    +0.000 OA
BRANCH   6   9
ATOM      8  C   UNL     1       1.774   9.471  17.899  0.00  0.00    +0.000 C 
ATOM      9  O   UNL     1       2.660   8.405  17.554  0.00  0.00    +0.000 OA
ENDBRANCH   6   9
ENDBRANCH   5   6
BRANCH   5  10
ATOM     10  C   UNL     1       4.468   6.086  17.441  0.00  0.00    +0.000 C 
BRANCH  10  11
ATOM     11  S   UNL     1       5.422   5.495  18.894  0.00  0.00    +0.000 S 
BRANCH  11  12
ATOM     12  C   UNL     1       7.172   5.720  18.310  0.00  0.00    +0.000 C 
ATOM     13  C   UNL     1       7.335   7.060  17.581  0.00  0.00    +0.000 C 
ATOM     14  C   UNL     1       8.066   5.728  19.561  0.00  0.00    +0.000 C 
ATOM     15  C   UNL     1       7.597   4.560  17.403  0.00  0.00    +0.000 C 
ENDBRANCH  11  12
ENDBRANCH  10  11
ENDBRANCH   5  10
ENDBRANCH   1   5
BRANCH   2  16
ATOM     16  C   UNL     1       1.455   2.750  18.894  0.00  0.00    +0.000 C 
BRANCH  16  17
ATOM     17  N   UNL     1       0.391   1.915  18.298  0.00  0.00    +0.000 NA
ATOM     18  H   UNL     1       0.779   1.372  17.525  0.00  0.00    +0.000 HD
ATOM     19  H   UNL     1      -0.294   2.548  17.862  0.00  0.00    +0.000 HD
ENDBRANCH  16  17
BRANCH  16  20
ATOM     20  C   UNL     1       1.221   3.138  20.357  0.00  0.00    +0.000 C 
BRANCH  20  21
ATOM     21  C   UNL     1       2.417   2.847  21.220  0.00  0.00    +0.000 C 
ATOM     22  O   UNL     1       2.408   2.855  22.444  0.00  0.00    +0.000 OA
BRANCH  21  23
ATOM     23  O   UNL     1       3.549   2.632  20.516  0.00  0.00    +0.000 OA
ATOM     24  H   UNL     1       3.744   3.315  19.841  0.00  0.00    +0.000 HD
ENDBRANCH  21  23
ENDBRANCH  20  21
ENDBRANCH  16  20
ENDBRANCH   2  16
TORSDOF 11
ENDMDL
MODEL 9
REMARK VINA RESULT:      -6.0      2.862      5.852
REMARK  Name = 
REMARK  15 active torsions:
REMARK  status: ('A' for Active; 'I' for Inactive)
REMARK    1  A    between atoms: C_1  and  O_2
REMARK    2  A    between atoms: O_2  and  C_3
REMARK    3  A    between atoms: C_3  and  C_5
REMARK    4  A    between atoms: C_5  and  C_6
REMARK    5  A    between atoms: C_5  and  N_12
REMARK    6  A    between atoms: C_6  and  S_7
REMARK    7  A    between atoms: S_7  and  C_8
REMARK    8  A    between atoms: C_8  and  C_9
REMARK    9  A    between atoms: C_8  and  C_10
REMARK   10  A    between atoms: C_8  and  C_11
REMARK   11  A    between atoms: C_13  and  C_15
REMARK   12  A    between atoms: C_15  and  N_16
REMARK   13  A    between atoms: C_15  and  C_17
REMARK   14  A    between atoms: C_17  and  C_18
REMARK   15  A    between atoms: C_18  and  O_20
REMARK                            x       y       z     vdW  Elec       q    Type
REMARK                         _______ _______ _______ _____ _____    ______ ____
ROOT
ATOM      1  N   UNL     1       5.066   6.179  18.065  0.00  0.00    +0.000 N 
ATOM      2  C   UNL     1       6.244   5.664  18.568  0.00  0.00    +0.000 C 
ATOM      3  O   UNL     1       6.366   5.221  19.706  0.00  0.00    +0.000 OA
ATOM      4  H   UNL     1       4.990   6.088  17.053  0.00  0.00    +0.000 HD
ENDROOT
BRANCH   1   5
ATOM      5  C   UNL     1       3.811   6.055  18.815  0.00  0.00    +0.000 C 
BRANCH   5   6
ATOM      6  C   UNL     1       2.901   7.265  18.553  0.00  0.00    +0.000 C 
ATOM      7  O   UNL     1       2.829   7.862  17.485  0.00  0.00    +0.000 OA
BRANCH   6   9
ATOM      8  C   UNL     1       1.465   8.806  19.575  0.00  0.00    +0.000 C 
ATOM      9  O   UNL     1       2.201   7.586  19.679  0.00  0.00    +0.000 OA
ENDBRANCH   6   9
ENDBRANCH   5   6
BRANCH   5  10
ATOM     10  C   UNL     1       3.011   4.830  18.349  0.00  0.00    +0.000 C 
BRANCH  10  11
ATOM     11  S   UNL     1       3.243   3.366  19.433  0.00  0.00    +0.000 S 
BRANCH  11  12
ATOM     12  C   UNL     1       1.537   3.149  20.138  0.00  0.00    +0.000 C 
ATOM     13  C   UNL     1       0.670   2.287  19.212  0.00  0.00    +0.000 C 
ATOM     14  C   UNL     1       1.697   2.420  21.483  0.00  0.00    +0.000 C 
ATOM     15  C   UNL     1       0.873   4.508  20.386  0.00  0.00    +0.000 C 
ENDBRANCH  11  12
ENDBRANCH  10  11
ENDBRANCH   5  10
ENDBRANCH   1   5
BRANCH   2  16
ATOM     16  C   UNL     1       7.398   5.703  17.553  0.00  0.00    +0.000 C 
BRANCH  16  17
ATOM     17  N   UNL     1       7.422   7.061  16.970  0.00  0.00    +0.000 NA
ATOM     18  H   UNL     1       8.372   7.284  16.669  0.00  0.00    +0.000 HD
ATOM     19  H   UNL     1       7.219   7.728  17.727  0.00  0.00    +0.000 HD
ENDBRANCH  16  17
BRANCH  16  20
ATOM     20  C   UNL     1       7.217   4.572  16.536  0.00  0.00    +0.000 C 
BRANCH  20  21
ATOM     21  C   UNL     1       6.851   5.087  15.172  0.00  0.00    +0.000 C 
ATOM     22  O   UNL     1       7.654   5.311  14.276  0.00  0.00    +0.000 OA
BRANCH  21  23
ATOM     23  O   UNL     1       5.534   5.352  15.032  0.00  0.00    +0.000 OA
ATOM     24  H   UNL     1       5.093   4.848  14.317  0.00  0.00    +0.000 HD
ENDBRANCH  21  23
ENDBRANCH  20  21
ENDBRANCH  16  20
ENDBRANCH   2  16
TORSDOF 11
ENDMDL
