MODEL 1
REMARK VINA RESULT:      -8.4      0.000      0.000
REMARK  Name = 
REMARK  7 active torsions:
REMARK  status: ('A' for Active; 'I' for Inactive)
REMARK    1  A    between atoms: C_1  and  C_2
REMARK    2  A    between atoms: C_6  and  C_7
REMARK    3  A    between atoms: N_9  and  C_10
REMARK    4  A    between atoms: C_10  and  C_11
REMARK    5  A    between atoms: C_10  and  C_12
REMARK    6  A    between atoms: C_15  and  C_16
REMARK    7  A    between atoms: N_18  and  C_19
REMARK                            x       y       z     vdW  Elec       q    Type
REMARK                         _______ _______ _______ _____ _____    ______ ____
ROOT
ATOM      1  C   UNL     1       2.286   6.305  19.328  0.00  0.00    +0.000 A 
ATOM      2  C   UNL     1       1.702   6.348  20.597  0.00  0.00    +0.000 A 
ATOM      3  C   UNL     1       1.195   7.547  21.106  0.00  0.00    +0.000 A 
ATOM      4  C   UNL     1       1.255   8.747  20.371  0.00  0.00    +0.000 A 
ATOM      5  C   UNL     1       1.812   8.670  19.084  0.00  0.00    +0.000 A 
ATOM      6  C   UNL     1       2.326   7.481  18.570  0.00  0.00    +0.000 A 
ENDROOT
BRANCH   4   7
ATOM      7  C   UNL     1       0.749  10.126  20.949  0.00  0.00    +0.000 C 
ATOM      8  C   UNL     1      -0.569  10.729  20.449  0.00  0.00    +0.000 C 
ATOM      9  N   UNL     1      -0.963  10.970  21.815  0.00  0.00    +0.000 N 
ATOM     10  C   UNL     1       0.080  10.119  22.333  0.00  0.00    +0.000 C 
BRANCH   9  11
ATOM     11  C   UNL     1      -1.176  12.249  22.377  0.00  0.00    +0.000 A 
ATOM     12  C   UNL     1      -0.318  13.332  22.142  0.00  0.00    +0.000 A 
ATOM     13  C   UNL     1      -0.641  14.605  22.614  0.00  0.00    +0.000 A 
ATOM     14  C   UNL     1      -1.824  14.801  23.320  0.00  0.00    +0.000 A 
ATOM     15  C   UNL     1      -2.629  13.709  23.640  0.00  0.00    +0.000 A 
ATOM     16  C   UNL     1      -2.306  12.438  23.179  0.00  0.00    +0.000 A 
ATOM     17  O   UNL     1      -3.769  13.835  24.385  0.00  0.00    +0.000 OA
ATOM     18  C   UNL     1      -4.384  15.081  24.069  0.00  0.00    +0.000 C 
ATOM     19  C   UNL     1      -3.426  16.253  24.240  0.00  0.00    +0.000 C 
ATOM     20  O   UNL     1      -2.146  16.092  23.621  0.00  0.00    +0.000 OA
ENDBRANCH   9  11
ENDBRANCH   4   7
BRANCH   1  21
ATOM     21  C   UNL     1       2.859   5.005  18.802  0.00  0.00    +0.000 C 
ATOM     22  C   UNL     1       3.319   4.100  19.949  0.00  0.00    +0.000 C 
BRANCH  21  25
ATOM     23  C   UNL     1       4.369   4.368  16.954  0.00  0.00    +0.000 C 
ATOM     24  O   UNL     1       3.851   3.264  16.828  0.00  0.00    +0.000 OA
ATOM     25  N   UNL     1       3.945   5.287  17.884  0.00  0.00    +0.000 N 
ATOM     26  H   UNL     1       4.538   6.075  18.092  0.00  0.00    +0.000 HD
BRANCH  23  32
ATOM     27  C   UNL     1       7.633   4.615  17.729  0.00  0.00    +0.000 C 
ATOM     28  C   UNL     1       6.908   4.865  16.460  0.00  0.00    +0.000 A 
ATOM     29  N   UNL     1       7.599   5.281  15.393  0.00  0.00    +0.000 NA
ATOM     30  O   UNL     1       6.665   5.519  14.413  0.00  0.00    +0.000 OA
ATOM     31  C   UNL     1       5.432   5.221  14.874  0.00  0.00    +0.000 A 
ATOM     32  C   UNL     1       5.514   4.770  16.169  0.00  0.00    +0.000 A 
ENDBRANCH  23  32
ENDBRANCH  21  25
ENDBRANCH   1  21
TORSDOF 5
ENDMDL
MODEL 2
REMARK VINA RESULT:      -8.4      1.299      2.415
REMARK  Name = 
REMARK  7 active torsions:
REMARK  status: ('A' for Active; 'I' for Inactive)
REMARK    1  A    between atoms: C_1  and  C_2
REMARK    2  A    between atoms: C_6  and  C_7
REMARK    3  A    between atoms: N_9  and  C_10
REMARK    4  A    between atoms: C_10  and  C_11
REMARK    5  A    between atoms: C_10  and  C_12
REMARK    6  A    between atoms: C_15  and  C_16
REMARK    7  A    between atoms: N_18  and  C_19
REMARK                            x       y       z     vdW  Elec       q    Type
REMARK                         _______ _______ _______ _____ _____    ______ ____
ROOT
ATOM      1  C   UNL     1       3.156   4.514  19.513  0.00  0.00    +0.000 A 
ATOM      2  C   UNL     1       3.485   5.818  19.128  0.00  0.00    +0.000 A 
ATOM      3  C   UNL     1       2.783   6.909  19.646  0.00  0.00    +0.000 A 
ATOM      4  C   UNL     1       1.726   6.743  20.562  0.00  0.00    +0.000 A 
ATOM      5  C   UNL     1       1.441   5.428  20.962  0.00  0.00    +0.000 A 
ATOM      6  C   UNL     1       2.130   4.331  20.447  0.00  0.00    +0.000 A 
ENDROOT
BRANCH   4   7
ATOM      7  C   UNL     1       0.876   7.955  21.111  0.00  0.00    +0.000 C 
ATOM      8  C   UNL     1       1.482   8.909  22.146  0.00  0.00    +0.000 C 
ATOM      9  N   UNL     1       1.021  10.030  21.365  0.00  0.00    +0.000 N 
ATOM     10  C   UNL     1       0.746   9.200  20.219  0.00  0.00    +0.000 C 
BRANCH   9  11
ATOM     11  C   UNL     1       0.062  10.974  21.800  0.00  0.00    +0.000 A 
ATOM     12  C   UNL     1      -0.953  10.657  22.711  0.00  0.00    +0.000 A 
ATOM     13  C   UNL     1      -1.794  11.654  23.207  0.00  0.00    +0.000 A 
ATOM     14  C   UNL     1      -1.621  12.972  22.797  0.00  0.00    +0.000 A 
ATOM     15  C   UNL     1      -0.676  13.274  21.817  0.00  0.00    +0.000 A 
ATOM     16  C   UNL     1       0.157  12.282  21.314  0.00  0.00    +0.000 A 
ATOM     17  O   UNL     1      -0.508  14.541  21.330  0.00  0.00    +0.000 OA
ATOM     18  C   UNL     1      -0.729  15.469  22.389  0.00  0.00    +0.000 C 
ATOM     19  C   UNL     1      -2.081  15.261  23.060  0.00  0.00    +0.000 C 
ATOM     20  O   UNL     1      -2.379  13.912  23.432  0.00  0.00    +0.000 OA
ENDBRANCH   9  11
ENDBRANCH   4   7
BRANCH   1  21
ATOM     21  C   UNL     1       3.906   3.338  18.920  0.00  0.00    +0.000 C 
ATOM     22  C   UNL     1       4.528   2.470  20.017  0.00  0.00    +0.000 C 
BRANCH  21  25
ATOM     23  C   UNL     1       4.645   3.995  16.657  0.00  0.00    +0.000 C 
ATOM     24  O   UNL     1       3.543   3.776  16.165  0.00  0.00    +0.000 OA
ATOM     25  N   UNL     1       4.912   3.819  17.993  0.00  0.00    +0.000 N 
ATOM     26  H   UNL     1       5.873   3.799  18.297  0.00  0.00    +0.000 HD
BRANCH  23  32
ATOM     27  C   UNL     1       7.049   6.289  17.180  0.00  0.00    +0.000 C 
ATOM     28  C   UNL     1       6.821   5.352  16.054  0.00  0.00    +0.000 A 
ATOM     29  N   UNL     1       7.664   5.373  15.015  0.00  0.00    +0.000 NA
ATOM     30  O   UNL     1       7.151   4.483  14.101  0.00  0.00    +0.000 OA
ATOM     31  C   UNL     1       6.032   3.913  14.594  0.00  0.00    +0.000 A 
ATOM     32  C   UNL     1       5.775   4.402  15.852  0.00  0.00    +0.000 A 
ENDBRANCH  23  32
ENDBRANCH  21  25
ENDBRANCH   1  21
TORSDOF 5
ENDMDL
MODEL 3
REMARK VINA RESULT:      -8.3      1.053      1.578
REMARK  Name = 
REMARK  7 active torsions:
REMARK  status: ('A' for Active; 'I' for Inactive)
REMARK    1  A    between atoms: C_1  and  C_2
REMARK    2  A    between atoms: C_6  and  C_7
REMARK    3  A    between atoms: N_9  and  C_10
REMARK    4  A    between atoms: C_10  and  C_11
REMARK    5  A    between atoms: C_10  and  C_12
REMARK    6  A    between atoms: C_15  and  C_16
REMARK    7  A    between atoms: N_18  and  C_19
REMARK                            x       y       z     vdW  Elec       q    Type
REMARK                         _______ _______ _______ _____ _____    ______ ____
ROOT
ATOM      1  C   UNL     1       2.310   6.886  19.115  0.00  0.00    +0.000 A 
ATOM      2  C   UNL     1       2.204   7.941  18.203  0.00  0.00    +0.000 A 
ATOM      3  C   UNL     1       1.622   9.153  18.584  0.00  0.00    +0.000 A 
ATOM      4  C   UNL     1       1.120   9.357  19.883  0.00  0.00    +0.000 A 
ATOM      5  C   UNL     1       1.272   8.297  20.792  0.00  0.00    +0.000 A 
ATOM      6  C   UNL     1       1.846   7.082  20.421  0.00  0.00    +0.000 A 
ENDROOT
BRANCH   4   7
ATOM      7  C   UNL     1       0.400  10.693  20.319  0.00  0.00    +0.000 C 
ATOM      8  C   UNL     1      -1.049  10.957  19.893  0.00  0.00    +0.000 C 
ATOM      9  N   UNL     1      -1.366  11.333  21.249  0.00  0.00    +0.000 N 
ATOM     10  C   UNL     1      -0.135  10.781  21.757  0.00  0.00    +0.000 C 
BRANCH   9  11
ATOM     11  C   UNL     1      -1.781  12.624  21.649  0.00  0.00    +0.000 A 
ATOM     12  C   UNL     1      -1.364  13.790  20.995  0.00  0.00    +0.000 A 
ATOM     13  C   UNL     1      -1.902  15.028  21.347  0.00  0.00    +0.000 A 
ATOM     14  C   UNL     1      -2.862  15.105  22.352  0.00  0.00    +0.000 A 
ATOM     15  C   UNL     1      -3.205  13.961  23.070  0.00  0.00    +0.000 A 
ATOM     16  C   UNL     1      -2.664  12.727  22.728  0.00  0.00    +0.000 A 
ATOM     17  O   UNL     1      -4.094  13.990  24.109  0.00  0.00    +0.000 OA
ATOM     18  C   UNL     1      -5.102  14.956  23.820  0.00  0.00    +0.000 C 
ATOM     19  C   UNL     1      -4.510  16.323  23.500  0.00  0.00    +0.000 C 
ATOM     20  O   UNL     1      -3.449  16.322  22.541  0.00  0.00    +0.000 OA
ENDBRANCH   9  11
ENDBRANCH   4   7
BRANCH   1  21
ATOM     21  C   UNL     1       2.916   5.567  18.680  0.00  0.00    +0.000 C 
ATOM     22  C   UNL     1       3.242   4.684  19.888  0.00  0.00    +0.000 C 
BRANCH  21  25
ATOM     23  C   UNL     1       4.521   4.927  16.916  0.00  0.00    +0.000 C 
ATOM     24  O   UNL     1       3.930   3.882  16.669  0.00  0.00    +0.000 OA
ATOM     25  N   UNL     1       4.096   5.816  17.873  0.00  0.00    +0.000 N 
ATOM     26  H   UNL     1       4.730   6.534  18.184  0.00  0.00    +0.000 HD
BRANCH  23  32
ATOM     27  C   UNL     1       5.844   3.949  13.981  0.00  0.00    +0.000 C 
ATOM     28  C   UNL     1       6.335   4.902  15.005  0.00  0.00    +0.000 A 
ATOM     29  N   UNL     1       7.512   5.507  14.812  0.00  0.00    +0.000 NA
ATOM     30  O   UNL     1       7.746   6.241  15.951  0.00  0.00    +0.000 OA
ATOM     31  C   UNL     1       6.711   6.102  16.805  0.00  0.00    +0.000 A 
ATOM     32  C   UNL     1       5.758   5.280  16.255  0.00  0.00    +0.000 A 
ENDBRANCH  23  32
ENDBRANCH  21  25
ENDBRANCH   1  21
TORSDOF 5
ENDMDL
MODEL 4
REMARK VINA RESULT:      -8.3      1.132      1.632
REMARK  Name = 
REMARK  7 active torsions:
REMARK  status: ('A' for Active; 'I' for Inactive)
REMARK    1  A    between atoms: C_1  and  C_2
REMARK    2  A    between atoms: C_6  and  C_7
REMARK    3  A    between atoms: N_9  and  C_10
REMARK    4  A    between atoms: C_10  and  C_11
REMARK    5  A    between atoms: C_10  and  C_12
REMARK    6  A    between atoms: C_15  and  C_16
REMARK    7  A    between atoms: N_18  and  C_19
REMARK                            x       y       z     vdW  Elec       q    Type
REMARK                         _______ _______ _______ _____ _____    ______ ____
ROOT
ATOM      1  C   UNL     1       2.642   5.481  19.369  0.00  0.00    +0.000 A 
ATOM      2  C   UNL     1       1.846   5.274  20.500  0.00  0.00    +0.000 A 
ATOM      3  C   UNL     1       1.165   6.339  21.095  0.00  0.00    +0.000 A 
ATOM      4  C   UNL     1       1.255   7.650  20.589  0.00  0.00    +0.000 A 
ATOM      5  C   UNL     1       2.029   7.826  19.431  0.00  0.00    +0.000 A 
ATOM      6  C   UNL     1       2.718   6.772  18.833  0.00  0.00    +0.000 A 
ENDROOT
BRANCH   4   7
ATOM      7  C   UNL     1       0.548   8.881  21.280  0.00  0.00    +0.000 C 
ATOM      8  C   UNL     1       1.392   9.999  21.903  0.00  0.00    +0.000 C 
ATOM      9  N   UNL     1       0.570  10.976  21.233  0.00  0.00    +0.000 N 
ATOM     10  C   UNL     1      -0.020   9.982  20.371  0.00  0.00    +0.000 C 
BRANCH   9  11
ATOM     11  C   UNL     1      -0.252  11.921  21.889  0.00  0.00    +0.000 A 
ATOM     12  C   UNL     1      -0.009  13.299  21.841  0.00  0.00    +0.000 A 
ATOM     13  C   UNL     1      -0.921  14.198  22.396  0.00  0.00    +0.000 A 
ATOM     14  C   UNL     1      -2.081  13.722  22.998  0.00  0.00    +0.000 A 
ATOM     15  C   UNL     1      -2.278  12.348  23.134  0.00  0.00    +0.000 A 
ATOM     16  C   UNL     1      -1.367  11.450  22.590  0.00  0.00    +0.000 A 
ATOM     17  O   UNL     1      -3.369  11.826  23.773  0.00  0.00    +0.000 OA
ATOM     18  C   UNL     1      -4.492  12.665  23.517  0.00  0.00    +0.000 C 
ATOM     19  C   UNL     1      -4.219  14.117  23.889  0.00  0.00    +0.000 C 
ATOM     20  O   UNL     1      -2.994  14.659  23.386  0.00  0.00    +0.000 OA
ENDBRANCH   9  11
ENDBRANCH   4   7
BRANCH   1  21
ATOM     21  C   UNL     1       3.399   4.322  18.753  0.00  0.00    +0.000 C 
ATOM     22  C   UNL     1       3.887   3.348  19.829  0.00  0.00    +0.000 C 
BRANCH  21  25
ATOM     23  C   UNL     1       4.695   4.440  16.655  0.00  0.00    +0.000 C 
ATOM     24  O   UNL     1       3.948   3.661  16.075  0.00  0.00    +0.000 OA
ATOM     25  N   UNL     1       4.501   4.828  17.958  0.00  0.00    +0.000 N 
ATOM     26  H   UNL     1       5.256   5.285  18.446  0.00  0.00    +0.000 HD
BRANCH  23  32
ATOM     27  C   UNL     1       6.117   3.804  13.673  0.00  0.00    +0.000 C 
ATOM     28  C   UNL     1       6.500   4.738  14.759  0.00  0.00    +0.000 A 
ATOM     29  N   UNL     1       7.602   5.482  14.612  0.00  0.00    +0.000 NA
ATOM     30  O   UNL     1       7.753   6.163  15.797  0.00  0.00    +0.000 OA
ATOM     31  C   UNL     1       6.740   5.856  16.633  0.00  0.00    +0.000 A 
ATOM     32  C   UNL     1       5.885   4.970  16.026  0.00  0.00    +0.000 A 
ENDBRANCH  23  32
ENDBRANCH  21  25
ENDBRANCH   1  21
TORSDOF 5
ENDMDL
MODEL 5
REMARK VINA RESULT:      -8.3      0.749      1.430
REMARK  Name = 
REMARK  7 active torsions:
REMARK  status: ('A' for Active; 'I' for Inactive)
REMARK    1  A    between atoms: C_1  and  C_2
REMARK    2  A    between atoms: C_6  and  C_7
REMARK    3  A    between atoms: N_9  and  C_10
REMARK    4  A    between atoms: C_10  and  C_11
REMARK    5  A    between atoms: C_10  and  C_12
REMARK    6  A    between atoms: C_15  and  C_16
REMARK    7  A    between atoms: N_18  and  C_19
REMARK                            x       y       z     vdW  Elec       q    Type
REMARK                         _______ _______ _______ _____ _____    ______ ____
ROOT
ATOM      1  C   UNL     1       2.059   6.382  19.278  0.00  0.00    +0.000 A 
ATOM      2  C   UNL     1       2.059   7.528  18.478  0.00  0.00    +0.000 A 
ATOM      3  C   UNL     1       1.664   8.761  19.004  0.00  0.00    +0.000 A 
ATOM      4  C   UNL     1       1.250   8.896  20.343  0.00  0.00    +0.000 A 
ATOM      5  C   UNL     1       1.295   7.738  21.136  0.00  0.00    +0.000 A 
ATOM      6  C   UNL     1       1.681   6.503  20.621  0.00  0.00    +0.000 A 
ENDROOT
BRANCH   4   7
ATOM      7  C   UNL     1       0.738  10.264  20.943  0.00  0.00    +0.000 C 
ATOM      8  C   UNL     1      -0.579  10.872  20.449  0.00  0.00    +0.000 C 
ATOM      9  N   UNL     1      -0.979  11.088  21.817  0.00  0.00    +0.000 N 
ATOM     10  C   UNL     1       0.063  10.231  22.324  0.00  0.00    +0.000 C 
BRANCH   9  11
ATOM     11  C   UNL     1      -1.197  12.357  22.401  0.00  0.00    +0.000 A 
ATOM     12  C   UNL     1      -0.330  13.439  22.207  0.00  0.00    +0.000 A 
ATOM     13  C   UNL     1      -0.657  14.704  22.698  0.00  0.00    +0.000 A 
ATOM     14  C   UNL     1      -1.853  14.892  23.382  0.00  0.00    +0.000 A 
ATOM     15  C   UNL     1      -2.671  13.798  23.661  0.00  0.00    +0.000 A 
ATOM     16  C   UNL     1      -2.344  12.535  23.182  0.00  0.00    +0.000 A 
ATOM     17  O   UNL     1      -3.826  13.915  24.385  0.00  0.00    +0.000 OA
ATOM     18  C   UNL     1      -4.428  15.171  24.082  0.00  0.00    +0.000 C 
ATOM     19  C   UNL     1      -3.467  16.334  24.297  0.00  0.00    +0.000 C 
ATOM     20  O   UNL     1      -2.175  16.179  23.703  0.00  0.00    +0.000 OA
ENDBRANCH   9  11
ENDBRANCH   4   7
BRANCH   1  21
ATOM     21  C   UNL     1       2.460   5.046  18.686  0.00  0.00    +0.000 C 
ATOM     22  C   UNL     1       2.293   3.917  19.707  0.00  0.00    +0.000 C 
BRANCH  21  25
ATOM     23  C   UNL     1       4.291   4.279  17.217  0.00  0.00    +0.000 C 
ATOM     24  O   UNL     1       3.589   3.431  16.679  0.00  0.00    +0.000 OA
ATOM     25  N   UNL     1       3.825   5.119  18.199  0.00  0.00    +0.000 N 
ATOM     26  H   UNL     1       4.490   5.634  18.754  0.00  0.00    +0.000 HD
BRANCH  23  32
ATOM     27  C   UNL     1       5.941   4.179  14.287  0.00  0.00    +0.000 C 
ATOM     28  C   UNL     1       6.421   4.408  15.671  0.00  0.00    +0.000 A 
ATOM     29  N   UNL     1       7.728   4.599  15.878  0.00  0.00    +0.000 NA
ATOM     30  O   UNL     1       7.882   4.683  17.242  0.00  0.00    +0.000 OA
ATOM     31  C   UNL     1       6.680   4.575  17.845  0.00  0.00    +0.000 A 
ATOM     32  C   UNL     1       5.695   4.424  16.900  0.00  0.00    +0.000 A 
ENDBRANCH  23  32
ENDBRANCH  21  25
ENDBRANCH   1  21
TORSDOF 5
ENDMDL
MODEL 6
REMARK VINA RESULT:      -8.2      2.421      3.175
REMARK  Name = 
REMARK  7 active torsions:
REMARK  status: ('A' for Active; 'I' for Inactive)
REMARK    1  A    between atoms: C_1  and  C_2
REMARK    2  A    between atoms: C_6  and  C_7
REMARK    3  A    between atoms: N_9  and  C_10
REMARK    4  A    between atoms: C_10  and  C_11
REMARK    5  A    between atoms: C_10  and  C_12
REMARK    6  A    between atoms: C_15  and  C_16
REMARK    7  A    between atoms: N_18  and  C_19
REMARK                            x       y       z     vdW  Elec       q    Type
REMARK                         _______ _______ _______ _____ _____    ______ ____
ROOT
ATOM      1  C   UNL     1       2.347   6.985  18.916  0.00  0.00    +0.000 A 
ATOM      2  C   UNL     1       1.862   7.265  20.197  0.00  0.00    +0.000 A 
ATOM      3  C   UNL     1       1.272   8.500  20.479  0.00  0.00    +0.000 A 
ATOM      4  C   UNL     1       1.149   9.502  19.498  0.00  0.00    +0.000 A 
ATOM      5  C   UNL     1       1.609   9.184  18.210  0.00  0.00    +0.000 A 
ATOM      6  C   UNL     1       2.204   7.958  17.919  0.00  0.00    +0.000 A 
ENDROOT
BRANCH   4   7
ATOM      7  C   UNL     1       0.546  10.929  19.808  0.00  0.00    +0.000 C 
ATOM      8  C   UNL     1       1.351  12.190  19.474  0.00  0.00    +0.000 C 
ATOM      9  N   UNL     1       0.181  12.757  18.851  0.00  0.00    +0.000 N 
ATOM     10  C   UNL     1      -0.504  11.488  18.835  0.00  0.00    +0.000 C 
BRANCH   9  11
ATOM     11  C   UNL     1      -0.490  13.916  19.304  0.00  0.00    +0.000 A 
ATOM     12  C   UNL     1      -1.471  13.881  20.304  0.00  0.00    +0.000 A 
ATOM     13  C   UNL     1      -2.009  15.066  20.807  0.00  0.00    +0.000 A 
ATOM     14  C   UNL     1      -1.568  16.290  20.314  0.00  0.00    +0.000 A 
ATOM     15  C   UNL     1      -0.666  16.325  19.251  0.00  0.00    +0.000 A 
ATOM     16  C   UNL     1      -0.133  15.146  18.742  0.00  0.00    +0.000 A 
ATOM     17  O   UNL     1      -0.247  17.498  18.686  0.00  0.00    +0.000 OA
ATOM     18  C   UNL     1      -0.155  18.488  19.707  0.00  0.00    +0.000 C 
ATOM     19  C   UNL     1      -1.456  18.631  20.487  0.00  0.00    +0.000 C 
ATOM     20  O   UNL     1      -2.029  17.405  20.951  0.00  0.00    +0.000 OA
ENDBRANCH   9  11
ENDBRANCH   4   7
BRANCH   1  21
ATOM     21  C   UNL     1       3.011   5.653  18.633  0.00  0.00    +0.000 C 
ATOM     22  C   UNL     1       3.414   4.949  19.932  0.00  0.00    +0.000 C 
BRANCH  21  25
ATOM     23  C   UNL     1       4.568   4.893  16.872  0.00  0.00    +0.000 C 
ATOM     24  O   UNL     1       3.993   3.819  16.740  0.00  0.00    +0.000 OA
ATOM     25  N   UNL     1       4.155   5.854  17.764  0.00  0.00    +0.000 N 
ATOM     26  H   UNL     1       4.782   6.610  17.987  0.00  0.00    +0.000 HD
BRANCH  23  32
ATOM     27  C   UNL     1       5.658   3.922  13.841  0.00  0.00    +0.000 C 
ATOM     28  C   UNL     1       6.251   4.837  14.846  0.00  0.00    +0.000 A 
ATOM     29  N   UNL     1       7.435   5.402  14.586  0.00  0.00    +0.000 NA
ATOM     30  O   UNL     1       7.770   6.105  15.719  0.00  0.00    +0.000 OA
ATOM     31  C   UNL     1       6.788   5.989  16.637  0.00  0.00    +0.000 A 
ATOM     32  C   UNL     1       5.771   5.213  16.137  0.00  0.00    +0.000 A 
ENDBRANCH  23  32
ENDBRANCH  21  25
ENDBRANCH   1  21
TORSDOF 5
ENDMDL
MODEL 7
REMARK VINA RESULT:      -8.2      2.369      3.121
REMARK  Name = 
REMARK  7 active torsions:
REMARK  status: ('A' for Active; 'I' for Inactive)
REMARK    1  A    between atoms: C_1  and  C_2
REMARK    2  A    between atoms: C_6  and  C_7
REMARK    3  A    between atoms: N_9  and  C_10
REMARK    4  A    between atoms: C_10  and  C_11
REMARK    5  A    between atoms: C_10  and  C_12
REMARK    6  A    between atoms: C_15  and  C_16
REMARK    7  A    between atoms: N_18  and  C_19
REMARK                            x       y       z     vdW  Elec       q    Type
REMARK                         _______ _______ _______ _____ _____    ______ ____
ROOT
ATOM      1  C   UNL     1       2.348   6.916  19.039  0.00  0.00    +0.000 A 
ATOM      2  C   UNL     1       2.298   7.878  18.025  0.00  0.00    +0.000 A 
ATOM      3  C   UNL     1       1.755   9.142  18.271  0.00  0.00    +0.000 A 
ATOM      4  C   UNL     1       1.238   9.492  19.533  0.00  0.00    +0.000 A 
ATOM      5  C   UNL     1       1.334   8.523  20.545  0.00  0.00    +0.000 A 
ATOM      6  C   UNL     1       1.868   7.258  20.309  0.00  0.00    +0.000 A 
ENDROOT
BRANCH   4   7
ATOM      7  C   UNL     1       0.561  10.890  19.818  0.00  0.00    +0.000 C 
ATOM      8  C   UNL     1       1.407  12.168  19.811  0.00  0.00    +0.000 C 
ATOM      9  N   UNL     1       0.419  12.804  18.976  0.00  0.00    +0.000 N 
ATOM     10  C   UNL     1      -0.225  11.550  18.674  0.00  0.00    +0.000 C 
BRANCH   9  11
ATOM     11  C   UNL     1      -0.357  13.923  19.358  0.00  0.00    +0.000 A 
ATOM     12  C   UNL     1      -1.370  13.849  20.322  0.00  0.00    +0.000 A 
ATOM     13  C   UNL     1      -2.018  15.006  20.757  0.00  0.00    +0.000 A 
ATOM     14  C   UNL     1      -1.654  16.241  20.231  0.00  0.00    +0.000 A 
ATOM     15  C   UNL     1      -0.716  16.307  19.202  0.00  0.00    +0.000 A 
ATOM     16  C   UNL     1      -0.074  15.155  18.760  0.00  0.00    +0.000 A 
ATOM     17  O   UNL     1      -0.367  17.487  18.605  0.00  0.00    +0.000 OA
ATOM     18  C   UNL     1      -0.391  18.519  19.588  0.00  0.00    +0.000 C 
ATOM     19  C   UNL     1      -1.729  18.588  20.314  0.00  0.00    +0.000 C 
ATOM     20  O   UNL     1      -2.224  17.339  20.806  0.00  0.00    +0.000 OA
ENDBRANCH   9  11
ENDBRANCH   4   7
BRANCH   1  21
ATOM     21  C   UNL     1       2.912   5.540  18.750  0.00  0.00    +0.000 C 
ATOM     22  C   UNL     1       3.335   4.834  20.041  0.00  0.00    +0.000 C 
BRANCH  21  25
ATOM     23  C   UNL     1       4.315   4.662  16.917  0.00  0.00    +0.000 C 
ATOM     24  O   UNL     1       3.656   3.633  16.820  0.00  0.00    +0.000 OA
ATOM     25  N   UNL     1       4.021   5.653  17.822  0.00  0.00    +0.000 N 
ATOM     26  H   UNL     1       4.714   6.360  18.009  0.00  0.00    +0.000 HD
BRANCH  23  32
ATOM     27  C   UNL     1       7.582   4.680  17.722  0.00  0.00    +0.000 C 
ATOM     28  C   UNL     1       6.894   4.882  16.424  0.00  0.00    +0.000 A 
ATOM     29  N   UNL     1       7.629   5.140  15.337  0.00  0.00    +0.000 NA
ATOM     30  O   UNL     1       6.729   5.375  14.325  0.00  0.00    +0.000 OA
ATOM     31  C   UNL     1       5.470   5.231  14.789  0.00  0.00    +0.000 A 
ATOM     32  C   UNL     1       5.499   4.889  16.119  0.00  0.00    +0.000 A 
ENDBRANCH  23  32
ENDBRANCH  21  25
ENDBRANCH   1  21
TORSDOF 5
ENDMDL
MODEL 8
REMARK VINA RESULT:      -8.2      1.215      1.724
REMARK  Name = 
REMARK  7 active torsions:
REMARK  status: ('A' for Active; 'I' for Inactive)
REMARK    1  A    between atoms: C_1  and  C_2
REMARK    2  A    between atoms: C_6  and  C_7
REMARK    3  A    between atoms: N_9  and  C_10
REMARK    4  A    between atoms: C_10  and  C_11
REMARK    5  A    between atoms: C_10  and  C_12
REMARK    6  A    between atoms: C_15  and  C_16
REMARK    7  A    between atoms: N_18  and  C_19
REMARK                            x       y       z     vdW  Elec       q    Type
REMARK                         _______ _______ _______ _____ _____    ______ ____
ROOT
ATOM      1  C   UNL     1       2.511   6.627  19.000  0.00  0.00    +0.000 A 
ATOM      2  C   UNL     1       1.986   6.780  20.286  0.00  0.00    +0.000 A 
ATOM      3  C   UNL     1       1.403   7.989  20.676  0.00  0.00    +0.000 A 
ATOM      4  C   UNL     1       1.327   9.090  19.801  0.00  0.00    +0.000 A 
ATOM      5  C   UNL     1       1.828   8.899  18.503  0.00  0.00    +0.000 A 
ATOM      6  C   UNL     1       2.416   7.700  18.106  0.00  0.00    +0.000 A 
ENDROOT
BRANCH   4   7
ATOM      7  C   UNL     1       0.733  10.486  20.238  0.00  0.00    +0.000 C 
ATOM      8  C   UNL     1      -0.259  11.216  19.326  0.00  0.00    +0.000 C 
ATOM      9  N   UNL     1      -1.119  11.441  20.462  0.00  0.00    +0.000 N 
ATOM     10  C   UNL     1      -0.404  10.487  21.272  0.00  0.00    +0.000 C 
BRANCH   9  11
ATOM     11  C   UNL     1      -1.442  12.713  20.987  0.00  0.00    +0.000 A 
ATOM     12  C   UNL     1      -2.413  13.545  20.414  0.00  0.00    +0.000 A 
ATOM     13  C   UNL     1      -2.786  14.733  21.043  0.00  0.00    +0.000 A 
ATOM     14  C   UNL     1      -2.192  15.094  22.249  0.00  0.00    +0.000 A 
ATOM     15  C   UNL     1      -1.157  14.318  22.770  0.00  0.00    +0.000 A 
ATOM     16  C   UNL     1      -0.776  13.139  22.141  0.00  0.00    +0.000 A 
ATOM     17  O   UNL     1      -0.495  14.660  23.917  0.00  0.00    +0.000 OA
ATOM     18  C   UNL     1      -1.420  15.273  24.811  0.00  0.00    +0.000 C 
ATOM     19  C   UNL     1      -2.146  16.448  24.168  0.00  0.00    +0.000 C 
ATOM     20  O   UNL     1      -2.708  16.188  22.878  0.00  0.00    +0.000 OA
ENDBRANCH   9  11
ENDBRANCH   4   7
BRANCH   1  21
ATOM     21  C   UNL     1       3.167   5.321  18.601  0.00  0.00    +0.000 C 
ATOM     22  C   UNL     1       3.656   4.550  19.831  0.00  0.00    +0.000 C 
BRANCH  21  25
ATOM     23  C   UNL     1       4.716   4.625  16.807  0.00  0.00    +0.000 C 
ATOM     24  O   UNL     1       4.235   3.499  16.743  0.00  0.00    +0.000 OA
ATOM     25  N   UNL     1       4.254   5.583  17.676  0.00  0.00    +0.000 N 
ATOM     26  H   UNL     1       4.819   6.401  17.842  0.00  0.00    +0.000 HD
BRANCH  23  32
ATOM     27  C   UNL     1       5.591   3.877  13.646  0.00  0.00    +0.000 C 
ATOM     28  C   UNL     1       6.243   4.736  14.664  0.00  0.00    +0.000 A 
ATOM     29  N   UNL     1       7.396   5.341  14.355  0.00  0.00    +0.000 NA
ATOM     30  O   UNL     1       7.804   5.975  15.505  0.00  0.00    +0.000 OA
ATOM     31  C   UNL     1       6.895   5.778  16.483  0.00  0.00    +0.000 A 
ATOM     32  C   UNL     1       5.856   5.017  16.008  0.00  0.00    +0.000 A 
ENDBRANCH  23  32
ENDBRANCH  21  25
ENDBRANCH   1  21
TORSDOF 5
ENDMDL
MODEL 9
REMARK VINA RESULT:      -8.2      1.414      1.885
REMARK  Name = 
REMARK  7 active torsions:
REMARK  status: ('A' for Active; 'I' for Inactive)
REMARK    1  A    between atoms: C_1  and  C_2
REMARK    2  A    between atoms: C_6  and  C_7
REMARK    3  A    between atoms: N_9  and  C_10
REMARK    4  A    between atoms: C_10  and  C_11
REMARK    5  A    between atoms: C_10  and  C_12
REMARK    6  A    between atoms: C_15  and  C_16
REMARK    7  A    between atoms: N_18  and  C_19
REMARK                            x       y       z     vdW  Elec       q    Type
REMARK                         _______ _______ _______ _____ _____    ______ ____
ROOT
ATOM      1  C   UNL     1       2.036   6.834  18.793  0.00  0.00    +0.000 A 
ATOM      2  C   UNL     1       1.866   8.040  18.107  0.00  0.00    +0.000 A 
ATOM      3  C   UNL     1       1.470   9.194  18.788  0.00  0.00    +0.000 A 
ATOM      4  C   UNL     1       1.223   9.188  20.174  0.00  0.00    +0.000 A 
ATOM      5  C   UNL     1       1.437   7.974  20.847  0.00  0.00    +0.000 A 
ATOM      6  C   UNL     1       1.826   6.816  20.177  0.00  0.00    +0.000 A 
ENDROOT
BRANCH   4   7
ATOM      7  C   UNL     1       0.712  10.463  20.954  0.00  0.00    +0.000 C 
ATOM      8  C   UNL     1      -0.269  11.430  20.282  0.00  0.00    +0.000 C 
ATOM      9  N   UNL     1      -1.084  11.411  21.472  0.00  0.00    +0.000 N 
ATOM     10  C   UNL     1      -0.394  10.262  22.003  0.00  0.00    +0.000 C 
BRANCH   9  11
ATOM     11  C   UNL     1      -1.328  12.533  22.297  0.00  0.00    +0.000 A 
ATOM     12  C   UNL     1      -0.403  13.574  22.454  0.00  0.00    +0.000 A 
ATOM     13  C   UNL     1      -0.744  14.718  23.176  0.00  0.00    +0.000 A 
ATOM     14  C   UNL     1      -2.010  14.828  23.741  0.00  0.00    +0.000 A 
ATOM     15  C   UNL     1      -2.896  13.754  23.670  0.00  0.00    +0.000 A 
ATOM     16  C   UNL     1      -2.558  12.609  22.959  0.00  0.00    +0.000 A 
ATOM     17  O   UNL     1      -4.129  13.784  24.262  0.00  0.00    +0.000 OA
ATOM     18  C   UNL     1      -4.641  15.112  24.182  0.00  0.00    +0.000 C 
ATOM     19  C   UNL     1      -3.674  16.135  24.764  0.00  0.00    +0.000 C 
ATOM     20  O   UNL     1      -2.323  16.031  24.305  0.00  0.00    +0.000 OA
ENDBRANCH   9  11
ENDBRANCH   4   7
BRANCH   1  21
ATOM     21  C   UNL     1       2.436   5.583  18.037  0.00  0.00    +0.000 C 
ATOM     22  C   UNL     1       1.530   4.404  18.401  0.00  0.00    +0.000 C 
BRANCH  21  25
ATOM     23  C   UNL     1       4.845   5.809  17.542  0.00  0.00    +0.000 C 
ATOM     24  O   UNL     1       4.646   6.580  16.610  0.00  0.00    +0.000 OA
ATOM     25  N   UNL     1       3.830   5.280  18.301  0.00  0.00    +0.000 N 
ATOM     26  H   UNL     1       4.030   4.493  18.898  0.00  0.00    +0.000 HD
BRANCH  23  32
ATOM     27  C   UNL     1       7.171   4.180  15.738  0.00  0.00    +0.000 C 
ATOM     28  C   UNL     1       7.188   4.674  17.136  0.00  0.00    +0.000 A 
ATOM     29  N   UNL     1       8.275   4.458  17.884  0.00  0.00    +0.000 NA
ATOM     30  O   UNL     1       7.966   4.931  19.137  0.00  0.00    +0.000 OA
ATOM     31  C   UNL     1       6.721   5.452  19.136  0.00  0.00    +0.000 A 
ATOM     32  C   UNL     1       6.173   5.346  17.881  0.00  0.00    +0.000 A 
ENDBRANCH  23  32
ENDBRANCH  21  25
ENDBRANCH   1  21
TORSDOF 5
ENDMDL
