MODEL 1
REMARK VINA RESULT:      -7.2      0.000      0.000
REMARK  Name = 
REMARK  5 active torsions:
REMARK  status: ('A' for Active; 'I' for Inactive)
REMARK    1  A    between atoms: C_4  and  C_5
REMARK    2  A    between atoms: C_10  and  C_11
REMARK    3  A    between atoms: C_11  and  N_12
REMARK    4  A    between atoms: N_12  and  C_13
REMARK    5  A    between atoms: N_12  and  C_19
REMARK                            x       y       z     vdW  Elec       q    Type
REMARK                         _______ _______ _______ _____ _____    ______ ____
ROOT
ATOM      1  C   UNL     1       2.942   6.117  17.645  0.00  0.00    +0.000 C 
ENDROOT
BRANCH   1   7
ATOM      2  C   UNL     1       1.697   6.526  19.942  0.00  0.00    +0.000 A 
ATOM      3  C   UNL     1       0.999   7.523  20.684  0.00  0.00    +0.000 A 
ATOM      4  C   UNL     1       1.035   8.884  20.372  0.00  0.00    +0.000 A 
ATOM      5  C   UNL     1       1.804   9.315  19.309  0.00  0.00    +0.000 A 
ATOM      6  C   UNL     1       2.467   8.377  18.530  0.00  0.00    +0.000 A 
ATOM      7  C   UNL     1       2.357   6.976  18.761  0.00  0.00    +0.000 A 
BRANCH   2  11
ATOM      8  C   UNL     1       1.595   2.484  21.568  0.00  0.00    +0.000 A 
ATOM      9  C   UNL     1       2.594   3.360  21.961  0.00  0.00    +0.000 A 
ATOM     10  C   UNL     1       2.666   4.665  21.435  0.00  0.00    +0.000 A 
ATOM     11  C   UNL     1       1.709   5.139  20.529  0.00  0.00    +0.000 A 
ATOM     12  C   UNL     1       0.706   4.211  20.151  0.00  0.00    +0.000 A 
ATOM     13  C   UNL     1       0.660   2.901  20.642  0.00  0.00    +0.000 A 
ENDBRANCH   2  11
ENDBRANCH   1   7
BRANCH   1  14
ATOM     14  N   UNL     1       3.947   5.060  17.989  0.00  0.00    +0.000 NA
BRANCH  14  15
ATOM     15  C   UNL     1       5.356   5.454  17.581  0.00  0.00    +0.000 C 
ATOM     16  C   UNL     1       5.812   4.767  16.271  0.00  0.00    +0.000 C 
ATOM     17  C   UNL     1       7.292   4.980  15.978  0.00  0.00    +0.000 C 
ATOM     18  O   UNL     1       8.063   4.520  17.082  0.00  0.00    +0.000 OA
ATOM     19  C   UNL     1       7.879   5.363  18.208  0.00  0.00    +0.000 C 
ATOM     20  C   UNL     1       6.432   5.357  18.693  0.00  0.00    +0.000 C 
ENDBRANCH  14  15
BRANCH  14  21
ATOM     21  C   UNL     1       3.653   3.633  17.670  0.00  0.00    +0.000 C 
ATOM     22  C   UNL     1       4.000   2.564  18.712  0.00  0.00    +0.000 C 
ATOM     23  C   UNL     1       3.221   1.340  18.260  0.00  0.00    +0.000 C 
ATOM     24  N   UNL     1       1.981   1.836  17.653  0.00  0.00    +0.000 NA
ATOM     25  C   UNL     1       2.255   3.201  17.176  0.00  0.00    +0.000 C 
ATOM     26  H   UNL     1       1.261   1.883  18.374  0.00  0.00    +0.000 HD
ENDBRANCH  14  21
ENDBRANCH   1  14
TORSDOF 5
ENDMDL
MODEL 2
REMARK VINA RESULT:      -7.1      0.952      1.613
REMARK  Name = 
REMARK  5 active torsions:
REMARK  status: ('A' for Active; 'I' for Inactive)
REMARK    1  A    between atoms: C_4  and  C_5
REMARK    2  A    between atoms: C_10  and  C_11
REMARK    3  A    between atoms: C_11  and  N_12
REMARK    4  A    between atoms: N_12  and  C_13
REMARK    5  A    between atoms: N_12  and  C_19
REMARK                            x       y       z     vdW  Elec       q    Type
REMARK                         _______ _______ _______ _____ _____    ______ ____
ROOT
ATOM      1  C   UNL     1       3.392   6.037  17.561  0.00  0.00    +0.000 C 
ENDROOT
BRANCH   1   7
ATOM      2  C   UNL     1       1.795   6.563  19.601  0.00  0.00    +0.000 A 
ATOM      3  C   UNL     1       1.002   7.600  20.174  0.00  0.00    +0.000 A 
ATOM      4  C   UNL     1       1.111   8.945  19.812  0.00  0.00    +0.000 A 
ATOM      5  C   UNL     1       2.051   9.318  18.872  0.00  0.00    +0.000 A 
ATOM      6  C   UNL     1       2.817   8.339  18.255  0.00  0.00    +0.000 A 
ATOM      7  C   UNL     1       2.647   6.952  18.526  0.00  0.00    +0.000 A 
BRANCH   2  11
ATOM      8  C   UNL     1       1.612   2.665  21.542  0.00  0.00    +0.000 A 
ATOM      9  C   UNL     1       0.747   2.957  20.500  0.00  0.00    +0.000 A 
ATOM     10  C   UNL     1       0.767   4.216  19.869  0.00  0.00    +0.000 A 
ATOM     11  C   UNL     1       1.687   5.204  20.242  0.00  0.00    +0.000 A 
ATOM     12  C   UNL     1       2.552   4.866  21.314  0.00  0.00    +0.000 A 
ATOM     13  C   UNL     1       2.503   3.631  21.969  0.00  0.00    +0.000 A 
ENDBRANCH   2  11
ENDBRANCH   1   7
BRANCH   1  14
ATOM     14  N   UNL     1       4.329   5.003  18.110  0.00  0.00    +0.000 NA
BRANCH  14  15
ATOM     15  C   UNL     1       5.785   5.372  17.886  0.00  0.00    +0.000 C 
ATOM     16  C   UNL     1       6.609   5.372  19.196  0.00  0.00    +0.000 C 
ATOM     17  C   UNL     1       8.005   5.953  19.015  0.00  0.00    +0.000 C 
ATOM     18  O   UNL     1       7.903   7.270  18.486  0.00  0.00    +0.000 OA
ATOM     19  C   UNL     1       7.440   7.237  17.145  0.00  0.00    +0.000 C 
ATOM     20  C   UNL     1       6.036   6.648  17.043  0.00  0.00    +0.000 C 
ENDBRANCH  14  15
BRANCH  14  21
ATOM     21  C   UNL     1       4.072   3.559  17.840  0.00  0.00    +0.000 C 
ATOM     22  C   UNL     1       4.250   2.557  18.987  0.00  0.00    +0.000 C 
ATOM     23  C   UNL     1       3.535   1.308  18.501  0.00  0.00    +0.000 C 
ATOM     24  N   UNL     1       2.404   1.764  17.686  0.00  0.00    +0.000 NA
ATOM     25  C   UNL     1       2.759   3.097  17.171  0.00  0.00    +0.000 C 
ATOM     26  H   UNL     1       1.585   1.857  18.287  0.00  0.00    +0.000 HD
ENDBRANCH  14  21
ENDBRANCH   1  14
TORSDOF 5
ENDMDL
MODEL 3
REMARK VINA RESULT:      -7.0      0.650      1.154
REMARK  Name = 
REMARK  5 active torsions:
REMARK  status: ('A' for Active; 'I' for Inactive)
REMARK    1  A    between atoms: C_4  and  C_5
REMARK    2  A    between atoms: C_10  and  C_11
REMARK    3  A    between atoms: C_11  and  N_12
REMARK    4  A    between atoms: N_12  and  C_13
REMARK    5  A    between atoms: N_12  and  C_19
REMARK                            x       y       z     vdW  Elec       q    Type
REMARK                         _______ _______ _______ _____ _____    ______ ____
ROOT
ATOM      1  C   UNL     1       2.549   6.119  17.573  0.00  0.00    +0.000 C 
ENDROOT
BRANCH   1   7
ATOM      2  C   UNL     1       1.574   6.454  20.008  0.00  0.00    +0.000 A 
ATOM      3  C   UNL     1       1.011   7.439  20.871  0.00  0.00    +0.000 A 
ATOM      4  C   UNL     1       1.085   8.813  20.627  0.00  0.00    +0.000 A 
ATOM      5  C   UNL     1       1.761   9.267  19.511  0.00  0.00    +0.000 A 
ATOM      6  C   UNL     1       2.289   8.345  18.619  0.00  0.00    +0.000 A 
ATOM      7  C   UNL     1       2.129   6.940  18.787  0.00  0.00    +0.000 A 
BRANCH   2  11
ATOM      8  C   UNL     1       1.711   2.383  21.556  0.00  0.00    +0.000 A 
ATOM      9  C   UNL     1       0.728   2.742  20.648  0.00  0.00    +0.000 A 
ATOM     10  C   UNL     1       0.645   4.056  20.148  0.00  0.00    +0.000 A 
ATOM     11  C   UNL     1       1.574   5.037  20.517  0.00  0.00    +0.000 A 
ATOM     12  C   UNL     1       2.561   4.630  21.449  0.00  0.00    +0.000 A 
ATOM     13  C   UNL     1       2.618   3.335  21.979  0.00  0.00    +0.000 A 
ENDBRANCH   2  11
ENDBRANCH   1   7
BRANCH   1  14
ATOM     14  N   UNL     1       3.759   5.240  17.667  0.00  0.00    +0.000 NA
BRANCH  14  15
ATOM     15  C   UNL     1       4.927   5.782  16.863  0.00  0.00    +0.000 C 
ATOM     16  C   UNL     1       5.380   4.814  15.743  0.00  0.00    +0.000 C 
ATOM     17  C   UNL     1       6.683   5.247  15.082  0.00  0.00    +0.000 C 
ATOM     18  O   UNL     1       7.695   5.378  16.074  0.00  0.00    +0.000 OA
ATOM     19  C   UNL     1       7.429   6.488  16.916  0.00  0.00    +0.000 C 
ATOM     20  C   UNL     1       6.124   6.318  17.688  0.00  0.00    +0.000 C 
ENDBRANCH  14  15
BRANCH  14  21
ATOM     21  C   UNL     1       3.610   3.764  17.510  0.00  0.00    +0.000 C 
ATOM     22  C   UNL     1       4.089   2.855  18.647  0.00  0.00    +0.000 C 
ATOM     23  C   UNL     1       3.435   1.516  18.352  0.00  0.00    +0.000 C 
ATOM     24  N   UNL     1       2.138   1.813  17.736  0.00  0.00    +0.000 NA
ATOM     25  C   UNL     1       2.256   3.140  17.109  0.00  0.00    +0.000 C 
ATOM     26  H   UNL     1       1.432   1.863  18.470  0.00  0.00    +0.000 HD
ENDBRANCH  14  21
ENDBRANCH   1  14
TORSDOF 5
ENDMDL
MODEL 4
REMARK VINA RESULT:      -6.9      2.245      6.698
REMARK  Name = 
REMARK  5 active torsions:
REMARK  status: ('A' for Active; 'I' for Inactive)
REMARK    1  A    between atoms: C_4  and  C_5
REMARK    2  A    between atoms: C_10  and  C_11
REMARK    3  A    between atoms: C_11  and  N_12
REMARK    4  A    between atoms: N_12  and  C_13
REMARK    5  A    between atoms: N_12  and  C_19
REMARK                            x       y       z     vdW  Elec       q    Type
REMARK                         _______ _______ _______ _____ _____    ______ ____
ROOT
ATOM      1  C   UNL     1       4.195   5.898  17.203  0.00  0.00    +0.000 C 
ENDROOT
BRANCH   1   7
ATOM      2  C   UNL     1       6.598   4.902  16.725  0.00  0.00    +0.000 A 
ATOM      3  C   UNL     1       7.806   4.511  17.374  0.00  0.00    +0.000 A 
ATOM      4  C   UNL     1       8.130   4.870  18.684  0.00  0.00    +0.000 A 
ATOM      5  C   UNL     1       7.263   5.671  19.400  0.00  0.00    +0.000 A 
ATOM      6  C   UNL     1       6.055   6.043  18.827  0.00  0.00    +0.000 A 
ATOM      7  C   UNL     1       5.653   5.598  17.535  0.00  0.00    +0.000 A 
BRANCH   2  11
ATOM      8  C   UNL     1       6.422   4.118  12.442  0.00  0.00    +0.000 A 
ATOM      9  C   UNL     1       5.472   3.562  13.284  0.00  0.00    +0.000 A 
ATOM     10  C   UNL     1       5.517   3.779  14.675  0.00  0.00    +0.000 A 
ATOM     11  C   UNL     1       6.497   4.596  15.254  0.00  0.00    +0.000 A 
ATOM     12  C   UNL     1       7.450   5.143  14.358  0.00  0.00    +0.000 A 
ATOM     13  C   UNL     1       7.430   4.892  12.982  0.00  0.00    +0.000 A 
ENDBRANCH   2  11
ENDBRANCH   1   7
BRANCH   1  14
ATOM     14  N   UNL     1       3.199   6.003  18.317  0.00  0.00    +0.000 NA
BRANCH  14  15
ATOM     15  C   UNL     1       2.475   4.691  18.566  0.00  0.00    +0.000 C 
ATOM     16  C   UNL     1       2.771   4.103  19.967  0.00  0.00    +0.000 C 
ATOM     17  C   UNL     1       2.232   2.688  20.138  0.00  0.00    +0.000 C 
ATOM     18  O   UNL     1       2.768   1.852  19.118  0.00  0.00    +0.000 OA
ATOM     19  C   UNL     1       2.233   2.202  17.851  0.00  0.00    +0.000 C 
ATOM     20  C   UNL     1       2.608   3.625  17.448  0.00  0.00    +0.000 C 
ENDBRANCH  14  15
BRANCH  14  21
ATOM     21  C   UNL     1       2.271   7.169  18.367  0.00  0.00    +0.000 C 
ATOM     22  C   UNL     1       1.922   7.769  19.734  0.00  0.00    +0.000 C 
ATOM     23  C   UNL     1       1.327   9.127  19.402  0.00  0.00    +0.000 C 
ATOM     24  N   UNL     1       2.026   9.606  18.205  0.00  0.00    +0.000 NA
ATOM     25  C   UNL     1       2.514   8.416  17.489  0.00  0.00    +0.000 C 
ATOM     26  H   UNL     1       2.830  10.161  18.497  0.00  0.00    +0.000 HD
ENDBRANCH  14  21
ENDBRANCH   1  14
TORSDOF 5
ENDMDL
MODEL 5
REMARK VINA RESULT:      -6.8      0.787      1.216
REMARK  Name = 
REMARK  5 active torsions:
REMARK  status: ('A' for Active; 'I' for Inactive)
REMARK    1  A    between atoms: C_4  and  C_5
REMARK    2  A    between atoms: C_10  and  C_11
REMARK    3  A    between atoms: C_11  and  N_12
REMARK    4  A    between atoms: N_12  and  C_13
REMARK    5  A    between atoms: N_12  and  C_19
REMARK                            x       y       z     vdW  Elec       q    Type
REMARK                         _______ _______ _______ _____ _____    ______ ____
ROOT
ATOM      1  C   UNL     1       3.436   5.685  17.427  0.00  0.00    +0.000 C 
ENDROOT
BRANCH   1   7
ATOM      2  C   UNL     1       1.965   6.454  19.486  0.00  0.00    +0.000 A 
ATOM      3  C   UNL     1       1.249   7.572  20.005  0.00  0.00    +0.000 A 
ATOM      4  C   UNL     1       1.401   8.876  19.527  0.00  0.00    +0.000 A 
ATOM      5  C   UNL     1       2.309   9.125  18.517  0.00  0.00    +0.000 A 
ATOM      6  C   UNL     1       2.999   8.062  17.951  0.00  0.00    +0.000 A 
ATOM      7  C   UNL     1       2.780   6.711  18.345  0.00  0.00    +0.000 A 
BRANCH   2  11
ATOM      8  C   UNL     1       1.438   2.678  21.597  0.00  0.00    +0.000 A 
ATOM      9  C   UNL     1       2.453   3.543  21.974  0.00  0.00    +0.000 A 
ATOM     10  C   UNL     1       2.662   4.759  21.296  0.00  0.00    +0.000 A 
ATOM     11  C   UNL     1       1.829   5.159  20.243  0.00  0.00    +0.000 A 
ATOM     12  C   UNL     1       0.805   4.246  19.887  0.00  0.00    +0.000 A 
ATOM     13  C   UNL     1       0.625   3.017  20.533  0.00  0.00    +0.000 A 
ENDBRANCH   2  11
ENDBRANCH   1   7
BRANCH   1  14
ATOM     14  N   UNL     1       4.352   4.657  18.018  0.00  0.00    +0.000 NA
BRANCH  14  15
ATOM     15  C   UNL     1       5.807   4.916  17.669  0.00  0.00    +0.000 C 
ATOM     16  C   UNL     1       6.288   6.317  18.118  0.00  0.00    +0.000 C 
ATOM     17  C   UNL     1       7.668   6.668  17.577  0.00  0.00    +0.000 C 
ATOM     18  O   UNL     1       7.657   6.571  16.157  0.00  0.00    +0.000 OA
ATOM     19  C   UNL     1       7.535   5.219  15.748  0.00  0.00    +0.000 C 
ATOM     20  C   UNL     1       6.216   4.603  16.207  0.00  0.00    +0.000 C 
ENDBRANCH  14  15
BRANCH  14  21
ATOM     21  C   UNL     1       4.002   3.211  17.911  0.00  0.00    +0.000 C 
ATOM     22  C   UNL     1       4.212   2.315  19.137  0.00  0.00    +0.000 C 
ATOM     23  C   UNL     1       3.401   1.068  18.828  0.00  0.00    +0.000 C 
ATOM     24  N   UNL     1       2.239   1.509  18.050  0.00  0.00    +0.000 NA
ATOM     25  C   UNL     1       2.622   2.764  17.383  0.00  0.00    +0.000 C 
ATOM     26  H   UNL     1       1.471   1.706  18.693  0.00  0.00    +0.000 HD
ENDBRANCH  14  21
ENDBRANCH   1  14
TORSDOF 5
ENDMDL
MODEL 6
REMARK VINA RESULT:      -6.8      2.042      4.616
REMARK  Name = 
REMARK  5 active torsions:
REMARK  status: ('A' for Active; 'I' for Inactive)
REMARK    1  A    between atoms: C_4  and  C_5
REMARK    2  A    between atoms: C_10  and  C_11
REMARK    3  A    between atoms: C_11  and  N_12
REMARK    4  A    between atoms: N_12  and  C_13
REMARK    5  A    between atoms: N_12  and  C_19
REMARK                            x       y       z     vdW  Elec       q    Type
REMARK                         _______ _______ _______ _____ _____    ______ ____
ROOT
ATOM      1  C   UNL     1       4.443   5.578  16.628  0.00  0.00    +0.000 C 
ENDROOT
BRANCH   1   7
ATOM      2  C   UNL     1       2.630   5.166  18.510  0.00  0.00    +0.000 A 
ATOM      3  C   UNL     1       2.039   4.137  19.299  0.00  0.00    +0.000 A 
ATOM      4  C   UNL     1       2.163   2.775  19.011  0.00  0.00    +0.000 A 
ATOM      5  C   UNL     1       2.869   2.382  17.892  0.00  0.00    +0.000 A 
ATOM      6  C   UNL     1       3.500   3.345  17.116  0.00  0.00    +0.000 A 
ATOM      7  C   UNL     1       3.480   4.729  17.451  0.00  0.00    +0.000 A 
BRANCH   2  11
ATOM      8  C   UNL     1       1.451   9.210  19.626  0.00  0.00    +0.000 A 
ATOM      9  C   UNL     1       1.783   8.927  18.311  0.00  0.00    +0.000 A 
ATOM     10  C   UNL     1       2.190   7.636  17.925  0.00  0.00    +0.000 A 
ATOM     11  C   UNL     1       2.235   6.580  18.845  0.00  0.00    +0.000 A 
ATOM     12  C   UNL     1       1.890   6.911  20.179  0.00  0.00    +0.000 A 
ATOM     13  C   UNL     1       1.527   8.205  20.571  0.00  0.00    +0.000 A 
ENDBRANCH   2  11
ENDBRANCH   1   7
BRANCH   1  14
ATOM     14  N   UNL     1       5.702   4.956  16.106  0.00  0.00    +0.000 NA
BRANCH  14  15
ATOM     15  C   UNL     1       6.934   5.444  16.848  0.00  0.00    +0.000 C 
ATOM     16  C   UNL     1       7.228   4.618  18.124  0.00  0.00    +0.000 C 
ATOM     17  C   UNL     1       8.321   5.235  18.987  0.00  0.00    +0.000 C 
ATOM     18  O   UNL     1       7.958   6.570  19.324  0.00  0.00    +0.000 OA
ATOM     19  C   UNL     1       8.004   7.406  18.179  0.00  0.00    +0.000 C 
ATOM     20  C   UNL     1       7.000   6.969  17.116  0.00  0.00    +0.000 C 
ENDBRANCH  14  15
BRANCH  14  21
ATOM     21  C   UNL     1       5.931   4.883  14.634  0.00  0.00    +0.000 C 
ATOM     22  C   UNL     1       7.364   5.029  14.108  0.00  0.00    +0.000 C 
ATOM     23  C   UNL     1       7.290   4.508  12.683  0.00  0.00    +0.000 C 
ATOM     24  N   UNL     1       6.287   3.439  12.681  0.00  0.00    +0.000 NA
ATOM     25  C   UNL     1       5.370   3.711  13.800  0.00  0.00    +0.000 C 
ATOM     26  H   UNL     1       6.756   2.550  12.856  0.00  0.00    +0.000 HD
ENDBRANCH  14  21
ENDBRANCH   1  14
TORSDOF 5
ENDMDL
MODEL 7
REMARK VINA RESULT:      -6.7      2.310      5.638
REMARK  Name = 
REMARK  5 active torsions:
REMARK  status: ('A' for Active; 'I' for Inactive)
REMARK    1  A    between atoms: C_4  and  C_5
REMARK    2  A    between atoms: C_10  and  C_11
REMARK    3  A    between atoms: C_11  and  N_12
REMARK    4  A    between atoms: N_12  and  C_13
REMARK    5  A    between atoms: N_12  and  C_19
REMARK                            x       y       z     vdW  Elec       q    Type
REMARK                         _______ _______ _______ _____ _____    ______ ____
ROOT
ATOM      1  C   UNL     1       3.583   6.652  17.552  0.00  0.00    +0.000 C 
ENDROOT
BRANCH   1   7
ATOM      2  C   UNL     1       5.671   5.173  18.218  0.00  0.00    +0.000 A 
ATOM      3  C   UNL     1       7.068   5.253  18.492  0.00  0.00    +0.000 A 
ATOM      4  C   UNL     1       7.857   6.359  18.167  0.00  0.00    +0.000 A 
ATOM      5  C   UNL     1       7.281   7.433  17.517  0.00  0.00    +0.000 A 
ATOM      6  C   UNL     1       5.917   7.420  17.267  0.00  0.00    +0.000 A 
ATOM      7  C   UNL     1       5.072   6.354  17.688  0.00  0.00    +0.000 A 
BRANCH   2  11
ATOM      8  C   UNL     1       3.729   1.309  18.753  0.00  0.00    +0.000 A 
ATOM      9  C   UNL     1       4.271   1.966  19.847  0.00  0.00    +0.000 A 
ATOM     10  C   UNL     1       4.924   3.204  19.701  0.00  0.00    +0.000 A 
ATOM     11  C   UNL     1       5.016   3.838  18.455  0.00  0.00    +0.000 A 
ATOM     12  C   UNL     1       4.452   3.132  17.362  0.00  0.00    +0.000 A 
ATOM     13  C   UNL     1       3.840   1.881  17.501  0.00  0.00    +0.000 A 
ENDBRANCH   2  11
ENDBRANCH   1   7
BRANCH   1  14
ATOM     14  N   UNL     1       2.785   6.962  18.782  0.00  0.00    +0.000 NA
BRANCH  14  15
ATOM     15  C   UNL     1       1.754   5.889  19.082  0.00  0.00    +0.000 C 
ATOM     16  C   UNL     1       1.961   5.234  20.469  0.00  0.00    +0.000 C 
ATOM     17  C   UNL     1       1.076   4.013  20.683  0.00  0.00    +0.000 C 
ATOM     18  O   UNL     1       1.312   3.071  19.642  0.00  0.00    +0.000 OA
ATOM     19  C   UNL     1       0.819   3.558  18.404  0.00  0.00    +0.000 C 
ATOM     20  C   UNL     1       1.535   4.833  17.968  0.00  0.00    +0.000 C 
ENDBRANCH  14  15
BRANCH  14  21
ATOM     21  C   UNL     1       2.233   8.334  18.974  0.00  0.00    +0.000 C 
ATOM     22  C   UNL     1       1.501   9.000  17.803  0.00  0.00    +0.000 C 
ATOM     23  C   UNL     1       0.744  10.150  18.446  0.00  0.00    +0.000 C 
ATOM     24  N   UNL     1       0.362   9.699  19.788  0.00  0.00    +0.000 NA
ATOM     25  C   UNL     1       1.332   8.666  20.184  0.00  0.00    +0.000 C 
ATOM     26  H   UNL     1      -0.563   9.272  19.738  0.00  0.00    +0.000 HD
ENDBRANCH  14  21
ENDBRANCH   1  14
TORSDOF 5
ENDMDL
MODEL 8
REMARK VINA RESULT:      -6.7      2.377      6.772
REMARK  Name = 
REMARK  5 active torsions:
REMARK  status: ('A' for Active; 'I' for Inactive)
REMARK    1  A    between atoms: C_4  and  C_5
REMARK    2  A    between atoms: C_10  and  C_11
REMARK    3  A    between atoms: C_11  and  N_12
REMARK    4  A    between atoms: N_12  and  C_13
REMARK    5  A    between atoms: N_12  and  C_19
REMARK                            x       y       z     vdW  Elec       q    Type
REMARK                         _______ _______ _______ _____ _____    ______ ____
ROOT
ATOM      1  C   UNL     1       4.073   5.472  17.740  0.00  0.00    +0.000 C 
ENDROOT
BRANCH   1   7
ATOM      2  C   UNL     1       6.522   4.794  17.008  0.00  0.00    +0.000 A 
ATOM      3  C   UNL     1       7.824   4.537  17.529  0.00  0.00    +0.000 A 
ATOM      4  C   UNL     1       8.226   4.898  18.817  0.00  0.00    +0.000 A 
ATOM      5  C   UNL     1       7.340   5.567  19.639  0.00  0.00    +0.000 A 
ATOM      6  C   UNL     1       6.048   5.802  19.192  0.00  0.00    +0.000 A 
ATOM      7  C   UNL     1       5.581   5.345  17.927  0.00  0.00    +0.000 A 
BRANCH   2  11
ATOM      8  C   UNL     1       6.065   4.077  12.734  0.00  0.00    +0.000 A 
ATOM      9  C   UNL     1       5.079   3.657  13.613  0.00  0.00    +0.000 A 
ATOM     10  C   UNL     1       5.210   3.854  15.001  0.00  0.00    +0.000 A 
ATOM     11  C   UNL     1       6.319   4.517  15.541  0.00  0.00    +0.000 A 
ATOM     12  C   UNL     1       7.305   4.928  14.609  0.00  0.00    +0.000 A 
ATOM     13  C   UNL     1       7.195   4.694  13.234  0.00  0.00    +0.000 A 
ENDBRANCH   2  11
ENDBRANCH   1   7
BRANCH   1  14
ATOM     14  N   UNL     1       3.236   5.973  18.877  0.00  0.00    +0.000 NA
BRANCH  14  15
ATOM     15  C   UNL     1       2.105   5.020  19.221  0.00  0.00    +0.000 C 
ATOM     16  C   UNL     1       2.257   4.397  20.629  0.00  0.00    +0.000 C 
ATOM     17  C   UNL     1       1.255   3.279  20.891  0.00  0.00    +0.000 C 
ATOM     18  O   UNL     1       1.387   2.283  19.882  0.00  0.00    +0.000 OA
ATOM     19  C   UNL     1       0.935   2.773  18.631  0.00  0.00    +0.000 C 
ATOM     20  C   UNL     1       1.772   3.953  18.146  0.00  0.00    +0.000 C 
ENDBRANCH  14  15
BRANCH  14  21
ATOM     21  C   UNL     1       2.789   7.396  18.891  0.00  0.00    +0.000 C 
ATOM     22  C   UNL     1       2.177   7.984  17.615  0.00  0.00    +0.000 C 
ATOM     23  C   UNL     1       1.483   9.251  18.085  0.00  0.00    +0.000 C 
ATOM     24  N   UNL     1       0.996   8.980  19.442  0.00  0.00    +0.000 NA
ATOM     25  C   UNL     1       1.857   7.925  20.003  0.00  0.00    +0.000 C 
ATOM     26  H   UNL     1       0.043   8.621  19.381  0.00  0.00    +0.000 HD
ENDBRANCH  14  21
ENDBRANCH   1  14
TORSDOF 5
ENDMDL
MODEL 9
REMARK VINA RESULT:      -6.6      2.122      3.787
REMARK  Name = 
REMARK  5 active torsions:
REMARK  status: ('A' for Active; 'I' for Inactive)
REMARK    1  A    between atoms: C_4  and  C_5
REMARK    2  A    between atoms: C_10  and  C_11
REMARK    3  A    between atoms: C_11  and  N_12
REMARK    4  A    between atoms: N_12  and  C_13
REMARK    5  A    between atoms: N_12  and  C_19
REMARK                            x       y       z     vdW  Elec       q    Type
REMARK                         _______ _______ _______ _____ _____    ______ ____
ROOT
ATOM      1  C   UNL     1       4.525   5.024  16.648  0.00  0.00    +0.000 C 
ENDROOT
BRANCH   1   7
ATOM      2  C   UNL     1       2.522   5.865  18.156  0.00  0.00    +0.000 A 
ATOM      3  C   UNL     1       1.753   7.025  18.464  0.00  0.00    +0.000 A 
ATOM      4  C   UNL     1       2.138   8.322  18.117  0.00  0.00    +0.000 A 
ATOM      5  C   UNL     1       3.339   8.520  17.464  0.00  0.00    +0.000 A 
ATOM      6  C   UNL     1       4.103   7.418  17.105  0.00  0.00    +0.000 A 
ATOM      7  C   UNL     1       3.678   6.081  17.349  0.00  0.00    +0.000 A 
BRANCH   2  11
ATOM      8  C   UNL     1       1.206   2.185  20.082  0.00  0.00    +0.000 A 
ATOM      9  C   UNL     1       1.390   2.216  18.709  0.00  0.00    +0.000 A 
ATOM     10  C   UNL     1       1.792   3.397  18.056  0.00  0.00    +0.000 A 
ATOM     11  C   UNL     1       2.061   4.571  18.772  0.00  0.00    +0.000 A 
ATOM     12  C   UNL     1       1.858   4.497  20.173  0.00  0.00    +0.000 A 
ATOM     13  C   UNL     1       1.417   3.335  20.817  0.00  0.00    +0.000 A 
ENDBRANCH   2  11
ENDBRANCH   1   7
BRANCH   1  14
ATOM     14  N   UNL     1       5.954   5.333  16.320  0.00  0.00    +0.000 NA
BRANCH  14  15
ATOM     15  C   UNL     1       6.446   4.556  15.112  0.00  0.00    +0.000 C 
ATOM     16  C   UNL     1       7.435   5.369  14.242  0.00  0.00    +0.000 C 
ATOM     17  C   UNL     1       7.757   4.685  12.919  0.00  0.00    +0.000 C 
ATOM     18  O   UNL     1       6.549   4.438  12.209  0.00  0.00    +0.000 OA
ATOM     19  C   UNL     1       5.781   3.438  12.859  0.00  0.00    +0.000 C 
ATOM     20  C   UNL     1       5.349   3.871  14.257  0.00  0.00    +0.000 C 
ENDBRANCH  14  15
BRANCH  14  21
ATOM     21  C   UNL     1       6.969   5.366  17.412  0.00  0.00    +0.000 C 
ATOM     22  C   UNL     1       7.554   6.722  17.826  0.00  0.00    +0.000 C 
ATOM     23  C   UNL     1       8.201   6.450  19.174  0.00  0.00    +0.000 C 
ATOM     24  N   UNL     1       7.380   5.428  19.831  0.00  0.00    +0.000 NA
ATOM     25  C   UNL     1       6.703   4.672  18.766  0.00  0.00    +0.000 C 
ATOM     26  H   UNL     1       6.672   5.894  20.398  0.00  0.00    +0.000 HD
ENDBRANCH  14  21
ENDBRANCH   1  14
TORSDOF 5
ENDMDL
