MODEL 1
REMARK VINA RESULT:      -7.3      0.000      0.000
REMARK  Name = 
REMARK  9 active torsions:
REMARK  status: ('A' for Active; 'I' for Inactive)
REMARK    1  A    between atoms: C_2  and  O_3
REMARK    2  A    between atoms: C_2  and  C_4
REMARK    3  A    between atoms: N_6  and  C_7
REMARK    4  A    between atoms: C_7  and  C_8
REMARK    5  A    between atoms: C_8  and  O_9
REMARK    6  A    between atoms: O_9  and  C_10
REMARK    7  A    between atoms: C_10  and  C_11
REMARK    8  A    between atoms: C_10  and  C_18
REMARK    9  A    between atoms: C_27  and  O_28
REMARK                            x       y       z     vdW  Elec       q    Type
REMARK                         _______ _______ _______ _____ _____    ______ ____
ROOT
ATOM      1  O   UNL     1       2.839   7.363  19.075  0.00  0.00    +0.000 OA
ENDROOT
BRANCH   1   2
ATOM      2  C   UNL     1       1.780   8.316  19.172  0.00  0.00    +0.000 C 
BRANCH   2   3
ATOM      3  C   UNL     1       1.847   9.419  18.099  0.00  0.00    +0.000 C 
BRANCH   3   6
ATOM      4  C   UNL     1      -1.426  10.976  19.115  0.00  0.00    +0.000 C 
ATOM      5  C   UNL     1      -0.260   9.988  19.146  0.00  0.00    +0.000 C 
ATOM      6  N   UNL     1       0.811  10.458  18.229  0.00  0.00    +0.000 NA
ATOM      7  C   UNL     1       1.363  11.741  18.707  0.00  0.00    +0.000 C 
ATOM      8  C   UNL     1       0.276  12.814  18.717  0.00  0.00    +0.000 C 
ATOM      9  C   UNL     1      -0.933  12.364  19.530  0.00  0.00    +0.000 C 
BRANCH   4  11
ATOM     10  O   UNL     1      -3.060  11.748  17.516  0.00  0.00    +0.000 OA
ATOM     11  C   UNL     1      -2.122  11.001  17.762  0.00  0.00    +0.000 C 
BRANCH  11  12
ATOM     12  O   UNL     1      -1.590  10.208  16.806  0.00  0.00    +0.000 OA
ATOM     13  H   UNL     1      -1.573  10.648  15.921  0.00  0.00    +0.000 HD
ENDBRANCH  11  12
ENDBRANCH   4  11
BRANCH   9  14
ATOM     14  O   UNL     1      -1.948  13.358  19.498  0.00  0.00    +0.000 OA
ATOM     15  H   UNL     1      -1.698  14.099  20.083  0.00  0.00    +0.000 HD
ENDBRANCH   9  14
ENDBRANCH   3   6
ENDBRANCH   2   3
ENDBRANCH   1   2
BRANCH   1  16
ATOM     16  C   UNL     1       2.533   6.165  18.348  0.00  0.00    +0.000 C 
BRANCH  16  17
ATOM     17  C   UNL     1       3.654   5.771  17.398  0.00  0.00    +0.000 A 
ATOM     18  C   UNL     1       3.943   4.421  17.136  0.00  0.00    +0.000 A 
ATOM     19  C   UNL     1       4.998   4.068  16.293  0.00  0.00    +0.000 A 
ATOM     20  C   UNL     1       5.784   5.062  15.715  0.00  0.00    +0.000 A 
ATOM     21 CL   UNL     1       7.093   4.625  14.689  0.00  0.00    +0.000 Cl
ATOM     22  C   UNL     1       5.519   6.405  15.968  0.00  0.00    +0.000 A 
ATOM     23  C   UNL     1       4.457   6.760  16.803  0.00  0.00    +0.000 A 
ENDBRANCH  16  17
BRANCH  16  24
ATOM     24  C   UNL     1       2.183   5.061  19.334  0.00  0.00    +0.000 A 
ATOM     25  C   UNL     1       2.789   5.046  20.600  0.00  0.00    +0.000 A 
ATOM     26  C   UNL     1       2.441   4.072  21.541  0.00  0.00    +0.000 A 
ATOM     27  C   UNL     1       1.484   3.115  21.221  0.00  0.00    +0.000 A 
ATOM     28 CL   UNL     1       1.031   1.940  22.395  0.00  0.00    +0.000 Cl
ATOM     29  C   UNL     1       0.882   3.105  19.967  0.00  0.00    +0.000 A 
ATOM     30  C   UNL     1       1.234   4.072  19.023  0.00  0.00    +0.000 A 
ENDBRANCH  16  24
ENDBRANCH   1  16
TORSDOF 9
ENDMDL
MODEL 2
REMARK VINA RESULT:      -7.3      1.919      5.037
REMARK  Name = 
REMARK  9 active torsions:
REMARK  status: ('A' for Active; 'I' for Inactive)
REMARK    1  A    between atoms: C_2  and  O_3
REMARK    2  A    between atoms: C_2  and  C_4
REMARK    3  A    between atoms: N_6  and  C_7
REMARK    4  A    between atoms: C_7  and  C_8
REMARK    5  A    between atoms: C_8  and  O_9
REMARK    6  A    between atoms: O_9  and  C_10
REMARK    7  A    between atoms: C_10  and  C_11
REMARK    8  A    between atoms: C_10  and  C_18
REMARK    9  A    between atoms: C_27  and  O_28
REMARK                            x       y       z     vdW  Elec       q    Type
REMARK                         _______ _______ _______ _____ _____    ______ ____
ROOT
ATOM      1  O   UNL     1       2.506   7.234  17.693  0.00  0.00    +0.000 OA
ENDROOT
BRANCH   1   2
ATOM      2  C   UNL     1       2.587   8.623  18.016  0.00  0.00    +0.000 C 
BRANCH   2   3
ATOM      3  C   UNL     1       1.211   9.289  18.207  0.00  0.00    +0.000 C 
BRANCH   3   6
ATOM      4  C   UNL     1      -0.603  11.033  21.007  0.00  0.00    +0.000 C 
ATOM      5  C   UNL     1      -0.421  10.324  19.665  0.00  0.00    +0.000 C 
ATOM      6  N   UNL     1       0.964   9.796  19.569  0.00  0.00    +0.000 NA
ATOM      7  C   UNL     1       1.188   8.762  20.599  0.00  0.00    +0.000 C 
ATOM      8  C   UNL     1       1.031   9.363  21.994  0.00  0.00    +0.000 C 
ATOM      9  C   UNL     1      -0.321  10.052  22.147  0.00  0.00    +0.000 C 
BRANCH   4  11
ATOM     10  O   UNL     1       0.277  12.984  22.120  0.00  0.00    +0.000 OA
ATOM     11  C   UNL     1       0.248  12.290  21.113  0.00  0.00    +0.000 C 
BRANCH  11  12
ATOM     12  O   UNL     1       1.050  12.554  20.058  0.00  0.00    +0.000 OA
ATOM     13  H   UNL     1       2.000  12.360  20.250  0.00  0.00    +0.000 HD
ENDBRANCH  11  12
ENDBRANCH   4  11
BRANCH   9  14
ATOM     14  O   UNL     1      -0.434  10.637  23.437  0.00  0.00    +0.000 OA
ATOM     15  H   UNL     1      -0.152   9.991  24.114  0.00  0.00    +0.000 HD
ENDBRANCH   9  14
ENDBRANCH   3   6
ENDBRANCH   2   3
ENDBRANCH   1   2
BRANCH   1  16
ATOM     16  C   UNL     1       3.542   6.407  18.240  0.00  0.00    +0.000 C 
BRANCH  16  17
ATOM     17  C   UNL     1       2.996   5.389  19.231  0.00  0.00    +0.000 A 
ATOM     18  C   UNL     1       3.841   4.449  19.845  0.00  0.00    +0.000 A 
ATOM     19  C   UNL     1       3.326   3.494  20.723  0.00  0.00    +0.000 A 
ATOM     20  C   UNL     1       1.958   3.461  20.985  0.00  0.00    +0.000 A 
ATOM     21 CL   UNL     1       1.324   2.274  22.055  0.00  0.00    +0.000 Cl
ATOM     22  C   UNL     1       1.104   4.379  20.380  0.00  0.00    +0.000 A 
ATOM     23  C   UNL     1       1.619   5.341  19.510  0.00  0.00    +0.000 A 
ENDBRANCH  16  17
BRANCH  16  24
ATOM     24  C   UNL     1       4.316   5.762  17.100  0.00  0.00    +0.000 A 
ATOM     25  C   UNL     1       4.270   4.370  16.932  0.00  0.00    +0.000 A 
ATOM     26  C   UNL     1       4.930   3.762  15.860  0.00  0.00    +0.000 A 
ATOM     27  C   UNL     1       5.633   4.546  14.951  0.00  0.00    +0.000 A 
ATOM     28 CL   UNL     1       6.415   3.799  13.610  0.00  0.00    +0.000 Cl
ATOM     29  C   UNL     1       5.703   5.926  15.108  0.00  0.00    +0.000 A 
ATOM     30  C   UNL     1       5.051   6.534  16.183  0.00  0.00    +0.000 A 
ENDBRANCH  16  24
ENDBRANCH   1  16
TORSDOF 9
ENDMDL
MODEL 3
REMARK VINA RESULT:      -7.2      4.045      8.433
REMARK  Name = 
REMARK  9 active torsions:
REMARK  status: ('A' for Active; 'I' for Inactive)
REMARK    1  A    between atoms: C_2  and  O_3
REMARK    2  A    between atoms: C_2  and  C_4
REMARK    3  A    between atoms: N_6  and  C_7
REMARK    4  A    between atoms: C_7  and  C_8
REMARK    5  A    between atoms: C_8  and  O_9
REMARK    6  A    between atoms: O_9  and  C_10
REMARK    7  A    between atoms: C_10  and  C_11
REMARK    8  A    between atoms: C_10  and  C_18
REMARK    9  A    between atoms: C_27  and  O_28
REMARK                            x       y       z     vdW  Elec       q    Type
REMARK                         _______ _______ _______ _____ _____    ______ ____
ROOT
ATOM      1  O   UNL     1       1.208   9.338  18.213  0.00  0.00    +0.000 OA
ENDROOT
BRANCH   1   2
ATOM      2  C   UNL     1       1.914   8.296  18.887  0.00  0.00    +0.000 C 
BRANCH   2   3
ATOM      3  C   UNL     1       2.465   7.215  17.937  0.00  0.00    +0.000 C 
BRANCH   3   6
ATOM      4  C   UNL     1       2.850   3.646  19.070  0.00  0.00    +0.000 C 
ATOM      5  C   UNL     1       2.364   4.812  18.208  0.00  0.00    +0.000 C 
ATOM      6  N   UNL     1       3.066   6.055  18.619  0.00  0.00    +0.000 NA
ATOM      7  C   UNL     1       4.513   5.936  18.347  0.00  0.00    +0.000 C 
ATOM      8  C   UNL     1       5.111   4.791  19.162  0.00  0.00    +0.000 C 
ATOM      9  C   UNL     1       4.363   3.486  18.908  0.00  0.00    +0.000 C 
BRANCH   4  11
ATOM     10  O   UNL     1       2.782   3.005  21.395  0.00  0.00    +0.000 OA
ATOM     11  C   UNL     1       2.446   3.801  20.528  0.00  0.00    +0.000 C 
BRANCH  11  12
ATOM     12  O   UNL     1       1.761   4.924  20.838  0.00  0.00    +0.000 OA
ATOM     13  H   UNL     1       0.845   4.920  20.467  0.00  0.00    +0.000 HD
ENDBRANCH  11  12
ENDBRANCH   4  11
BRANCH   9  14
ATOM     14  O   UNL     1       4.909   2.442  19.702  0.00  0.00    +0.000 OA
ATOM     15  H   UNL     1       4.319   2.266  20.461  0.00  0.00    +0.000 HD
ENDBRANCH   9  14
ENDBRANCH   3   6
ENDBRANCH   2   3
ENDBRANCH   1   2
BRANCH   1  16
ATOM     16  C   UNL     1       0.533  10.280  19.059  0.00  0.00    +0.000 C 
BRANCH  16  17
ATOM     17  C   UNL     1       1.329  11.565  19.232  0.00  0.00    +0.000 A 
ATOM     18  C   UNL     1       2.029  12.136  18.155  0.00  0.00    +0.000 A 
ATOM     19  C   UNL     1       2.787  13.295  18.332  0.00  0.00    +0.000 A 
ATOM     20  C   UNL     1       2.864  13.886  19.591  0.00  0.00    +0.000 A 
ATOM     21 CL   UNL     1       3.812  15.304  19.810  0.00  0.00    +0.000 Cl
ATOM     22  C   UNL     1       2.186  13.331  20.672  0.00  0.00    +0.000 A 
ATOM     23  C   UNL     1       1.417  12.178  20.494  0.00  0.00    +0.000 A 
ENDBRANCH  16  17
BRANCH  16  24
ATOM     24  C   UNL     1      -0.866  10.523  18.514  0.00  0.00    +0.000 A 
ATOM     25  C   UNL     1      -1.707  11.447  19.152  0.00  0.00    +0.000 A 
ATOM     26  C   UNL     1      -2.977  11.725  18.636  0.00  0.00    +0.000 A 
ATOM     27  C   UNL     1      -3.406  11.084  17.479  0.00  0.00    +0.000 A 
ATOM     28 CL   UNL     1      -4.955  11.455  16.826  0.00  0.00    +0.000 Cl
ATOM     29  C   UNL     1      -2.593  10.154  16.840  0.00  0.00    +0.000 A 
ATOM     30  C   UNL     1      -1.327   9.869  17.359  0.00  0.00    +0.000 A 
ENDBRANCH  16  24
ENDBRANCH   1  16
TORSDOF 9
ENDMDL
MODEL 4
REMARK VINA RESULT:      -7.2      4.021      8.435
REMARK  Name = 
REMARK  9 active torsions:
REMARK  status: ('A' for Active; 'I' for Inactive)
REMARK    1  A    between atoms: C_2  and  O_3
REMARK    2  A    between atoms: C_2  and  C_4
REMARK    3  A    between atoms: N_6  and  C_7
REMARK    4  A    between atoms: C_7  and  C_8
REMARK    5  A    between atoms: C_8  and  O_9
REMARK    6  A    between atoms: O_9  and  C_10
REMARK    7  A    between atoms: C_10  and  C_11
REMARK    8  A    between atoms: C_10  and  C_18
REMARK    9  A    between atoms: C_27  and  O_28
REMARK                            x       y       z     vdW  Elec       q    Type
REMARK                         _______ _______ _______ _____ _____    ______ ____
ROOT
ATOM      1  O   UNL     1       1.187   9.347  18.259  0.00  0.00    +0.000 OA
ENDROOT
BRANCH   1   2
ATOM      2  C   UNL     1       2.038   8.426  18.942  0.00  0.00    +0.000 C 
BRANCH   2   3
ATOM      3  C   UNL     1       2.885   7.555  17.994  0.00  0.00    +0.000 C 
BRANCH   3   6
ATOM      4  C   UNL     1       2.902   3.936  19.032  0.00  0.00    +0.000 C 
ATOM      5  C   UNL     1       2.497   5.178  18.237  0.00  0.00    +0.000 C 
ATOM      6  N   UNL     1       3.389   6.309  18.600  0.00  0.00    +0.000 NA
ATOM      7  C   UNL     1       4.777   6.013  18.195  0.00  0.00    +0.000 C 
ATOM      8  C   UNL     1       5.292   4.780  18.933  0.00  0.00    +0.000 C 
ATOM      9  C   UNL     1       4.362   3.589  18.730  0.00  0.00    +0.000 C 
BRANCH   4  11
ATOM     10  O   UNL     1       2.860   3.206  21.331  0.00  0.00    +0.000 OA
ATOM     11  C   UNL     1       2.653   4.102  20.523  0.00  0.00    +0.000 C 
BRANCH  11  12
ATOM     12  O   UNL     1       2.272   5.334  20.928  0.00  0.00    +0.000 OA
ATOM     13  H   UNL     1       1.960   5.341  21.866  0.00  0.00    +0.000 HD
ENDBRANCH  11  12
ENDBRANCH   4  11
BRANCH   9  14
ATOM     14  O   UNL     1       4.836   2.462  19.454  0.00  0.00    +0.000 OA
ATOM     15  H   UNL     1       5.722   2.657  19.818  0.00  0.00    +0.000 HD
ENDBRANCH   9  14
ENDBRANCH   3   6
ENDBRANCH   2   3
ENDBRANCH   1   2
BRANCH   1  16
ATOM     16  C   UNL     1       0.532  10.319  19.086  0.00  0.00    +0.000 C 
BRANCH  16  17
ATOM     17  C   UNL     1       1.373  11.573  19.270  0.00  0.00    +0.000 A 
ATOM     18  C   UNL     1       1.405  12.250  20.501  0.00  0.00    +0.000 A 
ATOM     19  C   UNL     1       2.150  13.421  20.651  0.00  0.00    +0.000 A 
ATOM     20  C   UNL     1       2.858  13.935  19.567  0.00  0.00    +0.000 A 
ATOM     21 CL   UNL     1       3.761  15.387  19.749  0.00  0.00    +0.000 Cl
ATOM     22  C   UNL     1       2.831  13.283  18.337  0.00  0.00    +0.000 A 
ATOM     23  C   UNL     1       2.096  12.105  18.189  0.00  0.00    +0.000 A 
ENDBRANCH  16  17
BRANCH  16  24
ATOM     24  C   UNL     1      -0.844  10.613  18.509  0.00  0.00    +0.000 A 
ATOM     25  C   UNL     1      -1.310   9.869  17.414  0.00  0.00    +0.000 A 
ATOM     26  C   UNL     1      -2.593  10.086  16.902  0.00  0.00    +0.000 A 
ATOM     27  C   UNL     1      -3.415  11.044  17.487  0.00  0.00    +0.000 A 
ATOM     28 CL   UNL     1      -5.007  11.284  16.878  0.00  0.00    +0.000 Cl
ATOM     29  C   UNL     1      -2.967  11.801  18.563  0.00  0.00    +0.000 A 
ATOM     30  C   UNL     1      -1.683  11.592  19.071  0.00  0.00    +0.000 A 
ENDBRANCH  16  24
ENDBRANCH   1  16
TORSDOF 9
ENDMDL
MODEL 5
REMARK VINA RESULT:      -7.2      4.028      8.267
REMARK  Name = 
REMARK  9 active torsions:
REMARK  status: ('A' for Active; 'I' for Inactive)
REMARK    1  A    between atoms: C_2  and  O_3
REMARK    2  A    between atoms: C_2  and  C_4
REMARK    3  A    between atoms: N_6  and  C_7
REMARK    4  A    between atoms: C_7  and  C_8
REMARK    5  A    between atoms: C_8  and  O_9
REMARK    6  A    between atoms: O_9  and  C_10
REMARK    7  A    between atoms: C_10  and  C_11
REMARK    8  A    between atoms: C_10  and  C_18
REMARK    9  A    between atoms: C_27  and  O_28
REMARK                            x       y       z     vdW  Elec       q    Type
REMARK                         _______ _______ _______ _____ _____    ______ ____
ROOT
ATOM      1  O   UNL     1       1.214   9.162  18.274  0.00  0.00    +0.000 OA
ENDROOT
BRANCH   1   2
ATOM      2  C   UNL     1       1.964   8.170  18.975  0.00  0.00    +0.000 C 
BRANCH   2   3
ATOM      3  C   UNL     1       2.889   7.342  18.063  0.00  0.00    +0.000 C 
BRANCH   3   6
ATOM      4  C   UNL     1       1.438   3.875  18.268  0.00  0.00    +0.000 C 
ATOM      5  C   UNL     1       1.562   5.332  17.823  0.00  0.00    +0.000 C 
ATOM      6  N   UNL     1       2.849   5.890  18.312  0.00  0.00    +0.000 NA
ATOM      7  C   UNL     1       3.982   5.184  17.683  0.00  0.00    +0.000 C 
ATOM      8  C   UNL     1       3.959   3.704  18.062  0.00  0.00    +0.000 C 
ATOM      9  C   UNL     1       2.617   3.069  17.718  0.00  0.00    +0.000 C 
BRANCH   4  11
ATOM     10  O   UNL     1       1.252   2.660  20.345  0.00  0.00    +0.000 OA
ATOM     11  C   UNL     1       1.313   3.744  19.779  0.00  0.00    +0.000 C 
BRANCH  11  12
ATOM     12  O   UNL     1       1.365   4.898  20.481  0.00  0.00    +0.000 OA
ATOM     13  H   UNL     1       0.490   5.136  20.874  0.00  0.00    +0.000 HD
ENDBRANCH  11  12
ENDBRANCH   4  11
BRANCH   9  14
ATOM     14  O   UNL     1       2.601   1.704  18.112  0.00  0.00    +0.000 OA
ATOM     15  H   UNL     1       2.142   1.173  17.431  0.00  0.00    +0.000 HD
ENDBRANCH   9  14
ENDBRANCH   3   6
ENDBRANCH   2   3
ENDBRANCH   1   2
BRANCH   1  16
ATOM     16  C   UNL     1       0.542  10.129  19.094  0.00  0.00    +0.000 C 
BRANCH  16  17
ATOM     17  C   UNL     1       1.363  11.398  19.269  0.00  0.00    +0.000 A 
ATOM     18  C   UNL     1       1.405  12.070  20.502  0.00  0.00    +0.000 A 
ATOM     19  C   UNL     1       2.130  13.255  20.644  0.00  0.00    +0.000 A 
ATOM     20  C   UNL     1       2.808  13.786  19.549  0.00  0.00    +0.000 A 
ATOM     21 CL   UNL     1       3.687  15.255  19.721  0.00  0.00    +0.000 Cl
ATOM     22  C   UNL     1       2.771  13.140  18.317  0.00  0.00    +0.000 A 
ATOM     23  C   UNL     1       2.056  11.949  18.177  0.00  0.00    +0.000 A 
ENDBRANCH  16  17
BRANCH  16  24
ATOM     24  C   UNL     1      -0.838  10.396  18.515  0.00  0.00    +0.000 A 
ATOM     25  C   UNL     1      -1.678  11.337  19.132  0.00  0.00    +0.000 A 
ATOM     26  C   UNL     1      -2.929  11.637  18.585  0.00  0.00    +0.000 A 
ATOM     27  C   UNL     1      -3.342  11.001  17.419  0.00  0.00    +0.000 A 
ATOM     28 CL   UNL     1      -4.869  11.400  16.729  0.00  0.00    +0.000 Cl
ATOM     29  C   UNL     1      -2.531  10.056  16.801  0.00  0.00    +0.000 A 
ATOM     30  C   UNL     1      -1.284   9.749  17.350  0.00  0.00    +0.000 A 
ENDBRANCH  16  24
ENDBRANCH   1  16
TORSDOF 9
ENDMDL
MODEL 6
REMARK VINA RESULT:      -7.2      1.880      5.047
REMARK  Name = 
REMARK  9 active torsions:
REMARK  status: ('A' for Active; 'I' for Inactive)
REMARK    1  A    between atoms: C_2  and  O_3
REMARK    2  A    between atoms: C_2  and  C_4
REMARK    3  A    between atoms: N_6  and  C_7
REMARK    4  A    between atoms: C_7  and  C_8
REMARK    5  A    between atoms: C_8  and  O_9
REMARK    6  A    between atoms: O_9  and  C_10
REMARK    7  A    between atoms: C_10  and  C_11
REMARK    8  A    between atoms: C_10  and  C_18
REMARK    9  A    between atoms: C_27  and  O_28
REMARK                            x       y       z     vdW  Elec       q    Type
REMARK                         _______ _______ _______ _____ _____    ______ ____
ROOT
ATOM      1  O   UNL     1       2.325   7.277  17.598  0.00  0.00    +0.000 OA
ENDROOT
BRANCH   1   2
ATOM      2  C   UNL     1       2.456   8.675  17.860  0.00  0.00    +0.000 C 
BRANCH   2   3
ATOM      3  C   UNL     1       1.111   9.377  18.130  0.00  0.00    +0.000 C 
BRANCH   3   6
ATOM      4  C   UNL     1      -0.629  10.878  21.112  0.00  0.00    +0.000 C 
ATOM      5  C   UNL     1      -0.487  10.251  19.725  0.00  0.00    +0.000 C 
ATOM      6  N   UNL     1       0.915   9.798  19.529  0.00  0.00    +0.000 NA
ATOM      7  C   UNL     1       1.241   8.723  20.486  0.00  0.00    +0.000 C 
ATOM      8  C   UNL     1       1.132   9.240  21.919  0.00  0.00    +0.000 C 
ATOM      9  C   UNL     1      -0.240   9.852  22.180  0.00  0.00    +0.000 C 
BRANCH   4  11
ATOM     10  O   UNL     1       0.112  12.878  22.239  0.00  0.00    +0.000 OA
ATOM     11  C   UNL     1       0.168  12.167  21.245  0.00  0.00    +0.000 C 
BRANCH  11  12
ATOM     12  O   UNL     1       1.018  12.446  20.232  0.00  0.00    +0.000 OA
ATOM     13  H   UNL     1       0.547  12.757  19.421  0.00  0.00    +0.000 HD
ENDBRANCH  11  12
ENDBRANCH   4  11
BRANCH   9  14
ATOM     14  O   UNL     1      -0.311  10.361  23.504  0.00  0.00    +0.000 OA
ATOM     15  H   UNL     1       0.356  11.066  23.619  0.00  0.00    +0.000 HD
ENDBRANCH   9  14
ENDBRANCH   3   6
ENDBRANCH   2   3
ENDBRANCH   1   2
BRANCH   1  16
ATOM     16  C   UNL     1       3.326   6.437  18.190  0.00  0.00    +0.000 C 
BRANCH  16  17
ATOM     17  C   UNL     1       2.726   5.429  19.159  0.00  0.00    +0.000 A 
ATOM     18  C   UNL     1       3.371   5.111  20.366  0.00  0.00    +0.000 A 
ATOM     19  C   UNL     1       2.833   4.157  21.232  0.00  0.00    +0.000 A 
ATOM     20  C   UNL     1       1.652   3.501  20.891  0.00  0.00    +0.000 A 
ATOM     21 CL   UNL     1       1.000   2.314  21.951  0.00  0.00    +0.000 Cl
ATOM     22  C   UNL     1       1.003   3.796  19.695  0.00  0.00    +0.000 A 
ATOM     23  C   UNL     1       1.534   4.759  18.834  0.00  0.00    +0.000 A 
ENDBRANCH  16  17
BRANCH  16  24
ATOM     24  C   UNL     1       4.138   5.780  17.085  0.00  0.00    +0.000 A 
ATOM     25  C   UNL     1       4.856   6.580  16.183  0.00  0.00    +0.000 A 
ATOM     26  C   UNL     1       5.652   5.996  15.193  0.00  0.00    +0.000 A 
ATOM     27  C   UNL     1       5.735   4.610  15.105  0.00  0.00    +0.000 A 
ATOM     28 CL   UNL     1       6.744   3.893  13.908  0.00  0.00    +0.000 Cl
ATOM     29  C   UNL     1       5.019   3.800  15.980  0.00  0.00    +0.000 A 
ATOM     30  C   UNL     1       4.217   4.382  16.964  0.00  0.00    +0.000 A 
ENDBRANCH  16  24
ENDBRANCH   1  16
TORSDOF 9
ENDMDL
MODEL 7
REMARK VINA RESULT:      -7.1      1.131      2.018
REMARK  Name = 
REMARK  9 active torsions:
REMARK  status: ('A' for Active; 'I' for Inactive)
REMARK    1  A    between atoms: C_2  and  O_3
REMARK    2  A    between atoms: C_2  and  C_4
REMARK    3  A    between atoms: N_6  and  C_7
REMARK    4  A    between atoms: C_7  and  C_8
REMARK    5  A    between atoms: C_8  and  O_9
REMARK    6  A    between atoms: O_9  and  C_10
REMARK    7  A    between atoms: C_10  and  C_11
REMARK    8  A    between atoms: C_10  and  C_18
REMARK    9  A    between atoms: C_27  and  O_28
REMARK                            x       y       z     vdW  Elec       q    Type
REMARK                         _______ _______ _______ _____ _____    ______ ____
ROOT
ATOM      1  O   UNL     1       2.770   7.580  18.810  0.00  0.00    +0.000 OA
ENDROOT
BRANCH   1   2
ATOM      2  C   UNL     1       1.702   8.521  18.693  0.00  0.00    +0.000 C 
BRANCH   2   3
ATOM      3  C   UNL     1       1.159   9.006  20.051  0.00  0.00    +0.000 C 
BRANCH   3   6
ATOM      4  C   UNL     1      -1.047  11.672  18.568  0.00  0.00    +0.000 C 
ATOM      5  C   UNL     1      -0.412  10.290  18.732  0.00  0.00    +0.000 C 
ATOM      6  N   UNL     1       0.386  10.259  19.984  0.00  0.00    +0.000 NA
ATOM      7  C   UNL     1      -0.497  10.432  21.155  0.00  0.00    +0.000 C 
ATOM      8  C   UNL     1      -1.190  11.792  21.098  0.00  0.00    +0.000 C 
ATOM      9  C   UNL     1      -1.933  11.975  19.779  0.00  0.00    +0.000 C 
BRANCH   4  11
ATOM     10  O   UNL     1      -0.273  13.951  18.401  0.00  0.00    +0.000 OA
ATOM     11  C   UNL     1      -0.007  12.758  18.338  0.00  0.00    +0.000 C 
BRANCH  11  12
ATOM     12  O   UNL     1       1.262  12.334  18.144  0.00  0.00    +0.000 OA
ATOM     13  H   UNL     1       1.903  13.084  18.083  0.00  0.00    +0.000 HD
ENDBRANCH  11  12
ENDBRANCH   4  11
BRANCH   9  14
ATOM     14  O   UNL     1      -2.540  13.259  19.727  0.00  0.00    +0.000 OA
ATOM     15  H   UNL     1      -3.511  13.160  19.698  0.00  0.00    +0.000 HD
ENDBRANCH   9  14
ENDBRANCH   3   6
ENDBRANCH   2   3
ENDBRANCH   1   2
BRANCH   1  16
ATOM     16  C   UNL     1       2.556   6.313  18.174  0.00  0.00    +0.000 C 
BRANCH  16  17
ATOM     17  C   UNL     1       3.753   5.882  17.340  0.00  0.00    +0.000 A 
ATOM     18  C   UNL     1       4.658   6.827  16.827  0.00  0.00    +0.000 A 
ATOM     19  C   UNL     1       5.732   6.426  16.031  0.00  0.00    +0.000 A 
ATOM     20  C   UNL     1       5.904   5.077  15.729  0.00  0.00    +0.000 A 
ATOM     21 CL   UNL     1       7.219   4.587  14.734  0.00  0.00    +0.000 Cl
ATOM     22  C   UNL     1       5.013   4.127  16.220  0.00  0.00    +0.000 A 
ATOM     23  C   UNL     1       3.944   4.525  17.025  0.00  0.00    +0.000 A 
ENDBRANCH  16  17
BRANCH  16  24
ATOM     24  C   UNL     1       2.174   5.287  19.229  0.00  0.00    +0.000 A 
ATOM     25  C   UNL     1       1.280   4.256  18.901  0.00  0.00    +0.000 A 
ATOM     26  C   UNL     1       0.957   3.271  19.840  0.00  0.00    +0.000 A 
ATOM     27  C   UNL     1       1.530   3.312  21.106  0.00  0.00    +0.000 A 
ATOM     28 CL   UNL     1       1.159   2.077  22.248  0.00  0.00    +0.000 Cl
ATOM     29  C   UNL     1       2.407   4.333  21.455  0.00  0.00    +0.000 A 
ATOM     30  C   UNL     1       2.724   5.322  20.522  0.00  0.00    +0.000 A 
ENDBRANCH  16  24
ENDBRANCH   1  16
TORSDOF 9
ENDMDL
MODEL 8
REMARK VINA RESULT:      -7.1      1.275      2.515
REMARK  Name = 
REMARK  9 active torsions:
REMARK  status: ('A' for Active; 'I' for Inactive)
REMARK    1  A    between atoms: C_2  and  O_3
REMARK    2  A    between atoms: C_2  and  C_4
REMARK    3  A    between atoms: N_6  and  C_7
REMARK    4  A    between atoms: C_7  and  C_8
REMARK    5  A    between atoms: C_8  and  O_9
REMARK    6  A    between atoms: O_9  and  C_10
REMARK    7  A    between atoms: C_10  and  C_11
REMARK    8  A    between atoms: C_10  and  C_18
REMARK    9  A    between atoms: C_27  and  O_28
REMARK                            x       y       z     vdW  Elec       q    Type
REMARK                         _______ _______ _______ _____ _____    ______ ____
ROOT
ATOM      1  O   UNL     1       2.741   7.560  18.846  0.00  0.00    +0.000 OA
ENDROOT
BRANCH   1   2
ATOM      2  C   UNL     1       1.753   8.559  18.590  0.00  0.00    +0.000 C 
BRANCH   2   3
ATOM      3  C   UNL     1       1.106   9.124  19.869  0.00  0.00    +0.000 C 
BRANCH   3   6
ATOM      4  C   UNL     1       1.098  12.745  18.840  0.00  0.00    +0.000 C 
ATOM      5  C   UNL     1       1.486  11.266  18.808  0.00  0.00    +0.000 C 
ATOM      6  N   UNL     1       0.614  10.507  19.741  0.00  0.00    +0.000 NA
ATOM      7  C   UNL     1      -0.789  10.561  19.285  0.00  0.00    +0.000 C 
ATOM      8  C   UNL     1      -1.288  12.005  19.278  0.00  0.00    +0.000 C 
ATOM      9  C   UNL     1      -0.373  12.898  18.446  0.00  0.00    +0.000 C 
BRANCH   4  11
ATOM     10  O   UNL     1       1.115  14.553  20.438  0.00  0.00    +0.000 OA
ATOM     11  C   UNL     1       1.398  13.389  20.185  0.00  0.00    +0.000 C 
BRANCH  11  12
ATOM     12  O   UNL     1       1.918  12.574  21.130  0.00  0.00    +0.000 OA
ATOM     13  H   UNL     1       2.854  12.804  21.349  0.00  0.00    +0.000 HD
ENDBRANCH  11  12
ENDBRANCH   4  11
BRANCH   9  14
ATOM     14  O   UNL     1      -0.830  14.243  18.481  0.00  0.00    +0.000 OA
ATOM     15  H   UNL     1      -1.003  14.553  17.571  0.00  0.00    +0.000 HD
ENDBRANCH   9  14
ENDBRANCH   3   6
ENDBRANCH   2   3
ENDBRANCH   1   2
BRANCH   1  16
ATOM     16  C   UNL     1       2.530   6.297  18.201  0.00  0.00    +0.000 C 
BRANCH  16  17
ATOM     17  C   UNL     1       3.730   5.874  17.365  0.00  0.00    +0.000 A 
ATOM     18  C   UNL     1       4.630   6.825  16.856  0.00  0.00    +0.000 A 
ATOM     19  C   UNL     1       5.706   6.432  16.058  0.00  0.00    +0.000 A 
ATOM     20  C   UNL     1       5.884   5.085  15.751  0.00  0.00    +0.000 A 
ATOM     21 CL   UNL     1       7.202   4.605  14.756  0.00  0.00    +0.000 Cl
ATOM     22  C   UNL     1       4.998   4.129  16.240  0.00  0.00    +0.000 A 
ATOM     23  C   UNL     1       3.928   4.520  17.047  0.00  0.00    +0.000 A 
ENDBRANCH  16  17
BRANCH  16  24
ATOM     24  C   UNL     1       2.149   5.262  19.248  0.00  0.00    +0.000 A 
ATOM     25  C   UNL     1       1.278   4.218  18.905  0.00  0.00    +0.000 A 
ATOM     26  C   UNL     1       0.957   3.226  19.837  0.00  0.00    +0.000 A 
ATOM     27  C   UNL     1       1.510   3.274  21.112  0.00  0.00    +0.000 A 
ATOM     28 CL   UNL     1       1.142   2.031  22.246  0.00  0.00    +0.000 Cl
ATOM     29  C   UNL     1       2.365   4.309  21.477  0.00  0.00    +0.000 A 
ATOM     30  C   UNL     1       2.680   5.305  20.549  0.00  0.00    +0.000 A 
ENDBRANCH  16  24
ENDBRANCH   1  16
TORSDOF 9
ENDMDL
MODEL 9
REMARK VINA RESULT:      -7.0      0.565      1.436
REMARK  Name = 
REMARK  9 active torsions:
REMARK  status: ('A' for Active; 'I' for Inactive)
REMARK    1  A    between atoms: C_2  and  O_3
REMARK    2  A    between atoms: C_2  and  C_4
REMARK    3  A    between atoms: N_6  and  C_7
REMARK    4  A    between atoms: C_7  and  C_8
REMARK    5  A    between atoms: C_8  and  O_9
REMARK    6  A    between atoms: O_9  and  C_10
REMARK    7  A    between atoms: C_10  and  C_11
REMARK    8  A    between atoms: C_10  and  C_18
REMARK    9  A    between atoms: C_27  and  O_28
REMARK                            x       y       z     vdW  Elec       q    Type
REMARK                         _______ _______ _______ _____ _____    ______ ____
ROOT
ATOM      1  O   UNL     1       2.513   7.479  18.558  0.00  0.00    +0.000 OA
ENDROOT
BRANCH   1   2
ATOM      2  C   UNL     1       1.815   8.500  17.845  0.00  0.00    +0.000 C 
BRANCH   2   3
ATOM      3  C   UNL     1       2.017   9.908  18.435  0.00  0.00    +0.000 C 
BRANCH   3   6
ATOM      4  C   UNL     1      -1.575  10.881  19.002  0.00  0.00    +0.000 C 
ATOM      5  C   UNL     1      -0.272  10.106  19.198  0.00  0.00    +0.000 C 
ATOM      6  N   UNL     1       0.811  10.755  18.415  0.00  0.00    +0.000 NA
ATOM      7  C   UNL     1       1.073  12.112  18.935  0.00  0.00    +0.000 C 
ATOM      8  C   UNL     1      -0.173  12.984  18.788  0.00  0.00    +0.000 C 
ATOM      9  C   UNL     1      -1.382  12.331  19.451  0.00  0.00    +0.000 C 
BRANCH   4  11
ATOM     10  O   UNL     1      -2.799   9.875  17.182  0.00  0.00    +0.000 OA
ATOM     11  C   UNL     1      -2.088  10.791  17.572  0.00  0.00    +0.000 C 
BRANCH  11  12
ATOM     12  O   UNL     1      -1.788  11.835  16.767  0.00  0.00    +0.000 OA
ATOM     13  H   UNL     1      -2.565  12.424  16.612  0.00  0.00    +0.000 HD
ENDBRANCH  11  12
ENDBRANCH   4  11
BRANCH   9  14
ATOM     14  O   UNL     1      -2.538  13.137  19.273  0.00  0.00    +0.000 OA
ATOM     15  H   UNL     1      -2.278  14.078  19.236  0.00  0.00    +0.000 HD
ENDBRANCH   9  14
ENDBRANCH   3   6
ENDBRANCH   2   3
ENDBRANCH   1   2
BRANCH   1  16
ATOM     16  C   UNL     1       2.431   6.161  17.998  0.00  0.00    +0.000 C 
BRANCH  16  17
ATOM     17  C   UNL     1       3.697   5.781  17.244  0.00  0.00    +0.000 A 
ATOM     18  C   UNL     1       4.544   6.765  16.706  0.00  0.00    +0.000 A 
ATOM     19  C   UNL     1       5.683   6.407  15.983  0.00  0.00    +0.000 A 
ATOM     20  C   UNL     1       5.979   5.061  15.779  0.00  0.00    +0.000 A 
ATOM     21 CL   UNL     1       7.374   4.622  14.874  0.00  0.00    +0.000 Cl
ATOM     22  C   UNL     1       5.147   4.072  16.296  0.00  0.00    +0.000 A 
ATOM     23  C   UNL     1       4.013   4.428  17.029  0.00  0.00    +0.000 A 
ENDBRANCH  16  17
BRANCH  16  24
ATOM     24  C   UNL     1       2.085   5.173  19.101  0.00  0.00    +0.000 A 
ATOM     25  C   UNL     1       1.315   4.040  18.799  0.00  0.00    +0.000 A 
ATOM     26  C   UNL     1       1.030   3.091  19.787  0.00  0.00    +0.000 A 
ATOM     27  C   UNL     1       1.519   3.272  21.076  0.00  0.00    +0.000 A 
ATOM     28 CL   UNL     1       1.198   2.084  22.281  0.00  0.00    +0.000 Cl
ATOM     29  C   UNL     1       2.272   4.396  21.399  0.00  0.00    +0.000 A 
ATOM     30  C   UNL     1       2.550   5.348  20.416  0.00  0.00    +0.000 A 
ENDBRANCH  16  24
ENDBRANCH   1  16
TORSDOF 9
ENDMDL
