MODEL 1
REMARK VINA RESULT:      -8.2      0.000      0.000
REMARK  Name = 
REMARK  8 active torsions:
REMARK  status: ('A' for Active; 'I' for Inactive)
REMARK    1  A    between atoms: C_1  and  C_2
REMARK    2  A    between atoms: C_2  and  O_3
REMARK    3  A    between atoms: O_3  and  C_4
REMARK    4  A    between atoms: C_4  and  C_6
REMARK    5  A    between atoms: N_10  and  C_11
REMARK    6  A    between atoms: C_16  and  O_17
REMARK    7  A    between atoms: O_17  and  C_18
REMARK    8  A    between atoms: C_21  and  N_22
REMARK                            x       y       z     vdW  Elec       q    Type
REMARK                         _______ _______ _______ _____ _____    ______ ____
ROOT
ATOM      1  C   UNL     1       3.856   5.187  18.282  0.00  0.00    +0.000 A 
ATOM      2  C   UNL     1       3.842   4.127  17.348  0.00  0.00    +0.000 A 
ATOM      3  C   UNL     1       2.728   3.318  17.136  0.00  0.00    +0.000 A 
ATOM      4  C   UNL     1       1.581   3.611  17.830  0.00  0.00    +0.000 A 
ATOM      5  N   UNL     1       1.480   4.657  18.664  0.00  0.00    +0.000 NA
ATOM      6  C   UNL     1       2.604   5.390  18.920  0.00  0.00    +0.000 A 
ENDROOT
BRANCH   1  11
ATOM      7  C   UNL     1       6.589   6.390  16.689  0.00  0.00    +0.000 C 
ATOM      8  C   UNL     1       7.560   5.334  17.248  0.00  0.00    +0.000 C 
ATOM      9  C   UNL     1       7.101   4.527  18.473  0.00  0.00    +0.000 C 
ATOM     10  C   UNL     1       6.108   5.264  19.368  0.00  0.00    +0.000 C 
ATOM     11  N   UNL     1       5.050   5.864  18.546  0.00  0.00    +0.000 N 
ATOM     12  C   UNL     1       5.570   6.931  17.686  0.00  0.00    +0.000 C 
BRANCH   7  13
ATOM     13  C   UNL     1       5.939   6.201  15.328  0.00  0.00    +0.000 C 
ATOM     14  O   UNL     1       4.868   6.745  15.070  0.00  0.00    +0.000 OA
BRANCH  13  15
ATOM     15  O   UNL     1       6.583   5.370  14.469  0.00  0.00    +0.000 OA
BRANCH  15  17
ATOM     16  C   UNL     1       6.021   3.557  12.894  0.00  0.00    +0.000 C 
ATOM     17  C   UNL     1       5.967   4.067  14.327  0.00  0.00    +0.000 C 
ENDBRANCH  15  17
ENDBRANCH  13  15
ENDBRANCH   7  13
ENDBRANCH   1  11
BRANCH   6  18
ATOM     18  O   UNL     1       2.457   6.415  19.848  0.00  0.00    +0.000 OA
BRANCH  18  19
ATOM     19  C   UNL     1       2.073   7.683  19.453  0.00  0.00    +0.000 A 
ATOM     20  C   UNL     1       2.089   8.163  18.145  0.00  0.00    +0.000 A 
ATOM     21  C   UNL     1       1.527   9.397  17.839  0.00  0.00    +0.000 A 
ATOM     22  C   UNL     1       0.816  10.119  18.803  0.00  0.00    +0.000 A 
ATOM     23  C   UNL     1       0.917   9.724  20.137  0.00  0.00    +0.000 A 
ATOM     24  C   UNL     1       1.535   8.503  20.457  0.00  0.00    +0.000 A 
BRANCH  22  25
ATOM     25  N   UNL     1      -0.060  11.162  18.420  0.00  0.00    +0.000 N 
ATOM     26  C   UNL     1      -1.346  10.925  17.875  0.00  0.00    +0.000 A 
ATOM     27  C   UNL     1      -2.106   9.837  18.337  0.00  0.00    +0.000 A 
ATOM     28  C   UNL     1      -3.271   9.479  17.681  0.00  0.00    +0.000 A 
ATOM     29  C   UNL     1      -3.712  10.266  16.631  0.00  0.00    +0.000 A 
ATOM     30  C   UNL     1      -2.960  11.384  16.298  0.00  0.00    +0.000 A 
ATOM     31  N   UNL     1      -1.785  11.723  16.895  0.00  0.00    +0.000 NA
ATOM     32  H   UNL     1       0.392  11.902  17.891  0.00  0.00    +0.000 HD
ENDBRANCH  22  25
ENDBRANCH  18  19
ENDBRANCH   6  18
TORSDOF 7
ENDMDL
MODEL 2
REMARK VINA RESULT:      -8.1      1.629      2.315
REMARK  Name = 
REMARK  8 active torsions:
REMARK  status: ('A' for Active; 'I' for Inactive)
REMARK    1  A    between atoms: C_1  and  C_2
REMARK    2  A    between atoms: C_2  and  O_3
REMARK    3  A    between atoms: O_3  and  C_4
REMARK    4  A    between atoms: C_4  and  C_6
REMARK    5  A    between atoms: N_10  and  C_11
REMARK    6  A    between atoms: C_16  and  O_17
REMARK    7  A    between atoms: O_17  and  C_18
REMARK    8  A    between atoms: C_21  and  N_22
REMARK                            x       y       z     vdW  Elec       q    Type
REMARK                         _______ _______ _______ _____ _____    ______ ____
ROOT
ATOM      1  C   UNL     1       3.929   5.158  18.246  0.00  0.00    +0.000 A 
ATOM      2  C   UNL     1       3.929   4.101  17.310  0.00  0.00    +0.000 A 
ATOM      3  C   UNL     1       2.826   3.275  17.099  0.00  0.00    +0.000 A 
ATOM      4  C   UNL     1       1.678   3.548  17.797  0.00  0.00    +0.000 A 
ATOM      5  N   UNL     1       1.564   4.590  18.635  0.00  0.00    +0.000 NA
ATOM      6  C   UNL     1       2.676   5.340  18.889  0.00  0.00    +0.000 A 
ENDROOT
BRANCH   1  11
ATOM      7  C   UNL     1       6.717   6.262  16.677  0.00  0.00    +0.000 C 
ATOM      8  C   UNL     1       7.667   5.245  17.335  0.00  0.00    +0.000 C 
ATOM      9  C   UNL     1       7.165   4.517  18.592  0.00  0.00    +0.000 C 
ATOM     10  C   UNL     1       6.142   5.308  19.404  0.00  0.00    +0.000 C 
ATOM     11  N   UNL     1       5.113   5.852  18.508  0.00  0.00    +0.000 N 
ATOM     12  C   UNL     1       5.664   6.864  17.601  0.00  0.00    +0.000 C 
BRANCH   7  13
ATOM     13  C   UNL     1       6.115   5.985  15.308  0.00  0.00    +0.000 C 
ATOM     14  O   UNL     1       5.049   6.502  14.983  0.00  0.00    +0.000 OA
BRANCH  13  15
ATOM     15  O   UNL     1       6.793   5.110  14.523  0.00  0.00    +0.000 OA
BRANCH  15  17
ATOM     16  C   UNL     1       6.220   3.613  12.649  0.00  0.00    +0.000 C 
ATOM     17  C   UNL     1       6.024   3.952  14.120  0.00  0.00    +0.000 C 
ENDBRANCH  15  17
ENDBRANCH  13  15
ENDBRANCH   7  13
ENDBRANCH   1  11
BRANCH   6  18
ATOM     18  O   UNL     1       2.517   6.359  19.821  0.00  0.00    +0.000 OA
BRANCH  18  19
ATOM     19  C   UNL     1       2.146   7.632  19.427  0.00  0.00    +0.000 A 
ATOM     20  C   UNL     1       2.261   8.146  18.137  0.00  0.00    +0.000 A 
ATOM     21  C   UNL     1       1.706   9.379  17.817  0.00  0.00    +0.000 A 
ATOM     22  C   UNL     1       0.907  10.065  18.736  0.00  0.00    +0.000 A 
ATOM     23  C   UNL     1       0.905   9.638  20.064  0.00  0.00    +0.000 A 
ATOM     24  C   UNL     1       1.514   8.417  20.403  0.00  0.00    +0.000 A 
BRANCH  22  25
ATOM     25  N   UNL     1       0.049  11.105  18.308  0.00  0.00    +0.000 N 
ATOM     26  C   UNL     1       0.342  12.477  18.513  0.00  0.00    +0.000 A 
ATOM     27  C   UNL     1       1.673  12.921  18.435  0.00  0.00    +0.000 A 
ATOM     28  C   UNL     1       1.995  14.209  18.824  0.00  0.00    +0.000 A 
ATOM     29  C   UNL     1       0.974  15.068  19.196  0.00  0.00    +0.000 A 
ATOM     30  C   UNL     1      -0.326  14.587  19.150  0.00  0.00    +0.000 A 
ATOM     31  N   UNL     1      -0.660  13.309  18.822  0.00  0.00    +0.000 NA
ATOM     32  H   UNL     1      -0.930  10.942  18.521  0.00  0.00    +0.000 HD
ENDBRANCH  22  25
ENDBRANCH  18  19
ENDBRANCH   6  18
TORSDOF 7
ENDMDL
MODEL 3
REMARK VINA RESULT:      -7.8      1.799      2.865
REMARK  Name = 
REMARK  8 active torsions:
REMARK  status: ('A' for Active; 'I' for Inactive)
REMARK    1  A    between atoms: C_1  and  C_2
REMARK    2  A    between atoms: C_2  and  O_3
REMARK    3  A    between atoms: O_3  and  C_4
REMARK    4  A    between atoms: C_4  and  C_6
REMARK    5  A    between atoms: N_10  and  C_11
REMARK    6  A    between atoms: C_16  and  O_17
REMARK    7  A    between atoms: O_17  and  C_18
REMARK    8  A    between atoms: C_21  and  N_22
REMARK                            x       y       z     vdW  Elec       q    Type
REMARK                         _______ _______ _______ _____ _____    ______ ____
ROOT
ATOM      1  C   UNL     1       4.053   5.323  18.180  0.00  0.00    +0.000 A 
ATOM      2  C   UNL     1       3.883   4.143  17.423  0.00  0.00    +0.000 A 
ATOM      3  C   UNL     1       2.701   3.405  17.423  0.00  0.00    +0.000 A 
ATOM      4  C   UNL     1       1.644   3.888  18.151  0.00  0.00    +0.000 A 
ATOM      5  N   UNL     1       1.690   5.048  18.822  0.00  0.00    +0.000 NA
ATOM      6  C   UNL     1       2.879   5.718  18.875  0.00  0.00    +0.000 A 
ENDROOT
BRANCH   1  11
ATOM      7  C   UNL     1       6.847   5.758  16.322  0.00  0.00    +0.000 C 
ATOM      8  C   UNL     1       7.730   4.819  17.165  0.00  0.00    +0.000 C 
ATOM      9  C   UNL     1       7.227   4.442  18.567  0.00  0.00    +0.000 C 
ATOM     10  C   UNL     1       6.326   5.494  19.210  0.00  0.00    +0.000 C 
ATOM     11  N   UNL     1       5.309   5.931  18.245  0.00  0.00    +0.000 N 
ATOM     12  C   UNL     1       5.906   6.655  17.118  0.00  0.00    +0.000 C 
BRANCH   7  13
ATOM     13  C   UNL     1       6.153   5.249  15.069  0.00  0.00    +0.000 C 
ATOM     14  O   UNL     1       5.251   5.905  14.550  0.00  0.00    +0.000 OA
BRANCH  13  15
ATOM     15  O   UNL     1       6.551   4.034  14.616  0.00  0.00    +0.000 OA
BRANCH  15  17
ATOM     16  C   UNL     1       7.069   4.056  12.205  0.00  0.00    +0.000 C 
ATOM     17  C   UNL     1       6.065   3.702  13.293  0.00  0.00    +0.000 C 
ENDBRANCH  15  17
ENDBRANCH  13  15
ENDBRANCH   7  13
ENDBRANCH   1  11
BRANCH   6  18
ATOM     18  O   UNL     1       2.886   6.875  19.646  0.00  0.00    +0.000 OA
BRANCH  18  19
ATOM     19  C   UNL     1       1.998   7.904  19.391  0.00  0.00    +0.000 A 
ATOM     20  C   UNL     1       1.273   8.604  20.353  0.00  0.00    +0.000 A 
ATOM     21  C   UNL     1       0.534   9.728  20.000  0.00  0.00    +0.000 A 
ATOM     22  C   UNL     1       0.610  10.258  18.708  0.00  0.00    +0.000 A 
ATOM     23  C   UNL     1       1.209   9.491  17.709  0.00  0.00    +0.000 A 
ATOM     24  C   UNL     1       1.911   8.323  18.055  0.00  0.00    +0.000 A 
BRANCH  22  25
ATOM     25  N   UNL     1       0.177  11.579  18.446  0.00  0.00    +0.000 N 
ATOM     26  C   UNL     1       1.017  12.709  18.601  0.00  0.00    +0.000 A 
ATOM     27  C   UNL     1       2.384  12.606  18.290  0.00  0.00    +0.000 A 
ATOM     28  C   UNL     1       3.248  13.635  18.621  0.00  0.00    +0.000 A 
ATOM     29  C   UNL     1       2.725  14.792  19.174  0.00  0.00    +0.000 A 
ATOM     30  C   UNL     1       1.352  14.858  19.358  0.00  0.00    +0.000 A 
ATOM     31  N   UNL     1       0.491  13.839  19.089  0.00  0.00    +0.000 NA
ATOM     32  H   UNL     1      -0.738  11.793  18.829  0.00  0.00    +0.000 HD
ENDBRANCH  22  25
ENDBRANCH  18  19
ENDBRANCH   6  18
TORSDOF 7
ENDMDL
MODEL 4
REMARK VINA RESULT:      -7.7      1.384      1.710
REMARK  Name = 
REMARK  8 active torsions:
REMARK  status: ('A' for Active; 'I' for Inactive)
REMARK    1  A    between atoms: C_1  and  C_2
REMARK    2  A    between atoms: C_2  and  O_3
REMARK    3  A    between atoms: O_3  and  C_4
REMARK    4  A    between atoms: C_4  and  C_6
REMARK    5  A    between atoms: N_10  and  C_11
REMARK    6  A    between atoms: C_16  and  O_17
REMARK    7  A    between atoms: O_17  and  C_18
REMARK    8  A    between atoms: C_21  and  N_22
REMARK                            x       y       z     vdW  Elec       q    Type
REMARK                         _______ _______ _______ _____ _____    ______ ____
ROOT
ATOM      1  C   UNL     1       3.871   5.089  18.312  0.00  0.00    +0.000 A 
ATOM      2  C   UNL     1       3.785   3.970  17.455  0.00  0.00    +0.000 A 
ATOM      3  C   UNL     1       2.673   3.131  17.413  0.00  0.00    +0.000 A 
ATOM      4  C   UNL     1       1.598   3.452  18.203  0.00  0.00    +0.000 A 
ATOM      5  N   UNL     1       1.561   4.548  18.974  0.00  0.00    +0.000 NA
ATOM      6  C   UNL     1       2.688   5.315  19.063  0.00  0.00    +0.000 A 
ENDROOT
BRANCH   1  11
ATOM      7  C   UNL     1       6.550   5.958  16.436  0.00  0.00    +0.000 C 
ATOM      8  C   UNL     1       7.541   5.025  17.155  0.00  0.00    +0.000 C 
ATOM      9  C   UNL     1       7.122   4.467  18.525  0.00  0.00    +0.000 C 
ATOM     10  C   UNL     1       6.156   5.365  19.294  0.00  0.00    +0.000 C 
ATOM     11  N   UNL     1       5.071   5.800  18.405  0.00  0.00    +0.000 N 
ATOM     12  C   UNL     1       5.562   6.683  17.342  0.00  0.00    +0.000 C 
BRANCH   7  13
ATOM     13  C   UNL     1       5.860   5.514  15.156  0.00  0.00    +0.000 C 
ATOM     14  O   UNL     1       5.183   6.310  14.509  0.00  0.00    +0.000 OA
BRANCH  13  15
ATOM     15  O   UNL     1       5.998   4.206  14.825  0.00  0.00    +0.000 OA
BRANCH  15  17
ATOM     16  C   UNL     1       5.552   3.464  12.515  0.00  0.00    +0.000 C 
ATOM     17  C   UNL     1       6.576   3.980  13.517  0.00  0.00    +0.000 C 
ENDBRANCH  15  17
ENDBRANCH  13  15
ENDBRANCH   7  13
ENDBRANCH   1  11
BRANCH   6  18
ATOM     18  O   UNL     1       2.615   6.396  19.935  0.00  0.00    +0.000 OA
BRANCH  18  19
ATOM     19  C   UNL     1       2.123   7.617  19.512  0.00  0.00    +0.000 A 
ATOM     20  C   UNL     1       2.215   8.124  18.218  0.00  0.00    +0.000 A 
ATOM     21  C   UNL     1       1.541   9.288  17.866  0.00  0.00    +0.000 A 
ATOM     22  C   UNL     1       0.653   9.898  18.756  0.00  0.00    +0.000 A 
ATOM     23  C   UNL     1       0.663   9.490  20.090  0.00  0.00    +0.000 A 
ATOM     24  C   UNL     1       1.389   8.345  20.462  0.00  0.00    +0.000 A 
BRANCH  22  25
ATOM     25  N   UNL     1      -0.299  10.837  18.294  0.00  0.00    +0.000 N 
ATOM     26  C   UNL     1      -1.102  11.611  19.167  0.00  0.00    +0.000 A 
ATOM     27  C   UNL     1      -0.566  12.066  20.384  0.00  0.00    +0.000 A 
ATOM     28  C   UNL     1      -1.392  12.650  21.328  0.00  0.00    +0.000 A 
ATOM     29  C   UNL     1      -2.723  12.858  21.011  0.00  0.00    +0.000 A 
ATOM     30  C   UNL     1      -3.157  12.474  19.750  0.00  0.00    +0.000 A 
ATOM     31  N   UNL     1      -2.375  11.851  18.827  0.00  0.00    +0.000 NA
ATOM     32  H   UNL     1      -0.876  10.494  17.532  0.00  0.00    +0.000 HD
ENDBRANCH  22  25
ENDBRANCH  18  19
ENDBRANCH   6  18
TORSDOF 7
ENDMDL
MODEL 5
REMARK VINA RESULT:      -7.6      1.539      1.951
REMARK  Name = 
REMARK  8 active torsions:
REMARK  status: ('A' for Active; 'I' for Inactive)
REMARK    1  A    between atoms: C_1  and  C_2
REMARK    2  A    between atoms: C_2  and  O_3
REMARK    3  A    between atoms: O_3  and  C_4
REMARK    4  A    between atoms: C_4  and  C_6
REMARK    5  A    between atoms: N_10  and  C_11
REMARK    6  A    between atoms: C_16  and  O_17
REMARK    7  A    between atoms: O_17  and  C_18
REMARK    8  A    between atoms: C_21  and  N_22
REMARK                            x       y       z     vdW  Elec       q    Type
REMARK                         _______ _______ _______ _____ _____    ______ ____
ROOT
ATOM      1  C   UNL     1       4.378   4.437  18.668  0.00  0.00    +0.000 A 
ATOM      2  C   UNL     1       4.816   3.292  19.369  0.00  0.00    +0.000 A 
ATOM      3  C   UNL     1       3.941   2.362  19.925  0.00  0.00    +0.000 A 
ATOM      4  C   UNL     1       2.596   2.548  19.726  0.00  0.00    +0.000 A 
ATOM      5  N   UNL     1       2.100   3.555  18.994  0.00  0.00    +0.000 NA
ATOM      6  C   UNL     1       2.967   4.501  18.524  0.00  0.00    +0.000 A 
ENDROOT
BRANCH   1  11
ATOM      7  C   UNL     1       6.447   5.155  16.089  0.00  0.00    +0.000 C 
ATOM      8  C   UNL     1       7.746   4.839  16.851  0.00  0.00    +0.000 C 
ATOM      9  C   UNL     1       7.666   4.760  18.384  0.00  0.00    +0.000 C 
ATOM     10  C   UNL     1       6.560   5.616  18.996  0.00  0.00    +0.000 C 
ATOM     11  N   UNL     1       5.305   5.401  18.263  0.00  0.00    +0.000 N 
ATOM     12  C   UNL     1       5.387   5.903  16.888  0.00  0.00    +0.000 C 
BRANCH   7  13
ATOM     13  C   UNL     1       5.792   4.103  15.207  0.00  0.00    +0.000 C 
ATOM     14  O   UNL     1       5.589   2.971  15.639  0.00  0.00    +0.000 OA
BRANCH  13  15
ATOM     15  O   UNL     1       5.511   4.481  13.935  0.00  0.00    +0.000 OA
BRANCH  15  17
ATOM     16  C   UNL     1       4.974   3.216  11.886  0.00  0.00    +0.000 C 
ATOM     17  C   UNL     1       6.028   3.587  12.919  0.00  0.00    +0.000 C 
ENDBRANCH  15  17
ENDBRANCH  13  15
ENDBRANCH   7  13
ENDBRANCH   1  11
BRANCH   6  18
ATOM     18  O   UNL     1       2.388   5.561  17.835  0.00  0.00    +0.000 OA
BRANCH  18  19
ATOM     19  C   UNL     1       2.235   6.799  18.433  0.00  0.00    +0.000 A 
ATOM     20  C   UNL     1       2.212   8.022  17.768  0.00  0.00    +0.000 A 
ATOM     21  C   UNL     1       1.889   9.190  18.449  0.00  0.00    +0.000 A 
ATOM     22  C   UNL     1       1.449   9.147  19.776  0.00  0.00    +0.000 A 
ATOM     23  C   UNL     1       1.606   7.959  20.490  0.00  0.00    +0.000 A 
ATOM     24  C   UNL     1       1.988   6.786  19.815  0.00  0.00    +0.000 A 
BRANCH  22  25
ATOM     25  N   UNL     1       0.773  10.251  20.346  0.00  0.00    +0.000 N 
ATOM     26  C   UNL     1      -0.339  10.874  19.729  0.00  0.00    +0.000 A 
ATOM     27  C   UNL     1      -1.263  10.094  19.011  0.00  0.00    +0.000 A 
ATOM     28  C   UNL     1      -2.237  10.708  18.244  0.00  0.00    +0.000 A 
ATOM     29  C   UNL     1      -2.337  12.089  18.274  0.00  0.00    +0.000 A 
ATOM     30  C   UNL     1      -1.454  12.785  19.086  0.00  0.00    +0.000 A 
ATOM     31  N   UNL     1      -0.455  12.206  19.807  0.00  0.00    +0.000 NA
ATOM     32  H   UNL     1       1.394  10.967  20.709  0.00  0.00    +0.000 HD
ENDBRANCH  22  25
ENDBRANCH  18  19
ENDBRANCH   6  18
TORSDOF 7
ENDMDL
MODEL 6
REMARK VINA RESULT:      -7.4      1.960      2.508
REMARK  Name = 
REMARK  8 active torsions:
REMARK  status: ('A' for Active; 'I' for Inactive)
REMARK    1  A    between atoms: C_1  and  C_2
REMARK    2  A    between atoms: C_2  and  O_3
REMARK    3  A    between atoms: O_3  and  C_4
REMARK    4  A    between atoms: C_4  and  C_6
REMARK    5  A    between atoms: N_10  and  C_11
REMARK    6  A    between atoms: C_16  and  O_17
REMARK    7  A    between atoms: O_17  and  C_18
REMARK    8  A    between atoms: C_21  and  N_22
REMARK                            x       y       z     vdW  Elec       q    Type
REMARK                         _______ _______ _______ _____ _____    ______ ____
ROOT
ATOM      1  C   UNL     1       3.982   5.156  18.100  0.00  0.00    +0.000 A 
ATOM      2  C   UNL     1       3.755   4.073  17.223  0.00  0.00    +0.000 A 
ATOM      3  C   UNL     1       2.608   3.284  17.274  0.00  0.00    +0.000 A 
ATOM      4  C   UNL     1       1.638   3.619  18.185  0.00  0.00    +0.000 A 
ATOM      5  N   UNL     1       1.733   4.687  18.990  0.00  0.00    +0.000 NA
ATOM      6  C   UNL     1       2.896   5.403  18.982  0.00  0.00    +0.000 A 
ENDROOT
BRANCH   1  11
ATOM      7  C   UNL     1       6.682   5.610  16.113  0.00  0.00    +0.000 C 
ATOM      8  C   UNL     1       7.633   4.744  16.958  0.00  0.00    +0.000 C 
ATOM      9  C   UNL     1       7.201   4.412  18.395  0.00  0.00    +0.000 C 
ATOM     10  C   UNL     1       6.286   5.458  19.027  0.00  0.00    +0.000 C 
ATOM     11  N   UNL     1       5.215   5.813  18.087  0.00  0.00    +0.000 N 
ATOM     12  C   UNL     1       5.738   6.507  16.906  0.00  0.00    +0.000 C 
BRANCH   7  13
ATOM     13  C   UNL     1       5.959   5.021  14.912  0.00  0.00    +0.000 C 
ATOM     14  O   UNL     1       4.937   5.551  14.482  0.00  0.00    +0.000 OA
BRANCH  13  15
ATOM     15  O   UNL     1       6.479   3.875  14.405  0.00  0.00    +0.000 OA
BRANCH  15  17
ATOM     16  C   UNL     1       5.688   3.174  12.177  0.00  0.00    +0.000 C 
ATOM     17  C   UNL     1       6.743   3.919  12.982  0.00  0.00    +0.000 C 
ENDBRANCH  15  17
ENDBRANCH  13  15
ENDBRANCH   7  13
ENDBRANCH   1  11
BRANCH   6  18
ATOM     18  O   UNL     1       2.965   6.453  19.890  0.00  0.00    +0.000 OA
BRANCH  18  19
ATOM     19  C   UNL     1       2.040   7.481  19.859  0.00  0.00    +0.000 A 
ATOM     20  C   UNL     1       1.199   7.846  20.907  0.00  0.00    +0.000 A 
ATOM     21  C   UNL     1       0.425   8.997  20.824  0.00  0.00    +0.000 A 
ATOM     22  C   UNL     1       0.574   9.884  19.753  0.00  0.00    +0.000 A 
ATOM     23  C   UNL     1       1.296   9.463  18.637  0.00  0.00    +0.000 A 
ATOM     24  C   UNL     1       2.036   8.269  18.697  0.00  0.00    +0.000 A 
BRANCH  22  25
ATOM     25  N   UNL     1       0.085  11.208  19.842  0.00  0.00    +0.000 N 
ATOM     26  C   UNL     1      -0.760  11.647  20.891  0.00  0.00    +0.000 A 
ATOM     27  C   UNL     1      -0.576  11.140  22.189  0.00  0.00    +0.000 A 
ATOM     28  C   UNL     1      -1.510  11.407  23.174  0.00  0.00    +0.000 A 
ATOM     29  C   UNL     1      -2.567  12.252  22.879  0.00  0.00    +0.000 A 
ATOM     30  C   UNL     1      -2.625  12.795  21.604  0.00  0.00    +0.000 A 
ATOM     31  N   UNL     1      -1.748  12.504  20.605  0.00  0.00    +0.000 NA
ATOM     32  H   UNL     1      -0.264  11.576  18.962  0.00  0.00    +0.000 HD
ENDBRANCH  22  25
ENDBRANCH  18  19
ENDBRANCH   6  18
TORSDOF 7
ENDMDL
MODEL 7
REMARK VINA RESULT:      -7.4      3.378      9.423
REMARK  Name = 
REMARK  8 active torsions:
REMARK  status: ('A' for Active; 'I' for Inactive)
REMARK    1  A    between atoms: C_1  and  C_2
REMARK    2  A    between atoms: C_2  and  O_3
REMARK    3  A    between atoms: O_3  and  C_4
REMARK    4  A    between atoms: C_4  and  C_6
REMARK    5  A    between atoms: N_10  and  C_11
REMARK    6  A    between atoms: C_16  and  O_17
REMARK    7  A    between atoms: O_17  and  C_18
REMARK    8  A    between atoms: C_21  and  N_22
REMARK                            x       y       z     vdW  Elec       q    Type
REMARK                         _______ _______ _______ _____ _____    ______ ____
ROOT
ATOM      1  C   UNL     1      -0.906  11.796  18.938  0.00  0.00    +0.000 A 
ATOM      2  C   UNL     1      -2.308  11.968  18.971  0.00  0.00    +0.000 A 
ATOM      3  C   UNL     1      -3.188  11.159  18.255  0.00  0.00    +0.000 A 
ATOM      4  C   UNL     1      -2.660  10.118  17.535  0.00  0.00    +0.000 A 
ATOM      5  N   UNL     1      -1.351   9.827  17.525  0.00  0.00    +0.000 NA
ATOM      6  C   UNL     1      -0.495  10.676  18.168  0.00  0.00    +0.000 A 
ENDROOT
BRANCH   1  11
ATOM      7  C   UNL     1      -0.300  13.123  21.991  0.00  0.00    +0.000 C 
ATOM      8  C   UNL     1      -0.901  14.503  21.673  0.00  0.00    +0.000 C 
ATOM      9  C   UNL     1      -1.114  14.859  20.193  0.00  0.00    +0.000 C 
ATOM     10  C   UNL     1      -0.148  14.161  19.239  0.00  0.00    +0.000 C 
ATOM     11  N   UNL     1      -0.078  12.731  19.564  0.00  0.00    +0.000 N 
ATOM     12  C   UNL     1       0.535  12.502  20.877  0.00  0.00    +0.000 C 
BRANCH   7  13
ATOM     13  C   UNL     1      -1.136  12.053  22.676  0.00  0.00    +0.000 C 
ATOM     14  O   UNL     1      -0.592  11.160  23.322  0.00  0.00    +0.000 OA
BRANCH  13  15
ATOM     15  O   UNL     1      -2.476  12.127  22.480  0.00  0.00    +0.000 OA
BRANCH  15  17
ATOM     16  C   UNL     1      -3.734  13.644  23.964  0.00  0.00    +0.000 C 
ATOM     17  C   UNL     1      -3.252  12.224  23.699  0.00  0.00    +0.000 C 
ENDBRANCH  15  17
ENDBRANCH  13  15
ENDBRANCH   7  13
ENDBRANCH   1  11
BRANCH   6  18
ATOM     18  O   UNL     1       0.856  10.366  18.061  0.00  0.00    +0.000 OA
BRANCH  18  19
ATOM     19  C   UNL     1       1.402   9.314  18.774  0.00  0.00    +0.000 A 
ATOM     20  C   UNL     1       1.143   9.020  20.111  0.00  0.00    +0.000 A 
ATOM     21  C   UNL     1       1.618   7.845  20.680  0.00  0.00    +0.000 A 
ATOM     22  C   UNL     1       2.244   6.871  19.895  0.00  0.00    +0.000 A 
ATOM     23  C   UNL     1       2.636   7.212  18.601  0.00  0.00    +0.000 A 
ATOM     24  C   UNL     1       2.205   8.427  18.040  0.00  0.00    +0.000 A 
BRANCH  22  25
ATOM     25  N   UNL     1       2.388   5.547  20.371  0.00  0.00    +0.000 N 
ATOM     26  C   UNL     1       2.475   4.426  19.508  0.00  0.00    +0.000 A 
ATOM     27  C   UNL     1       3.146   4.546  18.279  0.00  0.00    +0.000 A 
ATOM     28  C   UNL     1       3.070   3.526  17.347  0.00  0.00    +0.000 A 
ATOM     29  C   UNL     1       2.404   2.360  17.689  0.00  0.00    +0.000 A 
ATOM     30  C   UNL     1       1.853   2.277  18.959  0.00  0.00    +0.000 A 
ATOM     31  N   UNL     1       1.871   3.288  19.871  0.00  0.00    +0.000 NA
ATOM     32  H   UNL     1       1.772   5.320  21.145  0.00  0.00    +0.000 HD
ENDBRANCH  22  25
ENDBRANCH  18  19
ENDBRANCH   6  18
TORSDOF 7
ENDMDL
MODEL 8
REMARK VINA RESULT:      -7.4      3.334      9.289
REMARK  Name = 
REMARK  8 active torsions:
REMARK  status: ('A' for Active; 'I' for Inactive)
REMARK    1  A    between atoms: C_1  and  C_2
REMARK    2  A    between atoms: C_2  and  O_3
REMARK    3  A    between atoms: O_3  and  C_4
REMARK    4  A    between atoms: C_4  and  C_6
REMARK    5  A    between atoms: N_10  and  C_11
REMARK    6  A    between atoms: C_16  and  O_17
REMARK    7  A    between atoms: O_17  and  C_18
REMARK    8  A    between atoms: C_21  and  N_22
REMARK                            x       y       z     vdW  Elec       q    Type
REMARK                         _______ _______ _______ _____ _____    ______ ____
ROOT
ATOM      1  C   UNL     1      -0.686  11.796  18.841  0.00  0.00    +0.000 A 
ATOM      2  C   UNL     1      -1.604  12.251  17.868  0.00  0.00    +0.000 A 
ATOM      3  C   UNL     1      -2.372  11.390  17.088  0.00  0.00    +0.000 A 
ATOM      4  C   UNL     1      -2.264  10.043  17.324  0.00  0.00    +0.000 A 
ATOM      5  N   UNL     1      -1.489   9.532  18.292  0.00  0.00    +0.000 NA
ATOM      6  C   UNL     1      -0.684  10.384  18.993  0.00  0.00    +0.000 A 
ENDROOT
BRANCH   1  11
ATOM      7  C   UNL     1      -0.132  13.135  21.898  0.00  0.00    +0.000 C 
ATOM      8  C   UNL     1      -0.675  14.532  21.547  0.00  0.00    +0.000 C 
ATOM      9  C   UNL     1      -0.828  14.878  20.057  0.00  0.00    +0.000 C 
ATOM     10  C   UNL     1       0.143  14.137  19.142  0.00  0.00    +0.000 C 
ATOM     11  N   UNL     1       0.154  12.709  19.484  0.00  0.00    +0.000 N 
ATOM     12  C   UNL     1       0.716  12.474  20.818  0.00  0.00    +0.000 C 
BRANCH   7  13
ATOM     13  C   UNL     1      -1.026  12.103  22.567  0.00  0.00    +0.000 C 
ATOM     14  O   UNL     1      -0.536  11.209  23.253  0.00  0.00    +0.000 OA
BRANCH  13  15
ATOM     15  O   UNL     1      -2.355  12.208  22.311  0.00  0.00    +0.000 OA
BRANCH  15  17
ATOM     16  C   UNL     1      -3.279  13.654  24.083  0.00  0.00    +0.000 C 
ATOM     17  C   UNL     1      -3.187  12.253  23.496  0.00  0.00    +0.000 C 
ENDBRANCH  15  17
ENDBRANCH  13  15
ENDBRANCH   7  13
ENDBRANCH   1  11
BRANCH   6  18
ATOM     18  O   UNL     1       0.152   9.789  19.931  0.00  0.00    +0.000 OA
BRANCH  18  19
ATOM     19  C   UNL     1       1.181   8.952  19.538  0.00  0.00    +0.000 A 
ATOM     20  C   UNL     1       1.659   7.862  20.260  0.00  0.00    +0.000 A 
ATOM     21  C   UNL     1       2.585   6.992  19.695  0.00  0.00    +0.000 A 
ATOM     22  C   UNL     1       2.952   7.111  18.351  0.00  0.00    +0.000 A 
ATOM     23  C   UNL     1       2.597   8.273  17.666  0.00  0.00    +0.000 A 
ATOM     24  C   UNL     1       1.704   9.184  18.256  0.00  0.00    +0.000 A 
BRANCH  22  25
ATOM     25  N   UNL     1       3.581   6.037  17.679  0.00  0.00    +0.000 N 
ATOM     26  C   UNL     1       3.134   4.697  17.783  0.00  0.00    +0.000 A 
ATOM     27  C   UNL     1       1.757   4.430  17.881  0.00  0.00    +0.000 A 
ATOM     28  C   UNL     1       1.320   3.152  18.178  0.00  0.00    +0.000 A 
ATOM     29  C   UNL     1       2.255   2.136  18.283  0.00  0.00    +0.000 A 
ATOM     30  C   UNL     1       3.588   2.458  18.073  0.00  0.00    +0.000 A 
ATOM     31  N   UNL     1       4.044   3.717  17.832  0.00  0.00    +0.000 NA
ATOM     32  H   UNL     1       4.594   6.052  17.743  0.00  0.00    +0.000 HD
ENDBRANCH  22  25
ENDBRANCH  18  19
ENDBRANCH   6  18
TORSDOF 7
ENDMDL
MODEL 9
REMARK VINA RESULT:      -7.3      3.678      9.764
REMARK  Name = 
REMARK  8 active torsions:
REMARK  status: ('A' for Active; 'I' for Inactive)
REMARK    1  A    between atoms: C_1  and  C_2
REMARK    2  A    between atoms: C_2  and  O_3
REMARK    3  A    between atoms: O_3  and  C_4
REMARK    4  A    between atoms: C_4  and  C_6
REMARK    5  A    between atoms: N_10  and  C_11
REMARK    6  A    between atoms: C_16  and  O_17
REMARK    7  A    between atoms: O_17  and  C_18
REMARK    8  A    between atoms: C_21  and  N_22
REMARK                            x       y       z     vdW  Elec       q    Type
REMARK                         _______ _______ _______ _____ _____    ______ ____
ROOT
ATOM      1  C   UNL     1      -0.923  11.804  19.377  0.00  0.00    +0.000 A 
ATOM      2  C   UNL     1      -2.314  11.885  19.152  0.00  0.00    +0.000 A 
ATOM      3  C   UNL     1      -2.990  11.043  18.272  0.00  0.00    +0.000 A 
ATOM      4  C   UNL     1      -2.269  10.058  17.645  0.00  0.00    +0.000 A 
ATOM      5  N   UNL     1      -0.964   9.852  17.874  0.00  0.00    +0.000 NA
ATOM      6  C   UNL     1      -0.302  10.735  18.679  0.00  0.00    +0.000 A 
ENDROOT
BRANCH   1  11
ATOM      7  C   UNL     1      -1.053  13.152  22.478  0.00  0.00    +0.000 C 
ATOM      8  C   UNL     1      -1.625  14.508  22.024  0.00  0.00    +0.000 C 
ATOM      9  C   UNL     1      -1.522  14.855  20.530  0.00  0.00    +0.000 C 
ATOM     10  C   UNL     1      -0.343  14.198  19.817  0.00  0.00    +0.000 C 
ATOM     11  N   UNL     1      -0.289  12.771  20.162  0.00  0.00    +0.000 N 
ATOM     12  C   UNL     1       0.030  12.567  21.579  0.00  0.00    +0.000 C 
BRANCH   7  13
ATOM     13  C   UNL     1      -1.976  12.050  22.972  0.00  0.00    +0.000 C 
ATOM     14  O   UNL     1      -1.512  10.978  23.356  0.00  0.00    +0.000 OA
BRANCH  13  15
ATOM     15  O   UNL     1      -3.306  12.310  22.907  0.00  0.00    +0.000 OA
BRANCH  15  17
ATOM     16  C   UNL     1      -4.687  12.256  24.950  0.00  0.00    +0.000 C 
ATOM     17  C   UNL     1      -3.816  13.086  24.017  0.00  0.00    +0.000 C 
ENDBRANCH  15  17
ENDBRANCH  13  15
ENDBRANCH   7  13
ENDBRANCH   1  11
BRANCH   6  18
ATOM     18  O   UNL     1       1.064  10.515  18.820  0.00  0.00    +0.000 OA
BRANCH  18  19
ATOM     19  C   UNL     1       1.590   9.238  18.741  0.00  0.00    +0.000 A 
ATOM     20  C   UNL     1       2.307   8.723  17.664  0.00  0.00    +0.000 A 
ATOM     21  C   UNL     1       2.930   7.484  17.758  0.00  0.00    +0.000 A 
ATOM     22  C   UNL     1       2.967   6.792  18.972  0.00  0.00    +0.000 A 
ATOM     23  C   UNL     1       2.137   7.221  20.007  0.00  0.00    +0.000 A 
ATOM     24  C   UNL     1       1.460   8.448  19.894  0.00  0.00    +0.000 A 
BRANCH  22  25
ATOM     25  N   UNL     1       3.894   5.743  19.175  0.00  0.00    +0.000 N 
ATOM     26  C   UNL     1       3.599   4.389  18.880  0.00  0.00    +0.000 A 
ATOM     27  C   UNL     1       2.794   4.079  17.770  0.00  0.00    +0.000 A 
ATOM     28  C   UNL     1       2.339   2.786  17.586  0.00  0.00    +0.000 A 
ATOM     29  C   UNL     1       2.767   1.798  18.457  0.00  0.00    +0.000 A 
ATOM     30  C   UNL     1       3.643   2.163  19.469  0.00  0.00    +0.000 A 
ATOM     31  N   UNL     1       4.061   3.437  19.700  0.00  0.00    +0.000 NA
ATOM     32  H   UNL     1       4.376   5.789  20.067  0.00  0.00    +0.000 HD
ENDBRANCH  22  25
ENDBRANCH  18  19
ENDBRANCH   6  18
TORSDOF 7
ENDMDL
