MODEL 1
REMARK VINA RESULT:      -8.7      0.000      0.000
REMARK  Name = 
REMARK  3 active torsions:
REMARK  status: ('A' for Active; 'I' for Inactive)
REMARK    1  A    between atoms: C_1  and  C_2
REMARK    2  A    between atoms: C_9  and  N_10
REMARK    3  A    between atoms: C_21  and  O_22
REMARK                            x       y       z     vdW  Elec       q    Type
REMARK                         _______ _______ _______ _____ _____    ______ ____
ROOT
ATOM      1  C   UNL     1       1.734   3.649  18.173  0.00  0.00    +0.000 C 
ATOM      2  C   UNL     1       3.037   4.158  18.840  0.00  0.00    +0.000 C 
ATOM      3  C   UNL     1       2.790   4.363  20.338  0.00  0.00    +0.000 C 
ATOM      4  C   UNL     1       1.869   5.563  20.606  0.00  0.00    +0.000 C 
ATOM      5  C   UNL     1       2.339   6.868  19.908  0.00  0.00    +0.000 C 
ATOM      6  C   UNL     1       1.443   8.080  20.151  0.00  0.00    +0.000 A 
ATOM      7  C   UNL     1       0.767   8.242  21.376  0.00  0.00    +0.000 A 
ATOM      8  C   UNL     1      -0.019   9.366  21.632  0.00  0.00    +0.000 A 
ATOM      9  C   UNL     1      -0.126  10.362  20.663  0.00  0.00    +0.000 A 
ATOM     10  C   UNL     1       0.556  10.241  19.446  0.00  0.00    +0.000 A 
ATOM     11  C   UNL     1       1.353   9.109  19.188  0.00  0.00    +0.000 A 
ATOM     12  C   UNL     1       2.045   9.019  17.847  0.00  0.00    +0.000 C 
ATOM     13  C   UNL     1       3.108   7.927  17.759  0.00  0.00    +0.000 C 
ATOM     14  C   UNL     1       2.593   6.630  18.387  0.00  0.00    +0.000 C 
ATOM     15  C   UNL     1       3.585   5.473  18.246  0.00  0.00    +0.000 C 
ATOM     16  C   UNL     1       4.084   5.055  16.861  0.00  0.00    +0.000 C 
ATOM     17  C   UNL     1       4.586   3.609  17.061  0.00  0.00    +0.000 C 
ATOM     18  C   UNL     1       4.226   3.234  18.511  0.00  0.00    +0.000 C 
ENDROOT
BRANCH   9  19
ATOM     19  N   UNL     1      -0.952  11.546  20.929  0.00  0.00    +0.000 N 
ATOM     20  O   UNL     1      -1.750  11.904  20.050  0.00  0.00    +0.000 OA
ATOM     21  O   UNL     1      -0.804  12.121  22.018  0.00  0.00    +0.000 OA
ENDBRANCH   9  19
BRANCH  18  22
ATOM     22  O   UNL     1       3.956   1.858  18.673  0.00  0.00    +0.000 OA
ATOM     23  H   UNL     1       4.119   1.404  17.831  0.00  0.00    +0.000 HD
ENDBRANCH  18  22
TORSDOF 2
ENDMDL
MODEL 2
REMARK VINA RESULT:      -7.9      4.858      7.528
REMARK  Name = 
REMARK  3 active torsions:
REMARK  status: ('A' for Active; 'I' for Inactive)
REMARK    1  A    between atoms: C_1  and  C_2
REMARK    2  A    between atoms: C_9  and  N_10
REMARK    3  A    between atoms: C_21  and  O_22
REMARK                            x       y       z     vdW  Elec       q    Type
REMARK                         _______ _______ _______ _____ _____    ______ ____
ROOT
ATOM      1  C   UNL     1       3.673   3.011  20.334  0.00  0.00    +0.000 C 
ATOM      2  C   UNL     1       2.476   3.454  19.455  0.00  0.00    +0.000 C 
ATOM      3  C   UNL     1       2.368   2.524  18.242  0.00  0.00    +0.000 C 
ATOM      4  C   UNL     1       3.521   2.744  17.250  0.00  0.00    +0.000 C 
ATOM      5  C   UNL     1       3.700   4.228  16.833  0.00  0.00    +0.000 C 
ATOM      6  C   UNL     1       4.841   4.482  15.850  0.00  0.00    +0.000 A 
ATOM      7  C   UNL     1       5.182   3.520  14.879  0.00  0.00    +0.000 A 
ATOM      8  C   UNL     1       6.190   3.754  13.944  0.00  0.00    +0.000 A 
ATOM      9  C   UNL     1       6.866   4.974  13.956  0.00  0.00    +0.000 A 
ATOM     10  C   UNL     1       6.530   5.959  14.893  0.00  0.00    +0.000 A 
ATOM     11  C   UNL     1       5.510   5.726  15.834  0.00  0.00    +0.000 A 
ATOM     12  C   UNL     1       5.208   6.815  16.839  0.00  0.00    +0.000 C 
ATOM     13  C   UNL     1       3.913   6.609  17.621  0.00  0.00    +0.000 C 
ATOM     14  C   UNL     1       3.796   5.155  18.084  0.00  0.00    +0.000 C 
ATOM     15  C   UNL     1       2.560   4.912  18.953  0.00  0.00    +0.000 C 
ATOM     16  C   UNL     1       2.339   5.736  20.222  0.00  0.00    +0.000 C 
ATOM     17  C   UNL     1       1.363   4.884  21.062  0.00  0.00    +0.000 C 
ATOM     18  C   UNL     1       1.186   3.564  20.290  0.00  0.00    +0.000 C 
ENDROOT
BRANCH   9  19
ATOM     19  N   UNL     1       7.928   5.224  12.973  0.00  0.00    +0.000 N 
ATOM     20  O   UNL     1       7.807   4.718  11.849  0.00  0.00    +0.000 OA
ATOM     21  O   UNL     1       8.886   5.928  13.326  0.00  0.00    +0.000 OA
ENDBRANCH   9  19
BRANCH  18  22
ATOM     22  O   UNL     1       0.944   2.459  21.136  0.00  0.00    +0.000 OA
ATOM     23  H   UNL     1       0.851   2.777  22.048  0.00  0.00    +0.000 HD
ENDBRANCH  18  22
TORSDOF 2
ENDMDL
MODEL 3
REMARK VINA RESULT:      -7.6      1.846      3.193
REMARK  Name = 
REMARK  3 active torsions:
REMARK  status: ('A' for Active; 'I' for Inactive)
REMARK    1  A    between atoms: C_1  and  C_2
REMARK    2  A    between atoms: C_9  and  N_10
REMARK    3  A    between atoms: C_21  and  O_22
REMARK                            x       y       z     vdW  Elec       q    Type
REMARK                         _______ _______ _______ _____ _____    ______ ____
ROOT
ATOM      1  C   UNL     1       6.237   6.391  17.520  0.00  0.00    +0.000 C 
ATOM      2  C   UNL     1       4.996   6.023  16.668  0.00  0.00    +0.000 C 
ATOM      3  C   UNL     1       4.328   7.309  16.169  0.00  0.00    +0.000 C 
ATOM      4  C   UNL     1       3.646   8.078  17.312  0.00  0.00    +0.000 C 
ATOM      5  C   UNL     1       2.676   7.202  18.151  0.00  0.00    +0.000 C 
ATOM      6  C   UNL     1       1.985   7.935  19.299  0.00  0.00    +0.000 A 
ATOM      7  C   UNL     1       1.646   9.297  19.182  0.00  0.00    +0.000 A 
ATOM      8  C   UNL     1       0.973   9.971  20.201  0.00  0.00    +0.000 A 
ATOM      9  C   UNL     1       0.610   9.279  21.356  0.00  0.00    +0.000 A 
ATOM     10  C   UNL     1       0.910   7.917  21.488  0.00  0.00    +0.000 A 
ATOM     11  C   UNL     1       1.585   7.235  20.458  0.00  0.00    +0.000 A 
ATOM     12  C   UNL     1       1.907   5.773  20.667  0.00  0.00    +0.000 C 
ATOM     13  C   UNL     1       2.366   5.043  19.407  0.00  0.00    +0.000 C 
ATOM     14  C   UNL     1       3.377   5.896  18.637  0.00  0.00    +0.000 C 
ATOM     15  C   UNL     1       3.942   5.175  17.410  0.00  0.00    +0.000 C 
ATOM     16  C   UNL     1       4.629   3.816  17.567  0.00  0.00    +0.000 C 
ATOM     17  C   UNL     1       5.498   3.683  16.299  0.00  0.00    +0.000 C 
ATOM     18  C   UNL     1       5.365   5.024  15.554  0.00  0.00    +0.000 C 
ENDROOT
BRANCH   9  19
ATOM     19  N   UNL     1      -0.099   9.984  22.431  0.00  0.00    +0.000 N 
ATOM     20  O   UNL     1      -0.981  10.792  22.110  0.00  0.00    +0.000 OA
ATOM     21  O   UNL     1       0.228   9.730  23.601  0.00  0.00    +0.000 OA
ENDBRANCH   9  19
BRANCH  18  22
ATOM     22  O   UNL     1       6.524   5.367  14.824  0.00  0.00    +0.000 OA
ATOM     23  H   UNL     1       6.299   6.063  14.187  0.00  0.00    +0.000 HD
ENDBRANCH  18  22
TORSDOF 2
ENDMDL
MODEL 4
REMARK VINA RESULT:      -7.5      1.236      2.643
REMARK  Name = 
REMARK  3 active torsions:
REMARK  status: ('A' for Active; 'I' for Inactive)
REMARK    1  A    between atoms: C_1  and  C_2
REMARK    2  A    between atoms: C_9  and  N_10
REMARK    3  A    between atoms: C_21  and  O_22
REMARK                            x       y       z     vdW  Elec       q    Type
REMARK                         _______ _______ _______ _____ _____    ______ ____
ROOT
ATOM      1  C   UNL     1       5.615   5.657  18.810  0.00  0.00    +0.000 C 
ATOM      2  C   UNL     1       4.348   5.194  18.046  0.00  0.00    +0.000 C 
ATOM      3  C   UNL     1       4.043   6.191  16.924  0.00  0.00    +0.000 C 
ATOM      4  C   UNL     1       3.544   7.537  17.475  0.00  0.00    +0.000 C 
ATOM      5  C   UNL     1       2.359   7.394  18.467  0.00  0.00    +0.000 C 
ATOM      6  C   UNL     1       1.841   8.712  19.037  0.00  0.00    +0.000 A 
ATOM      7  C   UNL     1       1.863   9.889  18.263  0.00  0.00    +0.000 A 
ATOM      8  C   UNL     1       1.351  11.092  18.751  0.00  0.00    +0.000 A 
ATOM      9  C   UNL     1       0.789  11.130  20.026  0.00  0.00    +0.000 A 
ATOM     10  C   UNL     1       0.729   9.970  20.808  0.00  0.00    +0.000 A 
ATOM     11  C   UNL     1       1.241   8.754  20.315  0.00  0.00    +0.000 A 
ATOM     12  C   UNL     1       1.174   7.540  21.213  0.00  0.00    +0.000 C 
ATOM     13  C   UNL     1       1.472   6.219  20.508  0.00  0.00    +0.000 C 
ATOM     14  C   UNL     1       2.690   6.366  19.593  0.00  0.00    +0.000 C 
ATOM     15  C   UNL     1       3.091   5.046  18.930  0.00  0.00    +0.000 C 
ATOM     16  C   UNL     1       3.404   3.819  19.789  0.00  0.00    +0.000 C 
ATOM     17  C   UNL     1       4.250   2.917  18.865  0.00  0.00    +0.000 C 
ATOM     18  C   UNL     1       4.485   3.732  17.580  0.00  0.00    +0.000 C 
ENDROOT
BRANCH   9  19
ATOM     19  N   UNL     1       0.250  12.394  20.543  0.00  0.00    +0.000 N 
ATOM     20  O   UNL     1      -0.611  12.975  19.868  0.00  0.00    +0.000 OA
ATOM     21  O   UNL     1       0.688  12.808  21.627  0.00  0.00    +0.000 OA
ENDBRANCH   9  19
BRANCH  18  22
ATOM     22  O   UNL     1       5.716   3.433  16.955  0.00  0.00    +0.000 OA
ATOM     23  H   UNL     1       5.568   3.341  16.000  0.00  0.00    +0.000 HD
ENDBRANCH  18  22
TORSDOF 2
ENDMDL
MODEL 5
REMARK VINA RESULT:      -7.5      2.624      7.360
REMARK  Name = 
REMARK  3 active torsions:
REMARK  status: ('A' for Active; 'I' for Inactive)
REMARK    1  A    between atoms: C_1  and  C_2
REMARK    2  A    between atoms: C_9  and  N_10
REMARK    3  A    between atoms: C_21  and  O_22
REMARK                            x       y       z     vdW  Elec       q    Type
REMARK                         _______ _______ _______ _____ _____    ______ ____
ROOT
ATOM      1  C   UNL     1      -0.709   9.966  17.814  0.00  0.00    +0.000 C 
ATOM      2  C   UNL     1       0.516  10.539  18.570  0.00  0.00    +0.000 C 
ATOM      3  C   UNL     1       1.775  10.335  17.721  0.00  0.00    +0.000 C 
ATOM      4  C   UNL     1       2.179   8.854  17.647  0.00  0.00    +0.000 C 
ATOM      5  C   UNL     1       2.297   8.177  19.039  0.00  0.00    +0.000 C 
ATOM      6  C   UNL     1       2.693   6.702  19.000  0.00  0.00    +0.000 A 
ATOM      7  C   UNL     1       3.555   6.215  17.999  0.00  0.00    +0.000 A 
ATOM      8  C   UNL     1       3.964   4.881  17.975  0.00  0.00    +0.000 A 
ATOM      9  C   UNL     1       3.526   4.013  18.974  0.00  0.00    +0.000 A 
ATOM     10  C   UNL     1       2.689   4.476  19.997  0.00  0.00    +0.000 A 
ATOM     11  C   UNL     1       2.279   5.823  20.025  0.00  0.00    +0.000 A 
ATOM     12  C   UNL     1       1.355   6.261  21.138  0.00  0.00    +0.000 C 
ATOM     13  C   UNL     1       1.197   7.774  21.266  0.00  0.00    +0.000 C 
ATOM     14  C   UNL     1       1.008   8.409  19.887  0.00  0.00    +0.000 C 
ATOM     15  C   UNL     1       0.753   9.916  19.963  0.00  0.00    +0.000 C 
ATOM     16  C   UNL     1      -0.411  10.457  20.795  0.00  0.00    +0.000 C 
ATOM     17  C   UNL     1      -0.669  11.864  20.216  0.00  0.00    +0.000 C 
ATOM     18  C   UNL     1       0.269  11.998  19.002  0.00  0.00    +0.000 C 
ENDROOT
BRANCH   9  19
ATOM     19  N   UNL     1       3.953   2.608  18.953  0.00  0.00    +0.000 N 
ATOM     20  O   UNL     1       3.470   1.869  18.083  0.00  0.00    +0.000 OA
ATOM     21  O   UNL     1       4.775   2.242  19.807  0.00  0.00    +0.000 OA
ENDBRANCH   9  19
BRANCH  18  22
ATOM     22  O   UNL     1      -0.260  12.824  17.985  0.00  0.00    +0.000 OA
ATOM     23  H   UNL     1      -0.769  12.274  17.368  0.00  0.00    +0.000 HD
ENDBRANCH  18  22
TORSDOF 2
ENDMDL
MODEL 6
REMARK VINA RESULT:      -7.2      1.502      2.931
REMARK  Name = 
REMARK  3 active torsions:
REMARK  status: ('A' for Active; 'I' for Inactive)
REMARK    1  A    between atoms: C_1  and  C_2
REMARK    2  A    between atoms: C_9  and  N_10
REMARK    3  A    between atoms: C_21  and  O_22
REMARK                            x       y       z     vdW  Elec       q    Type
REMARK                         _______ _______ _______ _____ _____    ______ ____
ROOT
ATOM      1  C   UNL     1       4.969   5.001  19.567  0.00  0.00    +0.000 C 
ATOM      2  C   UNL     1       3.610   4.592  18.943  0.00  0.00    +0.000 C 
ATOM      3  C   UNL     1       3.448   5.288  17.588  0.00  0.00    +0.000 C 
ATOM      4  C   UNL     1       3.222   6.801  17.747  0.00  0.00    +0.000 C 
ATOM      5  C   UNL     1       2.070   7.152  18.726  0.00  0.00    +0.000 C 
ATOM      6  C   UNL     1       1.822   8.647  18.910  0.00  0.00    +0.000 A 
ATOM      7  C   UNL     1       2.026   9.547  17.846  0.00  0.00    +0.000 A 
ATOM      8  C   UNL     1       1.761  10.909  17.982  0.00  0.00    +0.000 A 
ATOM      9  C   UNL     1       1.265  11.393  19.192  0.00  0.00    +0.000 A 
ATOM     10  C   UNL     1       1.027  10.518  20.259  0.00  0.00    +0.000 A 
ATOM     11  C   UNL     1       1.290   9.141  20.122  0.00  0.00    +0.000 A 
ATOM     12  C   UNL     1       1.039   8.248  21.315  0.00  0.00    +0.000 C 
ATOM     13  C   UNL     1       1.066   6.754  20.999  0.00  0.00    +0.000 C 
ATOM     14  C   UNL     1       2.253   6.422  20.093  0.00  0.00    +0.000 C 
ATOM     15  C   UNL     1       2.382   4.922  19.818  0.00  0.00    +0.000 C 
ATOM     16  C   UNL     1       2.502   3.936  20.982  0.00  0.00    +0.000 C 
ATOM     17  C   UNL     1       3.133   2.678  20.348  0.00  0.00    +0.000 C 
ATOM     18  C   UNL     1       3.462   3.059  18.893  0.00  0.00    +0.000 C 
ENDROOT
BRANCH   9  19
ATOM     19  N   UNL     1       0.984  12.827  19.340  0.00  0.00    +0.000 N 
ATOM     20  O   UNL     1       1.050  13.315  20.477  0.00  0.00    +0.000 OA
ATOM     21  O   UNL     1       0.697  13.467  18.317  0.00  0.00    +0.000 OA
ENDBRANCH   9  19
BRANCH  18  22
ATOM     22  O   UNL     1       4.593   2.381  18.387  0.00  0.00    +0.000 OA
ATOM     23  H   UNL     1       4.706   2.613  17.451  0.00  0.00    +0.000 HD
ENDBRANCH  18  22
TORSDOF 2
ENDMDL
MODEL 7
REMARK VINA RESULT:      -7.1      9.456     10.483
REMARK  Name = 
REMARK  3 active torsions:
REMARK  status: ('A' for Active; 'I' for Inactive)
REMARK    1  A    between atoms: C_1  and  C_2
REMARK    2  A    between atoms: C_9  and  N_10
REMARK    3  A    between atoms: C_21  and  O_22
REMARK                            x       y       z     vdW  Elec       q    Type
REMARK                         _______ _______ _______ _____ _____    ______ ____
ROOT
ATOM      1  C   UNL     1       9.715  12.919  17.878  0.00  0.00    +0.000 C 
ATOM      2  C   UNL     1      10.958  12.812  18.799  0.00  0.00    +0.000 C 
ATOM      3  C   UNL     1      10.906  11.485  19.564  0.00  0.00    +0.000 C 
ATOM      4  C   UNL     1       9.790  11.480  20.621  0.00  0.00    +0.000 C 
ATOM      5  C   UNL     1       9.841  12.703  21.576  0.00  0.00    +0.000 C 
ATOM      6  C   UNL     1       8.744  12.730  22.637  0.00  0.00    +0.000 A 
ATOM      7  C   UNL     1       8.247  11.533  23.189  0.00  0.00    +0.000 A 
ATOM      8  C   UNL     1       7.277  11.541  24.193  0.00  0.00    +0.000 A 
ATOM      9  C   UNL     1       6.800  12.759  24.675  0.00  0.00    +0.000 A 
ATOM     10  C   UNL     1       7.296  13.965  24.164  0.00  0.00    +0.000 A 
ATOM     11  C   UNL     1       8.277  13.959  23.154  0.00  0.00    +0.000 A 
ATOM     12  C   UNL     1       8.756  15.290  22.621  0.00  0.00    +0.000 C 
ATOM     13  C   UNL     1      10.011  15.207  21.756  0.00  0.00    +0.000 C 
ATOM     14  C   UNL     1       9.904  14.039  20.773  0.00  0.00    +0.000 C 
ATOM     15  C   UNL     1      11.097  13.964  19.817  0.00  0.00    +0.000 C 
ATOM     16  C   UNL     1      11.457  15.167  18.943  0.00  0.00    +0.000 C 
ATOM     17  C   UNL     1      12.296  14.564  17.796  0.00  0.00    +0.000 C 
ATOM     18  C   UNL     1      12.258  13.038  18.004  0.00  0.00    +0.000 C 
ENDROOT
BRANCH   9  19
ATOM     19  N   UNL     1       5.780  12.771  25.731  0.00  0.00    +0.000 N 
ATOM     20  O   UNL     1       4.919  13.662  25.694  0.00  0.00    +0.000 OA
ATOM     21  O   UNL     1       5.839  11.888  26.601  0.00  0.00    +0.000 OA
ENDBRANCH   9  19
BRANCH  18  22
ATOM     22  O   UNL     1      12.333  12.315  16.793  0.00  0.00    +0.000 OA
ATOM     23  H   UNL     1      11.806  11.504  16.878  0.00  0.00    +0.000 HD
ENDBRANCH  18  22
TORSDOF 2
ENDMDL
MODEL 8
REMARK VINA RESULT:      -7.0      2.513      7.511
REMARK  Name = 
REMARK  3 active torsions:
REMARK  status: ('A' for Active; 'I' for Inactive)
REMARK    1  A    between atoms: C_1  and  C_2
REMARK    2  A    between atoms: C_9  and  N_10
REMARK    3  A    between atoms: C_21  and  O_22
REMARK                            x       y       z     vdW  Elec       q    Type
REMARK                         _______ _______ _______ _____ _____    ______ ____
ROOT
ATOM      1  C   UNL     1      -1.353  10.438  18.386  0.00  0.00    +0.000 C 
ATOM      2  C   UNL     1      -0.117  11.062  19.083  0.00  0.00    +0.000 C 
ATOM      3  C   UNL     1       1.059  11.082  18.101  0.00  0.00    +0.000 C 
ATOM      4  C   UNL     1       1.596   9.668  17.825  0.00  0.00    +0.000 C 
ATOM      5  C   UNL     1       1.926   8.872  19.116  0.00  0.00    +0.000 C 
ATOM      6  C   UNL     1       2.459   7.461  18.878  0.00  0.00    +0.000 A 
ATOM      7  C   UNL     1       3.255   7.173  17.752  0.00  0.00    +0.000 A 
ATOM      8  C   UNL     1       3.788   5.901  17.542  0.00  0.00    +0.000 A 
ATOM      9  C   UNL     1       3.544   4.894  18.476  0.00  0.00    +0.000 A 
ATOM     10  C   UNL     1       2.779   5.159  19.618  0.00  0.00    +0.000 A 
ATOM     11  C   UNL     1       2.244   6.443  19.833  0.00  0.00    +0.000 A 
ATOM     12  C   UNL     1       1.404   6.665  21.070  0.00  0.00    +0.000 C 
ATOM     13  C   UNL     1       1.113   8.131  21.379  0.00  0.00    +0.000 C 
ATOM     14  C   UNL     1       0.718   8.877  20.103  0.00  0.00    +0.000 C 
ATOM     15  C   UNL     1       0.326  10.332  20.369  0.00  0.00    +0.000 C 
ATOM     16  C   UNL     1      -0.792  10.657  21.362  0.00  0.00    +0.000 C 
ATOM     17  C   UNL     1      -1.246  12.079  20.969  0.00  0.00    +0.000 C 
ATOM     18  C   UNL     1      -0.459  12.435  19.694  0.00  0.00    +0.000 C 
ENDROOT
BRANCH   9  19
ATOM     19  N   UNL     1       4.103   3.554  18.259  0.00  0.00    +0.000 N 
ATOM     20  O   UNL     1       4.189   2.798  19.236  0.00  0.00    +0.000 OA
ATOM     21  O   UNL     1       4.459   3.256  17.108  0.00  0.00    +0.000 OA
ENDBRANCH   9  19
BRANCH  18  22
ATOM     22  O   UNL     1      -1.171  13.296  18.830  0.00  0.00    +0.000 OA
ATOM     23  H   UNL     1      -1.117  14.201  19.175  0.00  0.00    +0.000 HD
ENDBRANCH  18  22
TORSDOF 2
ENDMDL
MODEL 9
REMARK VINA RESULT:      -6.9      2.967      8.213
REMARK  Name = 
REMARK  3 active torsions:
REMARK  status: ('A' for Active; 'I' for Inactive)
REMARK    1  A    between atoms: C_1  and  C_2
REMARK    2  A    between atoms: C_9  and  N_10
REMARK    3  A    between atoms: C_21  and  O_22
REMARK                            x       y       z     vdW  Elec       q    Type
REMARK                         _______ _______ _______ _____ _____    ______ ____
ROOT
ATOM      1  C   UNL     1      -3.005  12.115  19.688  0.00  0.00    +0.000 C 
ATOM      2  C   UNL     1      -1.765  12.865  20.237  0.00  0.00    +0.000 C 
ATOM      3  C   UNL     1      -0.766  13.089  19.098  0.00  0.00    +0.000 C 
ATOM      4  C   UNL     1      -0.104  11.775  18.653  0.00  0.00    +0.000 C 
ATOM      5  C   UNL     1       0.517  10.970  19.826  0.00  0.00    +0.000 C 
ATOM      6  C   UNL     1       1.179   9.656  19.419  0.00  0.00    +0.000 A 
ATOM      7  C   UNL     1       1.823   9.531  18.172  0.00  0.00    +0.000 A 
ATOM      8  C   UNL     1       2.473   8.353  17.802  0.00  0.00    +0.000 A 
ATOM      9  C   UNL     1       2.504   7.279  18.692  0.00  0.00    +0.000 A 
ATOM     10  C   UNL     1       1.895   7.385  19.949  0.00  0.00    +0.000 A 
ATOM     11  C   UNL     1       1.243   8.574  20.325  0.00  0.00    +0.000 A 
ATOM     12  C   UNL     1       0.581   8.622  21.683  0.00  0.00    +0.000 C 
ATOM     13  C   UNL     1       0.159  10.020  22.129  0.00  0.00    +0.000 C 
ATOM     14  C   UNL     1      -0.517  10.766  20.976  0.00  0.00    +0.000 C 
ATOM     15  C   UNL     1      -1.043  12.141  21.393  0.00  0.00    +0.000 C 
ATOM     16  C   UNL     1      -2.027  12.266  22.558  0.00  0.00    +0.000 C 
ATOM     17  C   UNL     1      -2.711  13.631  22.331  0.00  0.00    +0.000 C 
ATOM     18  C   UNL     1      -2.180  14.149  20.982  0.00  0.00    +0.000 C 
ENDROOT
BRANCH   9  19
ATOM     19  N   UNL     1       3.186   6.038  18.306  0.00  0.00    +0.000 N 
ATOM     20  O   UNL     1       4.392   5.934  18.573  0.00  0.00    +0.000 OA
ATOM     21  O   UNL     1       2.516   5.164  17.735  0.00  0.00    +0.000 OA
ENDBRANCH   9  19
BRANCH  18  22
ATOM     22  O   UNL     1      -3.117  14.947  20.290  0.00  0.00    +0.000 OA
ATOM     23  H   UNL     1      -3.903  14.411  20.096  0.00  0.00    +0.000 HD
ENDBRANCH  18  22
TORSDOF 2
ENDMDL
