MODEL 1
REMARK VINA RESULT:      -5.2      0.000      0.000
REMARK  Name = 
REMARK  6 active torsions:
REMARK  status: ('A' for Active; 'I' for Inactive)
REMARK    1  A    between atoms: C_1  and  C_2
REMARK    2  A    between atoms: C_2  and  C_8
REMARK    3  A    between atoms: N_3  and  O_4
REMARK    4  A    between atoms: O_4  and  C_5
REMARK    5  A    between atoms: C_5  and  C_6
REMARK    6  A    between atoms: C_6  and  O_7
REMARK                            x       y       z     vdW  Elec       q    Type
REMARK                         _______ _______ _______ _____ _____    ______ ____
ROOT
ATOM      1  C   UNL     1       3.257   7.454  17.646  0.00  0.00    +0.000 C 
ATOM      2  C   UNL     1       3.713   6.008  17.770  0.00  0.00    +0.000 C 
ATOM      3  N   UNL     1       4.860   5.575  17.323  0.00  0.00    +0.000 NA
ENDROOT
BRANCH   2   4
ATOM      4  C   UNL     1       2.830   5.040  18.421  0.00  0.00    +0.000 A 
ATOM      5  C   UNL     1       1.784   4.324  17.859  0.00  0.00    +0.000 A 
ATOM      6  C   UNL     1       1.123   3.475  18.799  0.00  0.00    +0.000 A 
ATOM      7  C   UNL     1       1.694   3.579  20.039  0.00  0.00    +0.000 A 
ATOM      8 CL   UNL     1       1.218   2.750  21.464  0.00  0.00    +0.000 Cl
ATOM      9  S   UNL     1       2.993   4.654  20.091  0.00  0.00    +0.000 S 
ENDBRANCH   2   4
BRANCH   3  10
ATOM     10  O   UNL     1       5.600   6.596  16.706  0.00  0.00    +0.000 OA
BRANCH  10  11
ATOM     11  C   UNL     1       6.995   6.315  16.838  0.00  0.00    +0.000 C 
BRANCH  11  12
ATOM     12  C   UNL     1       7.182   4.807  16.716  0.00  0.00    +0.000 C 
BRANCH  12  13
ATOM     13  O   UNL     1       7.658   4.252  17.943  0.00  0.00    +0.000 OA
ATOM     14  H   UNL     1       7.360   3.325  17.959  0.00  0.00    +0.000 HD
ENDBRANCH  12  13
ENDBRANCH  11  12
ENDBRANCH  10  11
ENDBRANCH   3  10
TORSDOF 5
ENDMDL
MODEL 2
REMARK VINA RESULT:      -5.2      1.513      1.706
REMARK  Name = 
REMARK  6 active torsions:
REMARK  status: ('A' for Active; 'I' for Inactive)
REMARK    1  A    between atoms: C_1  and  C_2
REMARK    2  A    between atoms: C_2  and  C_8
REMARK    3  A    between atoms: N_3  and  O_4
REMARK    4  A    between atoms: O_4  and  C_5
REMARK    5  A    between atoms: C_5  and  C_6
REMARK    6  A    between atoms: C_6  and  O_7
REMARK                            x       y       z     vdW  Elec       q    Type
REMARK                         _______ _______ _______ _____ _____    ______ ____
ROOT
ATOM      1  C   UNL     1       5.175   4.207  15.868  0.00  0.00    +0.000 C 
ATOM      2  C   UNL     1       4.680   4.792  17.182  0.00  0.00    +0.000 C 
ATOM      3  N   UNL     1       5.207   5.847  17.742  0.00  0.00    +0.000 NA
ENDROOT
BRANCH   2   4
ATOM      4  C   UNL     1       3.558   4.150  17.865  0.00  0.00    +0.000 A 
ATOM      5  C   UNL     1       2.497   3.456  17.302  0.00  0.00    +0.000 A 
ATOM      6  C   UNL     1       1.569   2.973  18.275  0.00  0.00    +0.000 A 
ATOM      7  C   UNL     1       1.963   3.317  19.541  0.00  0.00    +0.000 A 
ATOM      8 CL   UNL     1       1.147   2.953  21.006  0.00  0.00    +0.000 Cl
ATOM      9  S   UNL     1       3.406   4.189  19.581  0.00  0.00    +0.000 S 
ENDBRANCH   2   4
BRANCH   3  10
ATOM     10  O   UNL     1       6.282   6.353  16.997  0.00  0.00    +0.000 OA
BRANCH  10  11
ATOM     11  C   UNL     1       7.342   6.719  17.884  0.00  0.00    +0.000 C 
BRANCH  11  12
ATOM     12  C   UNL     1       7.783   5.463  18.629  0.00  0.00    +0.000 C 
BRANCH  12  13
ATOM     13  O   UNL     1       7.257   5.447  19.956  0.00  0.00    +0.000 OA
ATOM     14  H   UNL     1       6.660   6.214  20.025  0.00  0.00    +0.000 HD
ENDBRANCH  12  13
ENDBRANCH  11  12
ENDBRANCH  10  11
ENDBRANCH   3  10
TORSDOF 5
ENDMDL
MODEL 3
REMARK VINA RESULT:      -5.2      1.982      2.218
REMARK  Name = 
REMARK  6 active torsions:
REMARK  status: ('A' for Active; 'I' for Inactive)
REMARK    1  A    between atoms: C_1  and  C_2
REMARK    2  A    between atoms: C_2  and  C_8
REMARK    3  A    between atoms: N_3  and  O_4
REMARK    4  A    between atoms: O_4  and  C_5
REMARK    5  A    between atoms: C_5  and  C_6
REMARK    6  A    between atoms: C_6  and  O_7
REMARK                            x       y       z     vdW  Elec       q    Type
REMARK                         _______ _______ _______ _____ _____    ______ ____
ROOT
ATOM      1  C   UNL     1       4.905   4.453  16.149  0.00  0.00    +0.000 C 
ATOM      2  C   UNL     1       5.088   4.052  17.605  0.00  0.00    +0.000 C 
ATOM      3  N   UNL     1       6.196   4.239  18.268  0.00  0.00    +0.000 NA
ENDROOT
BRANCH   2   4
ATOM      4  C   UNL     1       3.972   3.423  18.312  0.00  0.00    +0.000 A 
ATOM      5  C   UNL     1       3.223   2.323  17.921  0.00  0.00    +0.000 A 
ATOM      6  C   UNL     1       2.194   1.990  18.854  0.00  0.00    +0.000 A 
ATOM      7  C   UNL     1       2.204   2.850  19.920  0.00  0.00    +0.000 A 
ATOM      8 CL   UNL     1       1.142   2.827  21.269  0.00  0.00    +0.000 Cl
ATOM      9  S   UNL     1       3.410   4.025  19.824  0.00  0.00    +0.000 S 
ENDBRANCH   2   4
BRANCH   3  10
ATOM     10  O   UNL     1       7.188   4.831  17.472  0.00  0.00    +0.000 OA
BRANCH  10  11
ATOM     11  C   UNL     1       7.670   6.013  18.118  0.00  0.00    +0.000 C 
BRANCH  11  12
ATOM     12  C   UNL     1       7.482   5.835  19.620  0.00  0.00    +0.000 C 
BRANCH  12  13
ATOM     13  O   UNL     1       8.615   5.193  20.203  0.00  0.00    +0.000 OA
ATOM     14  H   UNL     1       8.266   4.498  20.790  0.00  0.00    +0.000 HD
ENDBRANCH  12  13
ENDBRANCH  11  12
ENDBRANCH  10  11
ENDBRANCH   3  10
TORSDOF 5
ENDMDL
MODEL 4
REMARK VINA RESULT:      -5.1      1.795      2.125
REMARK  Name = 
REMARK  6 active torsions:
REMARK  status: ('A' for Active; 'I' for Inactive)
REMARK    1  A    between atoms: C_1  and  C_2
REMARK    2  A    between atoms: C_2  and  C_8
REMARK    3  A    between atoms: N_3  and  O_4
REMARK    4  A    between atoms: O_4  and  C_5
REMARK    5  A    between atoms: C_5  and  C_6
REMARK    6  A    between atoms: C_6  and  O_7
REMARK                            x       y       z     vdW  Elec       q    Type
REMARK                         _______ _______ _______ _____ _____    ______ ____
ROOT
ATOM      1  C   UNL     1       4.671   4.648  17.016  0.00  0.00    +0.000 C 
ATOM      2  C   UNL     1       4.793   4.367  18.506  0.00  0.00    +0.000 C 
ATOM      3  N   UNL     1       5.933   4.343  19.141  0.00  0.00    +0.000 NA
ENDROOT
BRANCH   2   4
ATOM      4  C   UNL     1       3.580   4.107  19.280  0.00  0.00    +0.000 A 
ATOM      5  C   UNL     1       2.362   4.769  19.210  0.00  0.00    +0.000 A 
ATOM      6  C   UNL     1       1.397   4.256  20.130  0.00  0.00    +0.000 A 
ATOM      7  C   UNL     1       1.919   3.223  20.862  0.00  0.00    +0.000 A 
ATOM      8 CL   UNL     1       1.119   2.321  22.084  0.00  0.00    +0.000 Cl
ATOM      9  S   UNL     1       3.518   2.860  20.466  0.00  0.00    +0.000 S 
ENDBRANCH   2   4
BRANCH   3  10
ATOM     10  O   UNL     1       7.016   4.589  18.283  0.00  0.00    +0.000 OA
BRANCH  10  11
ATOM     11  C   UNL     1       7.771   5.697  18.779  0.00  0.00    +0.000 C 
BRANCH  11  12
ATOM     12  C   UNL     1       7.545   6.876  17.839  0.00  0.00    +0.000 C 
BRANCH  12  13
ATOM     13  O   UNL     1       7.619   6.462  16.475  0.00  0.00    +0.000 OA
ATOM     14  H   UNL     1       8.565   6.427  16.249  0.00  0.00    +0.000 HD
ENDBRANCH  12  13
ENDBRANCH  11  12
ENDBRANCH  10  11
ENDBRANCH   3  10
TORSDOF 5
ENDMDL
MODEL 5
REMARK VINA RESULT:      -5.1      1.956      2.386
REMARK  Name = 
REMARK  6 active torsions:
REMARK  status: ('A' for Active; 'I' for Inactive)
REMARK    1  A    between atoms: C_1  and  C_2
REMARK    2  A    between atoms: C_2  and  C_8
REMARK    3  A    between atoms: N_3  and  O_4
REMARK    4  A    between atoms: O_4  and  C_5
REMARK    5  A    between atoms: C_5  and  C_6
REMARK    6  A    between atoms: C_6  and  O_7
REMARK                            x       y       z     vdW  Elec       q    Type
REMARK                         _______ _______ _______ _____ _____    ______ ____
ROOT
ATOM      1  C   UNL     1       5.326   4.197  16.282  0.00  0.00    +0.000 C 
ATOM      2  C   UNL     1       5.288   4.057  17.796  0.00  0.00    +0.000 C 
ATOM      3  N   UNL     1       6.245   4.473  18.580  0.00  0.00    +0.000 NA
ENDROOT
BRANCH   2   4
ATOM      4  C   UNL     1       4.126   3.426  18.420  0.00  0.00    +0.000 A 
ATOM      5  C   UNL     1       3.442   2.293  18.005  0.00  0.00    +0.000 A 
ATOM      6  C   UNL     1       2.338   1.968  18.851  0.00  0.00    +0.000 A 
ATOM      7  C   UNL     1       2.227   2.867  19.878  0.00  0.00    +0.000 A 
ATOM      8 CL   UNL     1       1.044   2.867  21.122  0.00  0.00    +0.000 Cl
ATOM      9  S   UNL     1       3.410   4.069  19.848  0.00  0.00    +0.000 S 
ENDBRANCH   2   4
BRANCH   3  10
ATOM     10  O   UNL     1       7.305   5.040  17.857  0.00  0.00    +0.000 OA
BRANCH  10  11
ATOM     11  C   UNL     1       7.779   6.201  18.543  0.00  0.00    +0.000 C 
BRANCH  11  12
ATOM     12  C   UNL     1       7.608   7.397  17.613  0.00  0.00    +0.000 C 
BRANCH  12  13
ATOM     13  O   UNL     1       6.411   7.276  16.843  0.00  0.00    +0.000 OA
ATOM     14  H   UNL     1       6.683   6.964  15.961  0.00  0.00    +0.000 HD
ENDBRANCH  12  13
ENDBRANCH  11  12
ENDBRANCH  10  11
ENDBRANCH   3  10
TORSDOF 5
ENDMDL
MODEL 6
REMARK VINA RESULT:      -5.0      1.450      1.728
REMARK  Name = 
REMARK  6 active torsions:
REMARK  status: ('A' for Active; 'I' for Inactive)
REMARK    1  A    between atoms: C_1  and  C_2
REMARK    2  A    between atoms: C_2  and  C_8
REMARK    3  A    between atoms: N_3  and  O_4
REMARK    4  A    between atoms: O_4  and  C_5
REMARK    5  A    between atoms: C_5  and  C_6
REMARK    6  A    between atoms: C_6  and  O_7
REMARK                            x       y       z     vdW  Elec       q    Type
REMARK                         _______ _______ _______ _____ _____    ______ ____
ROOT
ATOM      1  C   UNL     1       4.515   4.218  16.656  0.00  0.00    +0.000 C 
ATOM      2  C   UNL     1       4.461   5.155  17.853  0.00  0.00    +0.000 C 
ATOM      3  N   UNL     1       5.233   6.199  17.983  0.00  0.00    +0.000 NA
ENDROOT
BRANCH   2   4
ATOM      4  C   UNL     1       3.500   4.884  18.922  0.00  0.00    +0.000 A 
ATOM      5  C   UNL     1       2.707   5.791  19.609  0.00  0.00    +0.000 A 
ATOM      6  C   UNL     1       1.892   5.174  20.607  0.00  0.00    +0.000 A 
ATOM      7  C   UNL     1       2.097   3.820  20.637  0.00  0.00    +0.000 A 
ATOM      8 CL   UNL     1       1.338   2.688  21.681  0.00  0.00    +0.000 Cl
ATOM      9  S   UNL     1       3.226   3.286  19.502  0.00  0.00    +0.000 S 
ENDBRANCH   2   4
BRANCH   3  10
ATOM     10  O   UNL     1       6.118   6.333  16.902  0.00  0.00    +0.000 OA
BRANCH  10  11
ATOM     11  C   UNL     1       7.392   6.767  17.385  0.00  0.00    +0.000 C 
BRANCH  11  12
ATOM     12  C   UNL     1       7.679   6.023  18.684  0.00  0.00    +0.000 C 
BRANCH  12  13
ATOM     13  O   UNL     1       7.877   4.630  18.440  0.00  0.00    +0.000 OA
ATOM     14  H   UNL     1       8.729   4.551  17.975  0.00  0.00    +0.000 HD
ENDBRANCH  12  13
ENDBRANCH  11  12
ENDBRANCH  10  11
ENDBRANCH   3  10
TORSDOF 5
ENDMDL
MODEL 7
REMARK VINA RESULT:      -5.0      1.765      1.976
REMARK  Name = 
REMARK  6 active torsions:
REMARK  status: ('A' for Active; 'I' for Inactive)
REMARK    1  A    between atoms: C_1  and  C_2
REMARK    2  A    between atoms: C_2  and  C_8
REMARK    3  A    between atoms: N_3  and  O_4
REMARK    4  A    between atoms: O_4  and  C_5
REMARK    5  A    between atoms: C_5  and  C_6
REMARK    6  A    between atoms: C_6  and  O_7
REMARK                            x       y       z     vdW  Elec       q    Type
REMARK                         _______ _______ _______ _____ _____    ______ ____
ROOT
ATOM      1  C   UNL     1       6.199   5.401  18.971  0.00  0.00    +0.000 C 
ATOM      2  C   UNL     1       4.781   5.433  18.422  0.00  0.00    +0.000 C 
ATOM      3  N   UNL     1       4.492   5.778  17.197  0.00  0.00    +0.000 NA
ENDROOT
BRANCH   2   4
ATOM      4  C   UNL     1       3.673   5.061  19.302  0.00  0.00    +0.000 A 
ATOM      5  C   UNL     1       2.673   5.877  19.811  0.00  0.00    +0.000 A 
ATOM      6  C   UNL     1       1.759   5.176  20.655  0.00  0.00    +0.000 A 
ATOM      7  C   UNL     1       2.099   3.853  20.753  0.00  0.00    +0.000 A 
ATOM      8 CL   UNL     1       1.286   2.647  21.665  0.00  0.00    +0.000 Cl
ATOM      9  S   UNL     1       3.469   3.444  19.859  0.00  0.00    +0.000 S 
ENDBRANCH   2   4
BRANCH   3  10
ATOM     10  O   UNL     1       5.638   6.128  16.468  0.00  0.00    +0.000 OA
BRANCH  10  11
ATOM     11  C   UNL     1       5.583   5.515  15.177  0.00  0.00    +0.000 C 
BRANCH  11  12
ATOM     12  C   UNL     1       6.488   4.288  15.203  0.00  0.00    +0.000 C 
BRANCH  12  13
ATOM     13  O   UNL     1       5.940   3.267  16.037  0.00  0.00    +0.000 OA
ATOM     14  H   UNL     1       6.145   3.522  16.954  0.00  0.00    +0.000 HD
ENDBRANCH  12  13
ENDBRANCH  11  12
ENDBRANCH  10  11
ENDBRANCH   3  10
TORSDOF 5
ENDMDL
MODEL 8
REMARK VINA RESULT:      -5.0      1.639      1.716
REMARK  Name = 
REMARK  6 active torsions:
REMARK  status: ('A' for Active; 'I' for Inactive)
REMARK    1  A    between atoms: C_1  and  C_2
REMARK    2  A    between atoms: C_2  and  C_8
REMARK    3  A    between atoms: N_3  and  O_4
REMARK    4  A    between atoms: O_4  and  C_5
REMARK    5  A    between atoms: C_5  and  C_6
REMARK    6  A    between atoms: C_6  and  O_7
REMARK                            x       y       z     vdW  Elec       q    Type
REMARK                         _______ _______ _______ _____ _____    ______ ____
ROOT
ATOM      1  C   UNL     1       4.047   6.884  17.428  0.00  0.00    +0.000 C 
ATOM      2  C   UNL     1       4.086   5.364  17.392  0.00  0.00    +0.000 C 
ATOM      3  N   UNL     1       4.980   4.684  16.727  0.00  0.00    +0.000 NA
ENDROOT
BRANCH   2   4
ATOM      4  C   UNL     1       3.077   4.611  18.136  0.00  0.00    +0.000 A 
ATOM      5  C   UNL     1       1.899   4.057  17.658  0.00  0.00    +0.000 A 
ATOM      6  C   UNL     1       1.140   3.400  18.675  0.00  0.00    +0.000 A 
ATOM      7  C   UNL     1       1.774   3.480  19.887  0.00  0.00    +0.000 A 
ATOM      8 CL   UNL     1       1.221   2.840  21.381  0.00  0.00    +0.000 Cl
ATOM      9  S   UNL     1       3.242   4.309  19.824  0.00  0.00    +0.000 S 
ENDBRANCH   2   4
BRANCH   3  10
ATOM     10  O   UNL     1       5.874   5.523  16.045  0.00  0.00    +0.000 OA
BRANCH  10  11
ATOM     11  C   UNL     1       6.947   4.741  15.516  0.00  0.00    +0.000 C 
BRANCH  11  12
ATOM     12  C   UNL     1       6.753   4.640  14.007  0.00  0.00    +0.000 C 
BRANCH  12  13
ATOM     13  O   UNL     1       6.311   3.334  13.636  0.00  0.00    +0.000 OA
ATOM     14  H   UNL     1       6.815   3.089  12.839  0.00  0.00    +0.000 HD
ENDBRANCH  12  13
ENDBRANCH  11  12
ENDBRANCH  10  11
ENDBRANCH   3  10
TORSDOF 5
ENDMDL
MODEL 9
REMARK VINA RESULT:      -5.0      3.946      5.626
REMARK  Name = 
REMARK  6 active torsions:
REMARK  status: ('A' for Active; 'I' for Inactive)
REMARK    1  A    between atoms: C_1  and  C_2
REMARK    2  A    between atoms: C_2  and  C_8
REMARK    3  A    between atoms: N_3  and  O_4
REMARK    4  A    between atoms: O_4  and  C_5
REMARK    5  A    between atoms: C_5  and  C_6
REMARK    6  A    between atoms: C_6  and  O_7
REMARK                            x       y       z     vdW  Elec       q    Type
REMARK                         _______ _______ _______ _____ _____    ______ ____
ROOT
ATOM      1  C   UNL     1       3.556   1.874  18.035  0.00  0.00    +0.000 C 
ATOM      2  C   UNL     1       3.925   3.188  18.707  0.00  0.00    +0.000 C 
ATOM      3  N   UNL     1       3.532   3.515  19.907  0.00  0.00    +0.000 NA
ENDROOT
BRANCH   2   4
ATOM      4  C   UNL     1       4.761   4.143  17.982  0.00  0.00    +0.000 A 
ATOM      5  C   UNL     1       4.848   4.337  16.611  0.00  0.00    +0.000 A 
ATOM      6  C   UNL     1       5.787   5.352  16.251  0.00  0.00    +0.000 A 
ATOM      7  C   UNL     1       6.376   5.891  17.363  0.00  0.00    +0.000 A 
ATOM      8 CL   UNL     1       7.565   7.129  17.400  0.00  0.00    +0.000 Cl
ATOM      9  S   UNL     1       5.825   5.216  18.808  0.00  0.00    +0.000 S 
ENDBRANCH   2   4
BRANCH   3  10
ATOM     10  O   UNL     1       2.724   2.523  20.482  0.00  0.00    +0.000 OA
BRANCH  10  11
ATOM     11  C   UNL     1       1.734   3.140  21.310  0.00  0.00    +0.000 C 
BRANCH  11  12
ATOM     12  C   UNL     1       1.274   4.418  20.617  0.00  0.00    +0.000 C 
BRANCH  12  13
ATOM     13  O   UNL     1       2.003   5.548  21.095  0.00  0.00    +0.000 OA
ATOM     14  H   UNL     1       2.828   5.201  21.479  0.00  0.00    +0.000 HD
ENDBRANCH  12  13
ENDBRANCH  11  12
ENDBRANCH  10  11
ENDBRANCH   3  10
TORSDOF 5
ENDMDL
