MODEL 1
REMARK VINA RESULT:      -8.5      0.000      0.000
REMARK  Name = 
REMARK  9 active torsions:
REMARK  status: ('A' for Active; 'I' for Inactive)
REMARK    1  A    between atoms: C_1  and  O_2
REMARK    2  A    between atoms: O_2  and  C_3
REMARK    3  A    between atoms: C_10  and  N_11
REMARK    4  A    between atoms: C_12  and  C_14
REMARK    5  A    between atoms: C_14  and  C_15
REMARK    6  A    between atoms: C_15  and  N_16
REMARK    7  A    between atoms: N_19  and  C_20
REMARK    8  A    between atoms: C_25  and  O_26
REMARK    9  A    between atoms: O_26  and  C_27
REMARK                            x       y       z     vdW  Elec       q    Type
REMARK                         _______ _______ _______ _____ _____    ______ ____
ROOT
ATOM      1  N   UNL     1       9.247   9.708  19.392  0.00  0.00    +0.000 N 
ATOM      2  C   UNL     1       8.454   9.245  18.376  0.00  0.00    +0.000 C 
ATOM      3  O   UNL     1       7.874   9.986  17.584  0.00  0.00    +0.000 OA
ATOM      4  H   UNL     1       9.791   9.003  19.896  0.00  0.00    +0.000 HD
ENDROOT
BRANCH   1  12
ATOM      5  C   UNL     1       9.152  14.733  22.992  0.00  0.00    +0.000 A 
ATOM      6  C   UNL     1      10.068  15.472  22.243  0.00  0.00    +0.000 A 
ATOM      7  C   UNL     1      10.702  14.907  21.134  0.00  0.00    +0.000 A 
ATOM      8  C   UNL     1      10.427  13.588  20.759  0.00  0.00    +0.000 A 
ATOM      9  C   UNL     1       9.471  12.857  21.480  0.00  0.00    +0.000 A 
ATOM     10  C   UNL     1       8.859  13.427  22.608  0.00  0.00    +0.000 A 
ATOM     11  C   UNL     1       9.115  11.443  21.103  0.00  0.00    +0.000 C 
ATOM     12  C   UNL     1       9.499  11.108  19.658  0.00  0.00    +0.000 C 
ATOM     13  C   UNL     1      10.960  11.490  19.429  0.00  0.00    +0.000 C 
ATOM     14  C   UNL     1      11.105  13.009  19.538  0.00  0.00    +0.000 C 
BRANCH   5  16
ATOM     15  C   UNL     1       7.220  15.699  23.976  0.00  0.00    +0.000 C 
ATOM     16  O   UNL     1       8.607  15.389  24.063  0.00  0.00    +0.000 OA
ENDBRANCH   5  16
ENDBRANCH   1  12
BRANCH   2  17
ATOM     17  C   UNL     1       8.256   7.738  18.354  0.00  0.00    +0.000 C 
BRANCH  17  18
ATOM     18  C   UNL     1       7.565   7.183  17.104  0.00  0.00    +0.000 C 
BRANCH  18  19
ATOM     19  N   UNL     1       7.521   5.713  17.040  0.00  0.00    +0.000 NA
ATOM     20  C   UNL     1       7.285   5.044  18.347  0.00  0.00    +0.000 C 
ATOM     21  C   UNL     1       5.826   5.036  18.859  0.00  0.00    +0.000 C 
ATOM     22  N   UNL     1       4.945   4.528  17.793  0.00  0.00    +0.000 N 
ATOM     23  C   UNL     1       5.033   5.334  16.568  0.00  0.00    +0.000 C 
ATOM     24  C   UNL     1       6.500   5.260  16.065  0.00  0.00    +0.000 C 
BRANCH  22  25
ATOM     25  C   UNL     1       3.744   3.899  18.111  0.00  0.00    +0.000 A 
ATOM     26  C   UNL     1       3.686   2.489  18.173  0.00  0.00    +0.000 A 
ATOM     27  C   UNL     1       2.496   1.792  18.409  0.00  0.00    +0.000 A 
ATOM     28  C   UNL     1       1.313   2.489  18.586  0.00  0.00    +0.000 A 
ATOM     29  C   UNL     1       1.336   3.879  18.569  0.00  0.00    +0.000 A 
ATOM     30  C   UNL     1       2.529   4.589  18.346  0.00  0.00    +0.000 A 
BRANCH  30  31
ATOM     31  O   UNL     1       2.334   5.942  18.462  0.00  0.00    +0.000 OA
ATOM     32  C   UNL     1       2.409   6.525  19.751  0.00  0.00    +0.000 C 
ENDBRANCH  30  31
ENDBRANCH  22  25
ENDBRANCH  18  19
ENDBRANCH  17  18
ENDBRANCH   2  17
TORSDOF 7
ENDMDL
MODEL 2
REMARK VINA RESULT:      -8.3      2.039     11.293
REMARK  Name = 
REMARK  9 active torsions:
REMARK  status: ('A' for Active; 'I' for Inactive)
REMARK    1  A    between atoms: C_1  and  O_2
REMARK    2  A    between atoms: O_2  and  C_3
REMARK    3  A    between atoms: C_10  and  N_11
REMARK    4  A    between atoms: C_12  and  C_14
REMARK    5  A    between atoms: C_14  and  C_15
REMARK    6  A    between atoms: C_15  and  N_16
REMARK    7  A    between atoms: N_19  and  C_20
REMARK    8  A    between atoms: C_25  and  O_26
REMARK    9  A    between atoms: O_26  and  C_27
REMARK                            x       y       z     vdW  Elec       q    Type
REMARK                         _______ _______ _______ _____ _____    ______ ____
ROOT
ATOM      1  N   UNL     1       6.595   7.423  17.051  0.00  0.00    +0.000 N 
ATOM      2  C   UNL     1       7.687   7.836  17.768  0.00  0.00    +0.000 C 
ATOM      3  O   UNL     1       8.209   7.158  18.650  0.00  0.00    +0.000 OA
ATOM      4  H   UNL     1       6.336   8.004  16.249  0.00  0.00    +0.000 HD
ENDROOT
BRANCH   1  12
ATOM      5  C   UNL     1       1.997   3.881  19.180  0.00  0.00    +0.000 A 
ATOM      6  C   UNL     1       2.268   2.779  18.369  0.00  0.00    +0.000 A 
ATOM      7  C   UNL     1       3.279   2.834  17.405  0.00  0.00    +0.000 A 
ATOM      8  C   UNL     1       4.032   4.000  17.239  0.00  0.00    +0.000 A 
ATOM      9  C   UNL     1       3.795   5.095  18.085  0.00  0.00    +0.000 A 
ATOM     10  C   UNL     1       2.762   5.036  19.033  0.00  0.00    +0.000 A 
ATOM     11  C   UNL     1       4.598   6.365  17.970  0.00  0.00    +0.000 C 
ATOM     12  C   UNL     1       5.928   6.153  17.239  0.00  0.00    +0.000 C 
ATOM     13  C   UNL     1       5.663   5.434  15.919  0.00  0.00    +0.000 C 
ATOM     14  C   UNL     1       5.140   4.026  16.209  0.00  0.00    +0.000 C 
BRANCH   5  16
ATOM     15  C   UNL     1       1.252   2.882  21.199  0.00  0.00    +0.000 C 
ATOM     16  O   UNL     1       0.976   3.711  20.076  0.00  0.00    +0.000 OA
ENDBRANCH   5  16
ENDBRANCH   1  12
BRANCH   2  17
ATOM     17  C   UNL     1       8.155   9.250  17.464  0.00  0.00    +0.000 C 
BRANCH  17  18
ATOM     18  C   UNL     1       8.925   9.945  18.591  0.00  0.00    +0.000 C 
BRANCH  18  19
ATOM     19  N   UNL     1       9.887  10.960  18.130  0.00  0.00    +0.000 NA
ATOM     20  C   UNL     1       9.288  12.287  17.825  0.00  0.00    +0.000 C 
ATOM     21  C   UNL     1       8.963  13.187  19.040  0.00  0.00    +0.000 C 
ATOM     22  N   UNL     1      10.158  13.286  19.897  0.00  0.00    +0.000 N 
ATOM     23  C   UNL     1      10.615  11.972  20.366  0.00  0.00    +0.000 C 
ATOM     24  C   UNL     1      10.983  11.131  19.114  0.00  0.00    +0.000 C 
BRANCH  22  25
ATOM     25  C   UNL     1      10.357  14.405  20.701  0.00  0.00    +0.000 A 
ATOM     26  C   UNL     1       9.740  14.476  21.970  0.00  0.00    +0.000 A 
ATOM     27  C   UNL     1       9.833  15.604  22.793  0.00  0.00    +0.000 A 
ATOM     28  C   UNL     1      10.548  16.710  22.367  0.00  0.00    +0.000 A 
ATOM     29  C   UNL     1      11.200  16.665  21.140  0.00  0.00    +0.000 A 
ATOM     30  C   UNL     1      11.123  15.531  20.312  0.00  0.00    +0.000 A 
BRANCH  30  31
ATOM     31  O   UNL     1      11.914  15.672  19.199  0.00  0.00    +0.000 OA
ATOM     32  C   UNL     1      11.384  16.359  18.079  0.00  0.00    +0.000 C 
ENDBRANCH  30  31
ENDBRANCH  22  25
ENDBRANCH  18  19
ENDBRANCH  17  18
ENDBRANCH   2  17
TORSDOF 7
ENDMDL
MODEL 3
REMARK VINA RESULT:      -8.3      1.091      1.568
REMARK  Name = 
REMARK  9 active torsions:
REMARK  status: ('A' for Active; 'I' for Inactive)
REMARK    1  A    between atoms: C_1  and  O_2
REMARK    2  A    between atoms: O_2  and  C_3
REMARK    3  A    between atoms: C_10  and  N_11
REMARK    4  A    between atoms: C_12  and  C_14
REMARK    5  A    between atoms: C_14  and  C_15
REMARK    6  A    between atoms: C_15  and  N_16
REMARK    7  A    between atoms: N_19  and  C_20
REMARK    8  A    between atoms: C_25  and  O_26
REMARK    9  A    between atoms: O_26  and  C_27
REMARK                            x       y       z     vdW  Elec       q    Type
REMARK                         _______ _______ _______ _____ _____    ______ ____
ROOT
ATOM      1  N   UNL     1       9.272   9.935  19.661  0.00  0.00    +0.000 N 
ATOM      2  C   UNL     1       8.635   9.470  18.541  0.00  0.00    +0.000 C 
ATOM      3  O   UNL     1       8.198  10.208  17.661  0.00  0.00    +0.000 OA
ATOM      4  H   UNL     1       9.719   9.228  20.252  0.00  0.00    +0.000 HD
ENDROOT
BRANCH   1  12
ATOM      5  C   UNL     1       8.962  14.951  23.262  0.00  0.00    +0.000 A 
ATOM      6  C   UNL     1       9.920  15.693  22.570  0.00  0.00    +0.000 A 
ATOM      7  C   UNL     1      10.619  15.131  21.498  0.00  0.00    +0.000 A 
ATOM      8  C   UNL     1      10.367  13.812  21.105  0.00  0.00    +0.000 A 
ATOM      9  C   UNL     1       9.371  13.079  21.767  0.00  0.00    +0.000 A 
ATOM     10  C   UNL     1       8.693  13.645  22.858  0.00  0.00    +0.000 A 
ATOM     11  C   UNL     1       9.038  11.665  21.366  0.00  0.00    +0.000 C 
ATOM     12  C   UNL     1       9.507  11.334  19.945  0.00  0.00    +0.000 C 
ATOM     13  C   UNL     1      10.978  11.718  19.803  0.00  0.00    +0.000 C 
ATOM     14  C   UNL     1      11.116  13.236  19.924  0.00  0.00    +0.000 C 
BRANCH   5  16
ATOM     15  C   UNL     1       7.507  14.819  25.132  0.00  0.00    +0.000 C 
ATOM     16  O   UNL     1       8.355  15.604  24.300  0.00  0.00    +0.000 OA
ENDBRANCH   5  16
ENDBRANCH   1  12
BRANCH   2  17
ATOM     17  C   UNL     1       8.414   7.966  18.508  0.00  0.00    +0.000 C 
BRANCH  17  18
ATOM     18  C   UNL     1       7.456   7.465  17.423  0.00  0.00    +0.000 C 
BRANCH  18  19
ATOM     19  N   UNL     1       7.437   6.002  17.260  0.00  0.00    +0.000 NA
ATOM     20  C   UNL     1       7.193   5.244  18.516  0.00  0.00    +0.000 C 
ATOM     21  C   UNL     1       5.726   5.180  19.003  0.00  0.00    +0.000 C 
ATOM     22  N   UNL     1       4.870   4.730  17.890  0.00  0.00    +0.000 N 
ATOM     23  C   UNL     1       4.964   5.617  16.723  0.00  0.00    +0.000 C 
ATOM     24  C   UNL     1       6.439   5.599  16.241  0.00  0.00    +0.000 C 
BRANCH  22  25
ATOM     25  C   UNL     1       3.676   4.063  18.147  0.00  0.00    +0.000 A 
ATOM     26  C   UNL     1       2.455   4.608  17.688  0.00  0.00    +0.000 A 
ATOM     27  C   UNL     1       1.214   4.032  17.979  0.00  0.00    +0.000 A 
ATOM     28  C   UNL     1       1.151   2.884  18.750  0.00  0.00    +0.000 A 
ATOM     29  C   UNL     1       2.333   2.297  19.189  0.00  0.00    +0.000 A 
ATOM     30  C   UNL     1       3.586   2.861  18.890  0.00  0.00    +0.000 A 
BRANCH  30  31
ATOM     31  O   UNL     1       4.611   2.068  19.343  0.00  0.00    +0.000 OA
ATOM     32  C   UNL     1       4.705   1.820  20.734  0.00  0.00    +0.000 C 
ENDBRANCH  30  31
ENDBRANCH  22  25
ENDBRANCH  18  19
ENDBRANCH  17  18
ENDBRANCH   2  17
TORSDOF 7
ENDMDL
MODEL 4
REMARK VINA RESULT:      -8.0      1.146      1.760
REMARK  Name = 
REMARK  9 active torsions:
REMARK  status: ('A' for Active; 'I' for Inactive)
REMARK    1  A    between atoms: C_1  and  O_2
REMARK    2  A    between atoms: O_2  and  C_3
REMARK    3  A    between atoms: C_10  and  N_11
REMARK    4  A    between atoms: C_12  and  C_14
REMARK    5  A    between atoms: C_14  and  C_15
REMARK    6  A    between atoms: C_15  and  N_16
REMARK    7  A    between atoms: N_19  and  C_20
REMARK    8  A    between atoms: C_25  and  O_26
REMARK    9  A    between atoms: O_26  and  C_27
REMARK                            x       y       z     vdW  Elec       q    Type
REMARK                         _______ _______ _______ _____ _____    ______ ____
ROOT
ATOM      1  N   UNL     1       9.115   9.699  19.398  0.00  0.00    +0.000 N 
ATOM      2  C   UNL     1       8.452   9.306  18.266  0.00  0.00    +0.000 C 
ATOM      3  O   UNL     1       8.010  10.098  17.436  0.00  0.00    +0.000 OA
ATOM      4  H   UNL     1       9.562   8.955  19.941  0.00  0.00    +0.000 HD
ENDROOT
BRANCH   1  12
ATOM      5  C   UNL     1       8.963  14.504  23.286  0.00  0.00    +0.000 A 
ATOM      6  C   UNL     1       9.913  15.273  22.613  0.00  0.00    +0.000 A 
ATOM      7  C   UNL     1      10.577  14.765  21.492  0.00  0.00    +0.000 A 
ATOM      8  C   UNL     1      10.298  13.475  21.032  0.00  0.00    +0.000 A 
ATOM      9  C   UNL     1       9.309  12.716  21.676  0.00  0.00    +0.000 A 
ATOM     10  C   UNL     1       8.667  13.227  22.815  0.00  0.00    +0.000 A 
ATOM     11  C   UNL     1       8.948  11.332  21.204  0.00  0.00    +0.000 C 
ATOM     12  C   UNL     1       9.375  11.077  19.755  0.00  0.00    +0.000 C 
ATOM     13  C   UNL     1      10.847  11.451  19.596  0.00  0.00    +0.000 C 
ATOM     14  C   UNL     1      11.008  12.958  19.800  0.00  0.00    +0.000 C 
BRANCH   5  16
ATOM     15  C   UNL     1       8.838  16.420  24.680  0.00  0.00    +0.000 C 
ATOM     16  O   UNL     1       8.391  15.103  24.375  0.00  0.00    +0.000 OA
ENDBRANCH   5  16
ENDBRANCH   1  12
BRANCH   2  17
ATOM     17  C   UNL     1       8.209   7.810  18.153  0.00  0.00    +0.000 C 
BRANCH  17  18
ATOM     18  C   UNL     1       6.863   7.406  17.543  0.00  0.00    +0.000 C 
BRANCH  18  19
ATOM     19  N   UNL     1       6.677   5.953  17.394  0.00  0.00    +0.000 NA
ATOM     20  C   UNL     1       6.615   5.204  18.677  0.00  0.00    +0.000 C 
ATOM     21  C   UNL     1       5.273   5.268  19.443  0.00  0.00    +0.000 C 
ATOM     22  N   UNL     1       4.177   4.913  18.523  0.00  0.00    +0.000 N 
ATOM     23  C   UNL     1       4.121   5.804  17.356  0.00  0.00    +0.000 C 
ATOM     24  C   UNL     1       5.465   5.657  16.593  0.00  0.00    +0.000 C 
BRANCH  22  25
ATOM     25  C   UNL     1       3.000   4.355  19.012  0.00  0.00    +0.000 A 
ATOM     26  C   UNL     1       2.209   5.079  19.934  0.00  0.00    +0.000 A 
ATOM     27  C   UNL     1       1.059   4.546  20.524  0.00  0.00    +0.000 A 
ATOM     28  C   UNL     1       0.660   3.257  20.215  0.00  0.00    +0.000 A 
ATOM     29  C   UNL     1       1.391   2.526  19.285  0.00  0.00    +0.000 A 
ATOM     30  C   UNL     1       2.541   3.058  18.676  0.00  0.00    +0.000 A 
BRANCH  30  31
ATOM     31  O   UNL     1       3.046   2.201  17.729  0.00  0.00    +0.000 OA
ATOM     32  C   UNL     1       4.112   1.344  18.097  0.00  0.00    +0.000 C 
ENDBRANCH  30  31
ENDBRANCH  22  25
ENDBRANCH  18  19
ENDBRANCH  17  18
ENDBRANCH   2  17
TORSDOF 7
ENDMDL
MODEL 5
REMARK VINA RESULT:      -7.7      2.267     10.862
REMARK  Name = 
REMARK  9 active torsions:
REMARK  status: ('A' for Active; 'I' for Inactive)
REMARK    1  A    between atoms: C_1  and  O_2
REMARK    2  A    between atoms: O_2  and  C_3
REMARK    3  A    between atoms: C_10  and  N_11
REMARK    4  A    between atoms: C_12  and  C_14
REMARK    5  A    between atoms: C_14  and  C_15
REMARK    6  A    between atoms: C_15  and  N_16
REMARK    7  A    between atoms: N_19  and  C_20
REMARK    8  A    between atoms: C_25  and  O_26
REMARK    9  A    between atoms: O_26  and  C_27
REMARK                            x       y       z     vdW  Elec       q    Type
REMARK                         _______ _______ _______ _____ _____    ______ ____
ROOT
ATOM      1  N   UNL     1       6.722   7.484  17.161  0.00  0.00    +0.000 N 
ATOM      2  C   UNL     1       7.796   7.799  17.952  0.00  0.00    +0.000 C 
ATOM      3  O   UNL     1       8.304   7.006  18.742  0.00  0.00    +0.000 OA
ATOM      4  H   UNL     1       6.475   8.170  16.443  0.00  0.00    +0.000 HD
ENDROOT
BRANCH   1  12
ATOM      5  C   UNL     1       2.553   3.428  19.257  0.00  0.00    +0.000 A 
ATOM      6  C   UNL     1       2.598   2.580  18.149  0.00  0.00    +0.000 A 
ATOM      7  C   UNL     1       3.378   2.903  17.036  0.00  0.00    +0.000 A 
ATOM      8  C   UNL     1       4.125   4.085  17.016  0.00  0.00    +0.000 A 
ATOM      9  C   UNL     1       4.120   4.917  18.146  0.00  0.00    +0.000 A 
ATOM     10  C   UNL     1       3.314   4.595  19.249  0.00  0.00    +0.000 A 
ATOM     11  C   UNL     1       4.929   6.188  18.190  0.00  0.00    +0.000 C 
ATOM     12  C   UNL     1       6.061   6.198  17.157  0.00  0.00    +0.000 C 
ATOM     13  C   UNL     1       5.488   5.842  15.786  0.00  0.00    +0.000 C 
ATOM     14  C   UNL     1       4.984   4.399  15.811  0.00  0.00    +0.000 C 
BRANCH   5  16
ATOM     15  C   UNL     1       2.061   3.505  21.576  0.00  0.00    +0.000 C 
ATOM     16  O   UNL     1       1.744   3.012  20.279  0.00  0.00    +0.000 OA
ENDBRANCH   5  16
ENDBRANCH   1  12
BRANCH   2  17
ATOM     17  C   UNL     1       8.259   9.243  17.858  0.00  0.00    +0.000 C 
BRANCH  17  18
ATOM     18  C   UNL     1       8.918   9.806  19.121  0.00  0.00    +0.000 C 
BRANCH  18  19
ATOM     19  N   UNL     1       9.985  10.787  18.860  0.00  0.00    +0.000 NA
ATOM     20  C   UNL     1       9.662  11.786  17.806  0.00  0.00    +0.000 C 
ATOM     21  C   UNL     1       8.735  12.950  18.228  0.00  0.00    +0.000 C 
ATOM     22  N   UNL     1       9.267  13.569  19.455  0.00  0.00    +0.000 N 
ATOM     23  C   UNL     1       9.381  12.606  20.558  0.00  0.00    +0.000 C 
ATOM     24  C   UNL     1      10.366  11.494  20.107  0.00  0.00    +0.000 C 
BRANCH  22  25
ATOM     25  C   UNL     1       9.004  14.906  19.740  0.00  0.00    +0.000 A 
ATOM     26  C   UNL     1      10.033  15.866  19.609  0.00  0.00    +0.000 A 
ATOM     27  C   UNL     1       9.859  17.210  19.955  0.00  0.00    +0.000 A 
ATOM     28  C   UNL     1       8.641  17.642  20.453  0.00  0.00    +0.000 A 
ATOM     29  C   UNL     1       7.593  16.734  20.561  0.00  0.00    +0.000 A 
ATOM     30  C   UNL     1       7.754  15.384  20.203  0.00  0.00    +0.000 A 
BRANCH  30  31
ATOM     31  O   UNL     1       6.570  14.697  20.304  0.00  0.00    +0.000 OA
ATOM     32  C   UNL     1       5.472  15.336  20.930  0.00  0.00    +0.000 C 
ENDBRANCH  30  31
ENDBRANCH  22  25
ENDBRANCH  18  19
ENDBRANCH  17  18
ENDBRANCH   2  17
TORSDOF 7
ENDMDL
MODEL 6
REMARK VINA RESULT:      -7.6      2.435      2.495
REMARK  Name = 
REMARK  9 active torsions:
REMARK  status: ('A' for Active; 'I' for Inactive)
REMARK    1  A    between atoms: C_1  and  O_2
REMARK    2  A    between atoms: O_2  and  C_3
REMARK    3  A    between atoms: C_10  and  N_11
REMARK    4  A    between atoms: C_12  and  C_14
REMARK    5  A    between atoms: C_14  and  C_15
REMARK    6  A    between atoms: C_15  and  N_16
REMARK    7  A    between atoms: N_19  and  C_20
REMARK    8  A    between atoms: C_25  and  O_26
REMARK    9  A    between atoms: O_26  and  C_27
REMARK                            x       y       z     vdW  Elec       q    Type
REMARK                         _______ _______ _______ _____ _____    ______ ____
ROOT
ATOM      1  N   UNL     1       9.519  10.399  17.784  0.00  0.00    +0.000 N 
ATOM      2  C   UNL     1       9.026   9.758  18.891  0.00  0.00    +0.000 C 
ATOM      3  O   UNL     1       9.012  10.264  20.011  0.00  0.00    +0.000 OA
ATOM      4  H   UNL     1       9.348   9.941  16.885  0.00  0.00    +0.000 HD
ENDROOT
BRANCH   1  12
ATOM      5  C   UNL     1       9.109  16.532  18.451  0.00  0.00    +0.000 A 
ATOM      6  C   UNL     1      10.477  16.758  18.607  0.00  0.00    +0.000 A 
ATOM      7  C   UNL     1      11.375  15.689  18.653  0.00  0.00    +0.000 A 
ATOM      8  C   UNL     1      10.913  14.373  18.545  0.00  0.00    +0.000 A 
ATOM      9  C   UNL     1       9.545  14.143  18.340  0.00  0.00    +0.000 A 
ATOM     10  C   UNL     1       8.648  15.224  18.321  0.00  0.00    +0.000 A 
ATOM     11  C   UNL     1       8.996  12.748  18.188  0.00  0.00    +0.000 C 
ATOM     12  C   UNL     1      10.076  11.734  17.795  0.00  0.00    +0.000 C 
ATOM     13  C   UNL     1      11.255  11.864  18.756  0.00  0.00    +0.000 C 
ATOM     14  C   UNL     1      11.909  13.234  18.568  0.00  0.00    +0.000 C 
BRANCH   5  16
ATOM     15  C   UNL     1       7.033  17.535  19.014  0.00  0.00    +0.000 C 
ATOM     16  O   UNL     1       8.328  17.656  18.435  0.00  0.00    +0.000 OA
ENDBRANCH   5  16
ENDBRANCH   1  12
BRANCH   2  17
ATOM     17  C   UNL     1       8.585   8.323  18.656  0.00  0.00    +0.000 C 
BRANCH  17  18
ATOM     18  C   UNL     1       7.575   8.122  17.522  0.00  0.00    +0.000 C 
BRANCH  18  19
ATOM     19  N   UNL     1       7.491   6.739  17.023  0.00  0.00    +0.000 NA
ATOM     20  C   UNL     1       7.441   5.701  18.087  0.00  0.00    +0.000 C 
ATOM     21  C   UNL     1       6.076   5.501  18.786  0.00  0.00    +0.000 C 
ATOM     22  N   UNL     1       5.034   5.316  17.760  0.00  0.00    +0.000 N 
ATOM     23  C   UNL     1       4.953   6.456  16.837  0.00  0.00    +0.000 C 
ATOM     24  C   UNL     1       6.326   6.575  16.121  0.00  0.00    +0.000 C 
BRANCH  22  25
ATOM     25  C   UNL     1       3.883   4.589  18.050  0.00  0.00    +0.000 A 
ATOM     26  C   UNL     1       3.644   3.361  17.392  0.00  0.00    +0.000 A 
ATOM     27  C   UNL     1       2.471   2.621  17.577  0.00  0.00    +0.000 A 
ATOM     28  C   UNL     1       1.487   3.091  18.429  0.00  0.00    +0.000 A 
ATOM     29  C   UNL     1       1.701   4.277  19.122  0.00  0.00    +0.000 A 
ATOM     30  C   UNL     1       2.882   5.022  18.954  0.00  0.00    +0.000 A 
BRANCH  30  31
ATOM     31  O   UNL     1       2.917   6.101  19.801  0.00  0.00    +0.000 OA
ATOM     32  C   UNL     1       2.324   7.313  19.372  0.00  0.00    +0.000 C 
ENDBRANCH  30  31
ENDBRANCH  22  25
ENDBRANCH  18  19
ENDBRANCH  17  18
ENDBRANCH   2  17
TORSDOF 7
ENDMDL
MODEL 7
REMARK VINA RESULT:      -7.5      5.810      7.703
REMARK  Name = 
REMARK  9 active torsions:
REMARK  status: ('A' for Active; 'I' for Inactive)
REMARK    1  A    between atoms: C_1  and  O_2
REMARK    2  A    between atoms: O_2  and  C_3
REMARK    3  A    between atoms: C_10  and  N_11
REMARK    4  A    between atoms: C_12  and  C_14
REMARK    5  A    between atoms: C_14  and  C_15
REMARK    6  A    between atoms: C_15  and  N_16
REMARK    7  A    between atoms: N_19  and  C_20
REMARK    8  A    between atoms: C_25  and  O_26
REMARK    9  A    between atoms: O_26  and  C_27
REMARK                            x       y       z     vdW  Elec       q    Type
REMARK                         _______ _______ _______ _____ _____    ______ ____
ROOT
ATOM      1  N   UNL     1       2.189   6.181  20.256  0.00  0.00    +0.000 N 
ATOM      2  C   UNL     1       1.519   5.025  20.561  0.00  0.00    +0.000 C 
ATOM      3  O   UNL     1       0.299   4.910  20.468  0.00  0.00    +0.000 OA
ATOM      4  H   UNL     1       3.210   6.117  20.233  0.00  0.00    +0.000 HD
ENDROOT
BRANCH   1  12
ATOM      5  C   UNL     1      -0.206  11.816  21.110  0.00  0.00    +0.000 A 
ATOM      6  C   UNL     1      -0.174  12.198  19.769  0.00  0.00    +0.000 A 
ATOM      7  C   UNL     1       0.389  11.360  18.802  0.00  0.00    +0.000 A 
ATOM      8  C   UNL     1       0.931  10.124  19.168  0.00  0.00    +0.000 A 
ATOM      9  C   UNL     1       0.858   9.715  20.508  0.00  0.00    +0.000 A 
ATOM     10  C   UNL     1       0.313  10.576  21.475  0.00  0.00    +0.000 A 
ATOM     11  C   UNL     1       1.400   8.382  20.954  0.00  0.00    +0.000 C 
ATOM     12  C   UNL     1       1.553   7.394  19.792  0.00  0.00    +0.000 C 
ATOM     13  C   UNL     1       2.335   8.067  18.666  0.00  0.00    +0.000 C 
ATOM     14  C   UNL     1       1.508   9.223  18.100  0.00  0.00    +0.000 C 
BRANCH   5  16
ATOM     15  C   UNL     1      -1.477  12.193  23.078  0.00  0.00    +0.000 C 
ATOM     16  O   UNL     1      -0.769  12.725  21.964  0.00  0.00    +0.000 OA
ENDBRANCH   5  16
ENDBRANCH   1  12
BRANCH   2  17
ATOM     17  C   UNL     1       2.387   3.912  21.125  0.00  0.00    +0.000 C 
BRANCH  17  18
ATOM     18  C   UNL     1       2.221   2.544  20.455  0.00  0.00    +0.000 C 
BRANCH  18  19
ATOM     19  N   UNL     1       3.484   1.932  20.009  0.00  0.00    +0.000 NA
ATOM     20  C   UNL     1       3.471   1.442  18.605  0.00  0.00    +0.000 C 
ATOM     21  C   UNL     1       3.636   2.515  17.504  0.00  0.00    +0.000 C 
ATOM     22  N   UNL     1       4.820   3.339  17.809  0.00  0.00    +0.000 N 
ATOM     23  C   UNL     1       4.720   3.991  19.121  0.00  0.00    +0.000 C 
ATOM     24  C   UNL     1       4.616   2.871  20.192  0.00  0.00    +0.000 C 
BRANCH  22  25
ATOM     25  C   UNL     1       5.522   3.969  16.785  0.00  0.00    +0.000 A 
ATOM     26  C   UNL     1       4.912   4.147  15.522  0.00  0.00    +0.000 A 
ATOM     27  C   UNL     1       5.587   4.699  14.429  0.00  0.00    +0.000 A 
ATOM     28  C   UNL     1       6.909   5.090  14.561  0.00  0.00    +0.000 A 
ATOM     29  C   UNL     1       7.532   4.965  15.798  0.00  0.00    +0.000 A 
ATOM     30  C   UNL     1       6.858   4.423  16.906  0.00  0.00    +0.000 A 
BRANCH  30  31
ATOM     31  O   UNL     1       7.632   4.481  18.038  0.00  0.00    +0.000 OA
ATOM     32  C   UNL     1       7.761   5.724  18.703  0.00  0.00    +0.000 C 
ENDBRANCH  30  31
ENDBRANCH  22  25
ENDBRANCH  18  19
ENDBRANCH  17  18
ENDBRANCH   2  17
TORSDOF 7
ENDMDL
MODEL 8
REMARK VINA RESULT:      -7.5      5.636      7.757
REMARK  Name = 
REMARK  9 active torsions:
REMARK  status: ('A' for Active; 'I' for Inactive)
REMARK    1  A    between atoms: C_1  and  O_2
REMARK    2  A    between atoms: O_2  and  C_3
REMARK    3  A    between atoms: C_10  and  N_11
REMARK    4  A    between atoms: C_12  and  C_14
REMARK    5  A    between atoms: C_14  and  C_15
REMARK    6  A    between atoms: C_15  and  N_16
REMARK    7  A    between atoms: N_19  and  C_20
REMARK    8  A    between atoms: C_25  and  O_26
REMARK    9  A    between atoms: O_26  and  C_27
REMARK                            x       y       z     vdW  Elec       q    Type
REMARK                         _______ _______ _______ _____ _____    ______ ____
ROOT
ATOM      1  N   UNL     1       2.261   5.749  19.943  0.00  0.00    +0.000 N 
ATOM      2  C   UNL     1       1.515   4.674  20.350  0.00  0.00    +0.000 C 
ATOM      3  O   UNL     1       0.288   4.694  20.418  0.00  0.00    +0.000 OA
ATOM      4  H   UNL     1       3.257   5.573  19.788  0.00  0.00    +0.000 HD
ENDROOT
BRANCH   1  12
ATOM      5  C   UNL     1       0.117  11.424  21.132  0.00  0.00    +0.000 A 
ATOM      6  C   UNL     1       0.223  11.902  19.825  0.00  0.00    +0.000 A 
ATOM      7  C   UNL     1       0.783  11.109  18.819  0.00  0.00    +0.000 A 
ATOM      8  C   UNL     1       1.247   9.823  19.111  0.00  0.00    +0.000 A 
ATOM      9  C   UNL     1       1.099   9.320  20.413  0.00  0.00    +0.000 A 
ATOM     10  C   UNL     1       0.558  10.135  21.420  0.00  0.00    +0.000 A 
ATOM     11  C   UNL     1       1.555   7.931  20.776  0.00  0.00    +0.000 C 
ATOM     12  C   UNL     1       1.706   7.025  19.549  0.00  0.00    +0.000 C 
ATOM     13  C   UNL     1       2.566   7.737  18.507  0.00  0.00    +0.000 C 
ATOM     14  C   UNL     1       1.822   8.973  18.000  0.00  0.00    +0.000 C 
BRANCH   5  16
ATOM     15  C   UNL     1      -1.334  11.739  22.982  0.00  0.00    +0.000 C 
ATOM     16  O   UNL     1      -0.434  12.297  22.030  0.00  0.00    +0.000 OA
ENDBRANCH   5  16
ENDBRANCH   1  12
BRANCH   2  17
ATOM     17  C   UNL     1       2.323   3.472  20.811  0.00  0.00    +0.000 C 
BRANCH  17  18
ATOM     18  C   UNL     1       1.984   2.147  20.121  0.00  0.00    +0.000 C 
BRANCH  18  19
ATOM     19  N   UNL     1       3.050   1.632  19.244  0.00  0.00    +0.000 NA
ATOM     20  C   UNL     1       2.975   2.105  17.837  0.00  0.00    +0.000 C 
ATOM     21  C   UNL     1       3.487   3.540  17.569  0.00  0.00    +0.000 C 
ATOM     22  N   UNL     1       4.835   3.684  18.147  0.00  0.00    +0.000 N 
ATOM     23  C   UNL     1       4.852   3.417  19.591  0.00  0.00    +0.000 C 
ATOM     24  C   UNL     1       4.387   1.951  19.800  0.00  0.00    +0.000 C 
BRANCH  22  25
ATOM     25  C   UNL     1       5.736   4.601  17.612  0.00  0.00    +0.000 A 
ATOM     26  C   UNL     1       6.234   5.649  18.419  0.00  0.00    +0.000 A 
ATOM     27  C   UNL     1       7.078   6.648  17.923  0.00  0.00    +0.000 A 
ATOM     28  C   UNL     1       7.452   6.635  16.590  0.00  0.00    +0.000 A 
ATOM     29  C   UNL     1       7.013   5.600  15.773  0.00  0.00    +0.000 A 
ATOM     30  C   UNL     1       6.174   4.583  16.265  0.00  0.00    +0.000 A 
BRANCH  30  31
ATOM     31  O   UNL     1       5.943   3.623  15.313  0.00  0.00    +0.000 OA
ATOM     32  C   UNL     1       6.262   3.920  13.965  0.00  0.00    +0.000 C 
ENDBRANCH  30  31
ENDBRANCH  22  25
ENDBRANCH  18  19
ENDBRANCH  17  18
ENDBRANCH   2  17
TORSDOF 7
ENDMDL
MODEL 9
REMARK VINA RESULT:      -7.5      1.902      2.501
REMARK  Name = 
REMARK  9 active torsions:
REMARK  status: ('A' for Active; 'I' for Inactive)
REMARK    1  A    between atoms: C_1  and  O_2
REMARK    2  A    between atoms: O_2  and  C_3
REMARK    3  A    between atoms: C_10  and  N_11
REMARK    4  A    between atoms: C_12  and  C_14
REMARK    5  A    between atoms: C_14  and  C_15
REMARK    6  A    between atoms: C_15  and  N_16
REMARK    7  A    between atoms: N_19  and  C_20
REMARK    8  A    between atoms: C_25  and  O_26
REMARK    9  A    between atoms: O_26  and  C_27
REMARK                            x       y       z     vdW  Elec       q    Type
REMARK                         _______ _______ _______ _____ _____    ______ ____
ROOT
ATOM      1  N   UNL     1       8.674  10.923  17.559  0.00  0.00    +0.000 N 
ATOM      2  C   UNL     1       8.593   9.755  18.271  0.00  0.00    +0.000 C 
ATOM      3  O   UNL     1       9.294   9.515  19.252  0.00  0.00    +0.000 OA
ATOM      4  H   UNL     1       7.947  11.073  16.854  0.00  0.00    +0.000 HD
ENDROOT
BRANCH   1  12
ATOM      5  C   UNL     1      10.348  15.984  20.691  0.00  0.00    +0.000 A 
ATOM      6  C   UNL     1      11.701  15.929  20.353  0.00  0.00    +0.000 A 
ATOM      7  C   UNL     1      12.206  14.862  19.605  0.00  0.00    +0.000 A 
ATOM      8  C   UNL     1      11.360  13.831  19.186  0.00  0.00    +0.000 A 
ATOM      9  C   UNL     1       9.991  13.906  19.482  0.00  0.00    +0.000 A 
ATOM     10  C   UNL     1       9.499  14.970  20.255  0.00  0.00    +0.000 A 
ATOM     11  C   UNL     1       9.029  12.838  19.029  0.00  0.00    +0.000 C 
ATOM     12  C   UNL     1       9.583  12.005  17.868  0.00  0.00    +0.000 C 
ATOM     13  C   UNL     1      10.979  11.507  18.233  0.00  0.00    +0.000 C 
ATOM     14  C   UNL     1      11.926  12.702  18.353  0.00  0.00    +0.000 C 
BRANCH   5  16
ATOM     15  C   UNL     1      10.717  18.265  21.228  0.00  0.00    +0.000 C 
ATOM     16  O   UNL     1       9.975  17.069  21.437  0.00  0.00    +0.000 OA
ENDBRANCH   5  16
ENDBRANCH   1  12
BRANCH   2  17
ATOM     17  C   UNL     1       7.635   8.722  17.700  0.00  0.00    +0.000 C 
BRANCH  17  18
ATOM     18  C   UNL     1       7.846   7.287  18.191  0.00  0.00    +0.000 C 
BRANCH  18  19
ATOM     19  N   UNL     1       7.154   6.265  17.388  0.00  0.00    +0.000 NA
ATOM     20  C   UNL     1       7.015   4.944  18.057  0.00  0.00    +0.000 C 
ATOM     21  C   UNL     1       5.895   4.828  19.118  0.00  0.00    +0.000 C 
ATOM     22  N   UNL     1       4.630   5.307  18.534  0.00  0.00    +0.000 N 
ATOM     23  C   UNL     1       4.723   6.696  18.067  0.00  0.00    +0.000 C 
ATOM     24  C   UNL     1       5.817   6.745  16.966  0.00  0.00    +0.000 C 
BRANCH  22  25
ATOM     25  C   UNL     1       3.411   4.826  19.005  0.00  0.00    +0.000 A 
ATOM     26  C   UNL     1       2.649   5.605  19.905  0.00  0.00    +0.000 A 
ATOM     27  C   UNL     1       1.458   5.148  20.478  0.00  0.00    +0.000 A 
ATOM     28  C   UNL     1       0.986   3.884  20.171  0.00  0.00    +0.000 A 
ATOM     29  C   UNL     1       1.688   3.101  19.261  0.00  0.00    +0.000 A 
ATOM     30  C   UNL     1       2.880   3.556  18.670  0.00  0.00    +0.000 A 
BRANCH  30  31
ATOM     31  O   UNL     1       3.349   2.662  17.740  0.00  0.00    +0.000 OA
ATOM     32  C   UNL     1       3.712   1.364  18.177  0.00  0.00    +0.000 C 
ENDBRANCH  30  31
ENDBRANCH  22  25
ENDBRANCH  18  19
ENDBRANCH  17  18
ENDBRANCH   2  17
TORSDOF 7
ENDMDL
