MODEL 1
REMARK VINA RESULT:      -7.3      0.000      0.000
REMARK  Name = 
REMARK  5 active torsions:
REMARK  status: ('A' for Active; 'I' for Inactive)
REMARK    1  A    between atoms: C_2  and  C_3
REMARK    2  A    between atoms: N_5  and  C_6
REMARK    3  A    between atoms: N_9  and  C_10
REMARK    4  A    between atoms: C_10  and  C_11
REMARK    5  A    between atoms: C_11  and  N_12
REMARK                            x       y       z     vdW  Elec       q    Type
REMARK                         _______ _______ _______ _____ _____    ______ ____
ROOT
ATOM      1  C   UNL     1       6.348  15.537  19.970  0.00  0.00    +0.000 A 
ATOM      2  N   UNL     1       6.175  14.867  21.115  0.00  0.00    +0.000 NA
ATOM      3  N   UNL     1       7.306  14.152  21.303  0.00  0.00    +0.000 N 
ATOM      4  C   UNL     1       8.207  14.293  20.265  0.00  0.00    +0.000 A 
ATOM      5  C   UNL     1       7.597  15.195  19.401  0.00  0.00    +0.000 A 
ATOM      6  C   UNL     1       8.203  15.684  18.143  0.00  0.00    +0.000 C 
ATOM      7  S   UNL     1       9.970  15.855  18.351  0.00  0.00    +0.000 S 
ATOM      8  O   UNL     1      10.244  16.940  19.279  0.00  0.00    +0.000 OA
ATOM      9  O   UNL     1      10.578  15.833  17.034  0.00  0.00    +0.000 OA
ATOM     10  C   UNL     1      10.446  14.353  19.178  0.00  0.00    +0.000 A 
ATOM     11  C   UNL     1      11.710  13.826  18.884  0.00  0.00    +0.000 A 
ATOM     12  C   UNL     1      12.105  12.633  19.475  0.00  0.00    +0.000 A 
ATOM     13  C   UNL     1      11.234  11.968  20.332  0.00  0.00    +0.000 A 
ATOM     14  C   UNL     1       9.959  12.489  20.603  0.00  0.00    +0.000 A 
ATOM     15  C   UNL     1       9.539  13.703  20.048  0.00  0.00    +0.000 A 
ENDROOT
BRANCH   1  17
ATOM     16  O   UNL     1       5.518  17.641  19.367  0.00  0.00    +0.000 OA
ATOM     17  C   UNL     1       5.330  16.421  19.361  0.00  0.00    +0.000 C 
ATOM     18  N   UNL     1       4.165  15.877  18.827  0.00  0.00    +0.000 N 
ATOM     19  C   UNL     1       3.221  16.745  18.121  0.00  0.00    +0.000 C 
ATOM     20  C   UNL     1       1.813  16.620  18.713  0.00  0.00    +0.000 C 
ATOM     21  O   UNL     1       1.385  15.249  18.738  0.00  0.00    +0.000 OA
ATOM     22  C   UNL     1       2.280  14.457  19.530  0.00  0.00    +0.000 C 
ATOM     23  C   UNL     1       3.706  14.489  18.966  0.00  0.00    +0.000 C 
ENDBRANCH   1  17
BRANCH   3  24
ATOM     24  C   UNL     1       7.381  13.290  22.475  0.00  0.00    +0.000 C 
ATOM     25  C   UNL     1       5.991  13.011  23.036  0.00  0.00    +0.000 C 
ATOM     26  C   UNL     1       5.848  14.051  24.134  0.00  0.00    +0.000 C 
ATOM     27  N   UNL     1       7.174  14.107  24.776  0.00  0.00    +0.000 NA
ATOM     28  C   UNL     1       8.144  13.882  23.674  0.00  0.00    +0.000 C 
BRANCH  27  29
ATOM     29  C   UNL     1       7.297  13.130  25.873  0.00  0.00    +0.000 C 
BRANCH  29  30
ATOM     30  C   UNL     1       6.238  13.343  26.966  0.00  0.00    +0.000 C 
BRANCH  30  31
ATOM     31  N   UNL     1       5.293  12.250  27.049  0.00  0.00    +0.000 N 
ATOM     32  C   UNL     1       5.453  11.005  26.505  0.00  0.00    +0.000 A 
ATOM     33  C   UNL     1       4.356  10.293  26.931  0.00  0.00    +0.000 A 
ATOM     34  N   UNL     1       3.541  11.075  27.708  0.00  0.00    +0.000 NA
ATOM     35  C   UNL     1       4.136  12.245  27.770  0.00  0.00    +0.000 A 
ENDBRANCH  30  31
ENDBRANCH  29  30
ENDBRANCH  27  29
ENDBRANCH   3  24
TORSDOF 5
ENDMDL
MODEL 2
REMARK VINA RESULT:      -7.1      6.364      9.605
REMARK  Name = 
REMARK  5 active torsions:
REMARK  status: ('A' for Active; 'I' for Inactive)
REMARK    1  A    between atoms: C_2  and  C_3
REMARK    2  A    between atoms: N_5  and  C_6
REMARK    3  A    between atoms: N_9  and  C_10
REMARK    4  A    between atoms: C_10  and  C_11
REMARK    5  A    between atoms: C_11  and  N_12
REMARK                            x       y       z     vdW  Elec       q    Type
REMARK                         _______ _______ _______ _____ _____    ______ ____
ROOT
ATOM      1  C   UNL     1       1.805  13.369  21.017  0.00  0.00    +0.000 A 
ATOM      2  N   UNL     1       1.621  12.059  20.817  0.00  0.00    +0.000 NA
ATOM      3  N   UNL     1       0.388  11.779  21.292  0.00  0.00    +0.000 N 
ATOM      4  C   UNL     1      -0.228  12.877  21.861  0.00  0.00    +0.000 A 
ATOM      5  C   UNL     1       0.680  13.913  21.680  0.00  0.00    +0.000 A 
ATOM      6  C   UNL     1       0.446  15.311  22.106  0.00  0.00    +0.000 C 
ATOM      7  S   UNL     1      -1.280  15.724  21.898  0.00  0.00    +0.000 S 
ATOM      8  O   UNL     1      -1.600  15.765  20.481  0.00  0.00    +0.000 OA
ATOM      9  O   UNL     1      -1.574  16.854  22.759  0.00  0.00    +0.000 OA
ATOM     10  C   UNL     1      -2.135  14.314  22.566  0.00  0.00    +0.000 A 
ATOM     11  C   UNL     1      -3.363  14.543  23.201  0.00  0.00    +0.000 A 
ATOM     12  C   UNL     1      -4.043  13.478  23.774  0.00  0.00    +0.000 A 
ATOM     13  C   UNL     1      -3.489  12.202  23.728  0.00  0.00    +0.000 A 
ATOM     14  C   UNL     1      -2.247  11.983  23.112  0.00  0.00    +0.000 A 
ATOM     15  C   UNL     1      -1.547  13.029  22.499  0.00  0.00    +0.000 A 
ENDROOT
BRANCH   1  17
ATOM     16  O   UNL     1       3.991  14.073  21.474  0.00  0.00    +0.000 OA
ATOM     17  C   UNL     1       3.048  14.096  20.677  0.00  0.00    +0.000 C 
ATOM     18  N   UNL     1       3.129  14.821  19.491  0.00  0.00    +0.000 N 
ATOM     19  C   UNL     1       4.401  15.435  19.106  0.00  0.00    +0.000 C 
ATOM     20  C   UNL     1       4.226  16.934  18.837  0.00  0.00    +0.000 C 
ATOM     21  O   UNL     1       3.189  17.165  17.869  0.00  0.00    +0.000 OA
ATOM     22  C   UNL     1       1.939  16.642  18.337  0.00  0.00    +0.000 C 
ATOM     23  C   UNL     1       2.021  15.129  18.579  0.00  0.00    +0.000 C 
ENDBRANCH   1  17
BRANCH   3  24
ATOM     24  C   UNL     1      -0.068  10.397  21.233  0.00  0.00    +0.000 C 
ATOM     25  C   UNL     1       0.218   9.672  22.543  0.00  0.00    +0.000 C 
ATOM     26  C   UNL     1       1.539   8.974  22.269  0.00  0.00    +0.000 C 
ATOM     27  N   UNL     1       1.428   8.488  20.881  0.00  0.00    +0.000 NA
ATOM     28  C   UNL     1       0.631   9.523  20.175  0.00  0.00    +0.000 C 
BRANCH  27  29
ATOM     29  C   UNL     1       0.832   7.142  20.814  0.00  0.00    +0.000 C 
BRANCH  29  30
ATOM     30  C   UNL     1       1.894   6.031  20.837  0.00  0.00    +0.000 C 
BRANCH  30  31
ATOM     31  N   UNL     1       1.574   4.935  19.948  0.00  0.00    +0.000 N 
ATOM     32  C   UNL     1       1.915   4.844  18.628  0.00  0.00    +0.000 A 
ATOM     33  C   UNL     1       1.488   3.595  18.240  0.00  0.00    +0.000 A 
ATOM     34  N   UNL     1       0.895   2.938  19.288  0.00  0.00    +0.000 NA
ATOM     35  C   UNL     1       0.970   3.765  20.306  0.00  0.00    +0.000 A 
ENDBRANCH  30  31
ENDBRANCH  29  30
ENDBRANCH  27  29
ENDBRANCH   3  24
TORSDOF 5
ENDMDL
MODEL 3
REMARK VINA RESULT:      -7.1      6.826     11.000
REMARK  Name = 
REMARK  5 active torsions:
REMARK  status: ('A' for Active; 'I' for Inactive)
REMARK    1  A    between atoms: C_2  and  C_3
REMARK    2  A    between atoms: N_5  and  C_6
REMARK    3  A    between atoms: N_9  and  C_10
REMARK    4  A    between atoms: C_10  and  C_11
REMARK    5  A    between atoms: C_11  and  N_12
REMARK                            x       y       z     vdW  Elec       q    Type
REMARK                         _______ _______ _______ _____ _____    ______ ____
ROOT
ATOM      1  C   UNL     1       0.640  13.407  19.911  0.00  0.00    +0.000 A 
ATOM      2  N   UNL     1      -0.182  12.538  19.311  0.00  0.00    +0.000 NA
ATOM      3  N   UNL     1      -1.236  12.388  20.142  0.00  0.00    +0.000 N 
ATOM      4  C   UNL     1      -1.098  13.102  21.316  0.00  0.00    +0.000 A 
ATOM      5  C   UNL     1       0.111  13.772  21.171  0.00  0.00    +0.000 A 
ATOM      6  C   UNL     1       0.678  14.698  22.177  0.00  0.00    +0.000 C 
ATOM      7  S   UNL     1      -0.641  15.606  22.971  0.00  0.00    +0.000 S 
ATOM      8  O   UNL     1      -1.250  16.511  22.012  0.00  0.00    +0.000 OA
ATOM      9  O   UNL     1      -0.141  16.096  24.242  0.00  0.00    +0.000 OA
ATOM     10  C   UNL     1      -1.858  14.357  23.328  0.00  0.00    +0.000 A 
ATOM     11  C   UNL     1      -2.628  14.517  24.488  0.00  0.00    +0.000 A 
ATOM     12  C   UNL     1      -3.560  13.546  24.826  0.00  0.00    +0.000 A 
ATOM     13  C   UNL     1      -3.702  12.418  24.023  0.00  0.00    +0.000 A 
ATOM     14  C   UNL     1      -2.910  12.252  22.877  0.00  0.00    +0.000 A 
ATOM     15  C   UNL     1      -1.981  13.225  22.489  0.00  0.00    +0.000 A 
ENDROOT
BRANCH   1  17
ATOM     16  O   UNL     1       2.952  13.168  19.631  0.00  0.00    +0.000 OA
ATOM     17  C   UNL     1       1.946  13.831  19.362  0.00  0.00    +0.000 C 
ATOM     18  N   UNL     1       2.035  14.983  18.584  0.00  0.00    +0.000 N 
ATOM     19  C   UNL     1       3.307  15.327  17.946  0.00  0.00    +0.000 C 
ATOM     20  C   UNL     1       3.736  16.751  18.314  0.00  0.00    +0.000 C 
ATOM     21  O   UNL     1       2.698  17.696  18.013  0.00  0.00    +0.000 OA
ATOM     22  C   UNL     1       1.504  17.382  18.743  0.00  0.00    +0.000 C 
ATOM     23  C   UNL     1       0.981  15.986  18.386  0.00  0.00    +0.000 C 
ENDBRANCH   1  17
BRANCH   3  24
ATOM     24  C   UNL     1      -2.286  11.457  19.750  0.00  0.00    +0.000 C 
ATOM     25  C   UNL     1      -1.877  10.662  18.516  0.00  0.00    +0.000 C 
ATOM     26  C   UNL     1      -2.507  11.445  17.377  0.00  0.00    +0.000 C 
ATOM     27  N   UNL     1      -3.828  11.857  17.888  0.00  0.00    +0.000 NA
ATOM     28  C   UNL     1      -3.618  12.111  19.335  0.00  0.00    +0.000 C 
BRANCH  27  29
ATOM     29  C   UNL     1      -4.864  10.845  17.615  0.00  0.00    +0.000 C 
BRANCH  29  30
ATOM     30  C   UNL     1      -6.280  11.366  17.908  0.00  0.00    +0.000 C 
BRANCH  30  31
ATOM     31  N   UNL     1      -6.839  10.811  19.122  0.00  0.00    +0.000 N 
ATOM     32  C   UNL     1      -7.480  11.511  20.106  0.00  0.00    +0.000 A 
ATOM     33  C   UNL     1      -7.916  10.553  20.991  0.00  0.00    +0.000 A 
ATOM     34  N   UNL     1      -7.552   9.300  20.569  0.00  0.00    +0.000 NA
ATOM     35  C   UNL     1      -6.914   9.486  19.436  0.00  0.00    +0.000 A 
ENDBRANCH  30  31
ENDBRANCH  29  30
ENDBRANCH  27  29
ENDBRANCH   3  24
TORSDOF 5
ENDMDL
MODEL 4
REMARK VINA RESULT:      -7.0      6.315      9.948
REMARK  Name = 
REMARK  5 active torsions:
REMARK  status: ('A' for Active; 'I' for Inactive)
REMARK    1  A    between atoms: C_2  and  C_3
REMARK    2  A    between atoms: N_5  and  C_6
REMARK    3  A    between atoms: N_9  and  C_10
REMARK    4  A    between atoms: C_10  and  C_11
REMARK    5  A    between atoms: C_11  and  N_12
REMARK                            x       y       z     vdW  Elec       q    Type
REMARK                         _______ _______ _______ _____ _____    ______ ____
ROOT
ATOM      1  C   UNL     1       1.368  13.631  20.493  0.00  0.00    +0.000 A 
ATOM      2  N   UNL     1       0.305  14.207  21.068  0.00  0.00    +0.000 NA
ATOM      3  N   UNL     1      -0.777  13.565  20.577  0.00  0.00    +0.000 N 
ATOM      4  C   UNL     1      -0.451  12.607  19.636  0.00  0.00    +0.000 A 
ATOM      5  C   UNL     1       0.937  12.638  19.582  0.00  0.00    +0.000 A 
ATOM      6  C   UNL     1       1.758  11.755  18.724  0.00  0.00    +0.000 C 
ATOM      7  S   UNL     1       0.996  10.142  18.614  0.00  0.00    +0.000 S 
ATOM      8  O   UNL     1       1.067   9.484  19.908  0.00  0.00    +0.000 OA
ATOM      9  O   UNL     1       1.502   9.491  17.421  0.00  0.00    +0.000 OA
ATOM     10  C   UNL     1      -0.723  10.506  18.328  0.00  0.00    +0.000 A 
ATOM     11  C   UNL     1      -1.449   9.613  17.530  0.00  0.00    +0.000 A 
ATOM     12  C   UNL     1      -2.781   9.880  17.247  0.00  0.00    +0.000 A 
ATOM     13  C   UNL     1      -3.371  11.039  17.741  0.00  0.00    +0.000 A 
ATOM     14  C   UNL     1      -2.631  11.943  18.520  0.00  0.00    +0.000 A 
ATOM     15  C   UNL     1      -1.294  11.690  18.849  0.00  0.00    +0.000 A 
ENDROOT
BRANCH   1  17
ATOM     16  O   UNL     1       3.308  13.777  21.794  0.00  0.00    +0.000 OA
ATOM     17  C   UNL     1       2.767  14.054  20.719  0.00  0.00    +0.000 C 
ATOM     18  N   UNL     1       3.441  14.784  19.744  0.00  0.00    +0.000 N 
ATOM     19  C   UNL     1       4.861  15.093  19.926  0.00  0.00    +0.000 C 
ATOM     20  C   UNL     1       5.113  16.599  19.800  0.00  0.00    +0.000 C 
ATOM     21  O   UNL     1       4.595  17.107  18.561  0.00  0.00    +0.000 OA
ATOM     22  C   UNL     1       3.182  16.878  18.474  0.00  0.00    +0.000 C 
ATOM     23  C   UNL     1       2.853  15.381  18.539  0.00  0.00    +0.000 C 
ENDBRANCH   1  17
BRANCH   3  24
ATOM     24  C   UNL     1      -2.093  14.015  21.012  0.00  0.00    +0.000 C 
ATOM     25  C   UNL     1      -1.989  15.314  21.803  0.00  0.00    +0.000 C 
ATOM     26  C   UNL     1      -1.964  14.837  23.245  0.00  0.00    +0.000 C 
ATOM     27  N   UNL     1      -2.937  13.731  23.294  0.00  0.00    +0.000 NA
ATOM     28  C   UNL     1      -2.825  13.062  21.974  0.00  0.00    +0.000 C 
BRANCH  27  29
ATOM     29  C   UNL     1      -4.299  14.208  23.594  0.00  0.00    +0.000 C 
BRANCH  29  30
ATOM     30  C   UNL     1      -5.338  13.076  23.548  0.00  0.00    +0.000 C 
BRANCH  30  31
ATOM     31  N   UNL     1      -6.355  13.293  22.541  0.00  0.00    +0.000 N 
ATOM     32  C   UNL     1      -6.881  14.500  22.176  0.00  0.00    +0.000 A 
ATOM     33  C   UNL     1      -7.723  14.213  21.127  0.00  0.00    +0.000 A 
ATOM     34  N   UNL     1      -7.722  12.869  20.857  0.00  0.00    +0.000 NA
ATOM     35  C   UNL     1      -6.881  12.341  21.717  0.00  0.00    +0.000 A 
ENDBRANCH  30  31
ENDBRANCH  29  30
ENDBRANCH  27  29
ENDBRANCH   3  24
TORSDOF 5
ENDMDL
MODEL 5
REMARK VINA RESULT:      -7.0      6.452     10.131
REMARK  Name = 
REMARK  5 active torsions:
REMARK  status: ('A' for Active; 'I' for Inactive)
REMARK    1  A    between atoms: C_2  and  C_3
REMARK    2  A    between atoms: N_5  and  C_6
REMARK    3  A    between atoms: N_9  and  C_10
REMARK    4  A    between atoms: C_10  and  C_11
REMARK    5  A    between atoms: C_11  and  N_12
REMARK                            x       y       z     vdW  Elec       q    Type
REMARK                         _______ _______ _______ _____ _____    ______ ____
ROOT
ATOM      1  C   UNL     1       1.258  13.650  20.434  0.00  0.00    +0.000 A 
ATOM      2  N   UNL     1       0.157  14.260  20.891  0.00  0.00    +0.000 NA
ATOM      3  N   UNL     1      -0.886  13.625  20.315  0.00  0.00    +0.000 N 
ATOM      4  C   UNL     1      -0.492  12.637  19.434  0.00  0.00    +0.000 A 
ATOM      5  C   UNL     1       0.896  12.641  19.512  0.00  0.00    +0.000 A 
ATOM      6  C   UNL     1       1.776  11.721  18.759  0.00  0.00    +0.000 C 
ATOM      7  S   UNL     1       0.996  10.120  18.617  0.00  0.00    +0.000 S 
ATOM      8  O   UNL     1       0.931   9.496  19.928  0.00  0.00    +0.000 OA
ATOM      9  O   UNL     1       1.600   9.428  17.494  0.00  0.00    +0.000 OA
ATOM     10  C   UNL     1      -0.681  10.505  18.160  0.00  0.00    +0.000 A 
ATOM     11  C   UNL     1      -1.345   9.604  17.319  0.00  0.00    +0.000 A 
ATOM     12  C   UNL     1      -2.639   9.887  16.904  0.00  0.00    +0.000 A 
ATOM     13  C   UNL     1      -3.250  11.069  17.310  0.00  0.00    +0.000 A 
ATOM     14  C   UNL     1      -2.569  11.980  18.133  0.00  0.00    +0.000 A 
ATOM     15  C   UNL     1      -1.274  11.713  18.594  0.00  0.00    +0.000 A 
ENDROOT
BRANCH   1  17
ATOM     16  O   UNL     1       3.068  13.801  21.911  0.00  0.00    +0.000 OA
ATOM     17  C   UNL     1       2.637  14.055  20.782  0.00  0.00    +0.000 C 
ATOM     18  N   UNL     1       3.417  14.743  19.856  0.00  0.00    +0.000 N 
ATOM     19  C   UNL     1       4.819  15.032  20.165  0.00  0.00    +0.000 C 
ATOM     20  C   UNL     1       5.113  16.529  20.022  0.00  0.00    +0.000 C 
ATOM     21  O   UNL     1       4.727  17.008  18.724  0.00  0.00    +0.000 OA
ATOM     22  C   UNL     1       3.324  16.802  18.509  0.00  0.00    +0.000 C 
ATOM     23  C   UNL     1       2.959  15.314  18.583  0.00  0.00    +0.000 C 
ENDBRANCH   1  17
BRANCH   3  24
ATOM     24  C   UNL     1      -2.228  14.110  20.611  0.00  0.00    +0.000 C 
ATOM     25  C   UNL     1      -2.248  14.891  21.920  0.00  0.00    +0.000 C 
ATOM     26  C   UNL     1      -2.683  13.849  22.936  0.00  0.00    +0.000 C 
ATOM     27  N   UNL     1      -3.720  13.059  22.248  0.00  0.00    +0.000 NA
ATOM     28  C   UNL     1      -3.286  13.013  20.828  0.00  0.00    +0.000 C 
BRANCH  27  29
ATOM     29  C   UNL     1      -5.064  13.635  22.431  0.00  0.00    +0.000 C 
BRANCH  29  30
ATOM     30  C   UNL     1      -5.923  13.527  21.161  0.00  0.00    +0.000 C 
BRANCH  30  31
ATOM     31  N   UNL     1      -6.655  12.280  21.087  0.00  0.00    +0.000 N 
ATOM     32  C   UNL     1      -6.589  11.368  20.071  0.00  0.00    +0.000 A 
ATOM     33  C   UNL     1      -7.370  10.317  20.493  0.00  0.00    +0.000 A 
ATOM     34  N   UNL     1      -7.906  10.575  21.728  0.00  0.00    +0.000 NA
ATOM     35  C   UNL     1      -7.450  11.760  22.065  0.00  0.00    +0.000 A 
ENDBRANCH  30  31
ENDBRANCH  29  30
ENDBRANCH  27  29
ENDBRANCH   3  24
TORSDOF 5
ENDMDL
MODEL 6
REMARK VINA RESULT:      -6.9      8.326     10.541
REMARK  Name = 
REMARK  5 active torsions:
REMARK  status: ('A' for Active; 'I' for Inactive)
REMARK    1  A    between atoms: C_2  and  C_3
REMARK    2  A    between atoms: N_5  and  C_6
REMARK    3  A    between atoms: N_9  and  C_10
REMARK    4  A    between atoms: C_10  and  C_11
REMARK    5  A    between atoms: C_11  and  N_12
REMARK                            x       y       z     vdW  Elec       q    Type
REMARK                         _______ _______ _______ _____ _____    ______ ____
ROOT
ATOM      1  C   UNL     1      -3.195  13.090  21.411  0.00  0.00    +0.000 A 
ATOM      2  N   UNL     1      -2.238  12.198  21.129  0.00  0.00    +0.000 NA
ATOM      3  N   UNL     1      -1.205  12.907  20.624  0.00  0.00    +0.000 N 
ATOM      4  C   UNL     1      -1.486  14.255  20.511  0.00  0.00    +0.000 A 
ATOM      5  C   UNL     1      -2.770  14.383  21.027  0.00  0.00    +0.000 A 
ATOM      6  C   UNL     1      -3.498  15.666  21.144  0.00  0.00    +0.000 C 
ATOM      7  S   UNL     1      -2.349  16.977  21.542  0.00  0.00    +0.000 S 
ATOM      8  O   UNL     1      -1.837  16.778  22.887  0.00  0.00    +0.000 OA
ATOM      9  O   UNL     1      -2.960  18.235  21.159  0.00  0.00    +0.000 OA
ATOM     10  C   UNL     1      -0.984  16.693  20.436  0.00  0.00    +0.000 A 
ATOM     11  C   UNL     1      -0.288  17.815  19.966  0.00  0.00    +0.000 A 
ATOM     12  C   UNL     1       0.756  17.642  19.069  0.00  0.00    +0.000 A 
ATOM     13  C   UNL     1       1.084  16.362  18.631  0.00  0.00    +0.000 A 
ATOM     14  C   UNL     1       0.367  15.245  19.087  0.00  0.00    +0.000 A 
ATOM     15  C   UNL     1      -0.673  15.379  20.014  0.00  0.00    +0.000 A 
ENDROOT
BRANCH   1  17
ATOM     16  O   UNL     1      -4.636  12.495  23.157  0.00  0.00    +0.000 OA
ATOM     17  C   UNL     1      -4.526  12.738  21.952  0.00  0.00    +0.000 C 
ATOM     18  N   UNL     1      -5.624  12.650  21.099  0.00  0.00    +0.000 N 
ATOM     19  C   UNL     1      -6.957  12.420  21.660  0.00  0.00    +0.000 C 
ATOM     20  C   UNL     1      -7.621  11.202  21.010  0.00  0.00    +0.000 C 
ATOM     21  O   UNL     1      -7.642  11.329  19.580  0.00  0.00    +0.000 OA
ATOM     22  C   UNL     1      -6.308  11.442  19.065  0.00  0.00    +0.000 C 
ATOM     23  C   UNL     1      -5.593  12.675  19.632  0.00  0.00    +0.000 C 
ENDBRANCH   1  17
BRANCH   3  24
ATOM     24  C   UNL     1      -0.022  12.175  20.192  0.00  0.00    +0.000 C 
ATOM     25  C   UNL     1      -0.137  11.769  18.728  0.00  0.00    +0.000 C 
ATOM     26  C   UNL     1      -0.666  10.347  18.806  0.00  0.00    +0.000 C 
ATOM     27  N   UNL     1       0.050   9.739  19.942  0.00  0.00    +0.000 NA
ATOM     28  C   UNL     1       0.223  10.841  20.921  0.00  0.00    +0.000 C 
BRANCH  27  29
ATOM     29  C   UNL     1       1.322   9.122  19.525  0.00  0.00    +0.000 C 
BRANCH  29  30
ATOM     30  C   UNL     1       1.754   7.983  20.462  0.00  0.00    +0.000 C 
BRANCH  30  31
ATOM     31  N   UNL     1       2.214   6.813  19.745  0.00  0.00    +0.000 N 
ATOM     32  C   UNL     1       2.137   5.520  20.181  0.00  0.00    +0.000 A 
ATOM     33  C   UNL     1       2.599   4.766  19.127  0.00  0.00    +0.000 A 
ATOM     34  N   UNL     1       2.956   5.570  18.076  0.00  0.00    +0.000 NA
ATOM     35  C   UNL     1       2.704   6.796  18.472  0.00  0.00    +0.000 A 
ENDBRANCH  30  31
ENDBRANCH  29  30
ENDBRANCH  27  29
ENDBRANCH   3  24
TORSDOF 5
ENDMDL
MODEL 7
REMARK VINA RESULT:      -6.9      6.490     10.137
REMARK  Name = 
REMARK  5 active torsions:
REMARK  status: ('A' for Active; 'I' for Inactive)
REMARK    1  A    between atoms: C_2  and  C_3
REMARK    2  A    between atoms: N_5  and  C_6
REMARK    3  A    between atoms: N_9  and  C_10
REMARK    4  A    between atoms: C_10  and  C_11
REMARK    5  A    between atoms: C_11  and  N_12
REMARK                            x       y       z     vdW  Elec       q    Type
REMARK                         _______ _______ _______ _____ _____    ______ ____
ROOT
ATOM      1  C   UNL     1       0.802  13.916  20.481  0.00  0.00    +0.000 A 
ATOM      2  N   UNL     1      -0.301  14.594  20.820  0.00  0.00    +0.000 NA
ATOM      3  N   UNL     1      -1.336  13.917  20.276  0.00  0.00    +0.000 N 
ATOM      4  C   UNL     1      -0.930  12.830  19.528  0.00  0.00    +0.000 A 
ATOM      5  C   UNL     1       0.453  12.817  19.662  0.00  0.00    +0.000 A 
ATOM      6  C   UNL     1       1.341  11.802  19.053  0.00  0.00    +0.000 C 
ATOM      7  S   UNL     1       0.529  10.209  19.058  0.00  0.00    +0.000 S 
ATOM      8  O   UNL     1       0.399   9.738  20.426  0.00  0.00    +0.000 OA
ATOM      9  O   UNL     1       1.161   9.385  18.045  0.00  0.00    +0.000 OA
ATOM     10  C   UNL     1      -1.119  10.573  18.492  0.00  0.00    +0.000 A 
ATOM     11  C   UNL     1      -1.771   9.595  17.729  0.00  0.00    +0.000 A 
ATOM     12  C   UNL     1      -3.040   9.854  17.231  0.00  0.00    +0.000 A 
ATOM     13  C   UNL     1      -3.639  11.086  17.478  0.00  0.00    +0.000 A 
ATOM     14  C   UNL     1      -2.970  12.070  18.222  0.00  0.00    +0.000 A 
ATOM     15  C   UNL     1      -1.701  11.833  18.763  0.00  0.00    +0.000 A 
ENDROOT
BRANCH   1  17
ATOM     16  O   UNL     1       2.562  14.179  22.001  0.00  0.00    +0.000 OA
ATOM     17  C   UNL     1       2.176  14.331  20.838  0.00  0.00    +0.000 C 
ATOM     18  N   UNL     1       2.999  14.917  19.880  0.00  0.00    +0.000 N 
ATOM     19  C   UNL     1       4.394  15.213  20.211  0.00  0.00    +0.000 C 
ATOM     20  C   UNL     1       4.720  16.685  19.938  0.00  0.00    +0.000 C 
ATOM     21  O   UNL     1       4.388  17.045  18.588  0.00  0.00    +0.000 OA
ATOM     22  C   UNL     1       2.990  16.841  18.343  0.00  0.00    +0.000 C 
ATOM     23  C   UNL     1       2.596  15.372  18.544  0.00  0.00    +0.000 C 
ENDBRANCH   1  17
BRANCH   3  24
ATOM     24  C   UNL     1      -2.677  14.458  20.460  0.00  0.00    +0.000 C 
ATOM     25  C   UNL     1      -2.624  15.945  20.789  0.00  0.00    +0.000 C 
ATOM     26  C   UNL     1      -2.690  15.965  22.306  0.00  0.00    +0.000 C 
ATOM     27  N   UNL     1      -3.664  14.915  22.656  0.00  0.00    +0.000 NA
ATOM     28  C   UNL     1      -3.468  13.855  21.635  0.00  0.00    +0.000 C 
BRANCH  27  29
ATOM     29  C   UNL     1      -5.042  15.436  22.701  0.00  0.00    +0.000 C 
BRANCH  29  30
ATOM     30  C   UNL     1      -5.794  14.987  23.964  0.00  0.00    +0.000 C 
BRANCH  30  31
ATOM     31  N   UNL     1      -6.551  13.770  23.761  0.00  0.00    +0.000 N 
ATOM     32  C   UNL     1      -7.594  13.607  22.891  0.00  0.00    +0.000 A 
ATOM     33  C   UNL     1      -7.916  12.272  22.977  0.00  0.00    +0.000 A 
ATOM     34  N   UNL     1      -7.102  11.633  23.875  0.00  0.00    +0.000 NA
ATOM     35  C   UNL     1      -6.283  12.557  24.323  0.00  0.00    +0.000 A 
ENDBRANCH  30  31
ENDBRANCH  29  30
ENDBRANCH  27  29
ENDBRANCH   3  24
TORSDOF 5
ENDMDL
MODEL 8
REMARK VINA RESULT:      -6.8      7.306      9.916
REMARK  Name = 
REMARK  5 active torsions:
REMARK  status: ('A' for Active; 'I' for Inactive)
REMARK    1  A    between atoms: C_2  and  C_3
REMARK    2  A    between atoms: N_5  and  C_6
REMARK    3  A    between atoms: N_9  and  C_10
REMARK    4  A    between atoms: C_10  and  C_11
REMARK    5  A    between atoms: C_11  and  N_12
REMARK                            x       y       z     vdW  Elec       q    Type
REMARK                         _______ _______ _______ _____ _____    ______ ____
ROOT
ATOM      1  C   UNL     1      -2.268  12.768  22.300  0.00  0.00    +0.000 A 
ATOM      2  N   UNL     1      -1.468  11.847  21.750  0.00  0.00    +0.000 NA
ATOM      3  N   UNL     1      -0.273  12.451  21.572  0.00  0.00    +0.000 N 
ATOM      4  C   UNL     1      -0.285  13.781  21.942  0.00  0.00    +0.000 A 
ATOM      5  C   UNL     1      -1.571  13.993  22.423  0.00  0.00    +0.000 A 
ATOM      6  C   UNL     1      -2.057  15.280  22.969  0.00  0.00    +0.000 C 
ATOM      7  S   UNL     1      -0.736  16.096  23.853  0.00  0.00    +0.000 S 
ATOM      8  O   UNL     1      -0.419  15.341  25.054  0.00  0.00    +0.000 OA
ATOM      9  O   UNL     1      -1.057  17.509  23.928  0.00  0.00    +0.000 OA
ATOM     10  C   UNL     1       0.665  15.930  22.768  0.00  0.00    +0.000 A 
ATOM     11  C   UNL     1       1.604  16.970  22.760  0.00  0.00    +0.000 A 
ATOM     12  C   UNL     1       2.689  16.900  21.898  0.00  0.00    +0.000 A 
ATOM     13  C   UNL     1       2.820  15.812  21.041  0.00  0.00    +0.000 A 
ATOM     14  C   UNL     1       1.863  14.785  21.037  0.00  0.00    +0.000 A 
ATOM     15  C   UNL     1       0.771  14.809  21.913  0.00  0.00    +0.000 A 
ENDROOT
BRANCH   1  17
ATOM     16  O   UNL     1      -3.980  12.040  23.721  0.00  0.00    +0.000 OA
ATOM     17  C   UNL     1      -3.692  12.542  22.630  0.00  0.00    +0.000 C 
ATOM     18  N   UNL     1      -4.681  12.860  21.704  0.00  0.00    +0.000 N 
ATOM     19  C   UNL     1      -6.091  12.746  22.084  0.00  0.00    +0.000 C 
ATOM     20  C   UNL     1      -6.855  11.860  21.094  0.00  0.00    +0.000 C 
ATOM     21  O   UNL     1      -6.687  12.329  19.747  0.00  0.00    +0.000 OA
ATOM     22  C   UNL     1      -5.300  12.321  19.382  0.00  0.00    +0.000 C 
ATOM     23  C   UNL     1      -4.474  13.232  20.299  0.00  0.00    +0.000 C 
ENDBRANCH   1  17
BRANCH   3  24
ATOM     24  C   UNL     1       0.794  11.680  20.948  0.00  0.00    +0.000 C 
ATOM     25  C   UNL     1       0.754  11.823  19.431  0.00  0.00    +0.000 C 
ATOM     26  C   UNL     1      -0.031  10.599  18.991  0.00  0.00    +0.000 C 
ATOM     27  N   UNL     1       0.445   9.510  19.863  0.00  0.00    +0.000 NA
ATOM     28  C   UNL     1       0.718  10.158  21.171  0.00  0.00    +0.000 C 
BRANCH  27  29
ATOM     29  C   UNL     1       1.618   8.822  19.295  0.00  0.00    +0.000 C 
BRANCH  29  30
ATOM     30  C   UNL     1       1.978   7.545  20.072  0.00  0.00    +0.000 C 
BRANCH  30  31
ATOM     31  N   UNL     1       2.429   6.475  19.207  0.00  0.00    +0.000 N 
ATOM     32  C   UNL     1       3.218   6.614  18.099  0.00  0.00    +0.000 A 
ATOM     33  C   UNL     1       3.459   5.327  17.677  0.00  0.00    +0.000 A 
ATOM     34  N   UNL     1       2.833   4.422  18.496  0.00  0.00    +0.000 NA
ATOM     35  C   UNL     1       2.229   5.142  19.414  0.00  0.00    +0.000 A 
ENDBRANCH  30  31
ENDBRANCH  29  30
ENDBRANCH  27  29
ENDBRANCH   3  24
TORSDOF 5
ENDMDL
MODEL 9
REMARK VINA RESULT:      -6.8      7.896     10.208
REMARK  Name = 
REMARK  5 active torsions:
REMARK  status: ('A' for Active; 'I' for Inactive)
REMARK    1  A    between atoms: C_2  and  C_3
REMARK    2  A    between atoms: N_5  and  C_6
REMARK    3  A    between atoms: N_9  and  C_10
REMARK    4  A    between atoms: C_10  and  C_11
REMARK    5  A    between atoms: C_11  and  N_12
REMARK                            x       y       z     vdW  Elec       q    Type
REMARK                         _______ _______ _______ _____ _____    ______ ____
ROOT
ATOM      1  C   UNL     1      -2.851  12.995  20.993  0.00  0.00    +0.000 A 
ATOM      2  N   UNL     1      -2.236  12.195  20.114  0.00  0.00    +0.000 NA
ATOM      3  N   UNL     1      -1.140  12.869  19.702  0.00  0.00    +0.000 N 
ATOM      4  C   UNL     1      -1.050  14.132  20.252  0.00  0.00    +0.000 A 
ATOM      5  C   UNL     1      -2.150  14.219  21.096  0.00  0.00    +0.000 A 
ATOM      6  C   UNL     1      -2.466  15.395  21.938  0.00  0.00    +0.000 C 
ATOM      7  S   UNL     1      -0.952  16.136  22.531  0.00  0.00    +0.000 S 
ATOM      8  O   UNL     1      -0.309  15.234  23.473  0.00  0.00    +0.000 OA
ATOM      9  O   UNL     1      -1.242  17.509  22.898  0.00  0.00    +0.000 OA
ATOM     10  C   UNL     1       0.090  16.183  21.089  0.00  0.00    +0.000 A 
ATOM     11  C   UNL     1       0.986  17.253  20.973  0.00  0.00    +0.000 A 
ATOM     12  C   UNL     1       1.787  17.351  19.844  0.00  0.00    +0.000 A 
ATOM     13  C   UNL     1       1.675  16.400  18.834  0.00  0.00    +0.000 A 
ATOM     14  C   UNL     1       0.757  15.344  18.945  0.00  0.00    +0.000 A 
ATOM     15  C   UNL     1      -0.046  15.198  20.083  0.00  0.00    +0.000 A 
ENDROOT
BRANCH   1  17
ATOM     16  O   UNL     1      -4.100  12.290  22.844  0.00  0.00    +0.000 OA
ATOM     17  C   UNL     1      -4.126  12.664  21.668  0.00  0.00    +0.000 C 
ATOM     18  N   UNL     1      -5.326  12.742  20.966  0.00  0.00    +0.000 N 
ATOM     19  C   UNL     1      -6.590  12.530  21.674  0.00  0.00    +0.000 C 
ATOM     20  C   UNL     1      -7.422  11.438  20.993  0.00  0.00    +0.000 C 
ATOM     21  O   UNL     1      -7.615  11.731  19.601  0.00  0.00    +0.000 OA
ATOM     22  C   UNL     1      -6.353  11.822  18.926  0.00  0.00    +0.000 C 
ATOM     23  C   UNL     1      -5.481  12.935  19.520  0.00  0.00    +0.000 C 
ENDBRANCH   1  17
BRANCH   3  24
ATOM     24  C   UNL     1      -0.289  12.239  18.702  0.00  0.00    +0.000 C 
ATOM     25  C   UNL     1      -0.879  10.911  18.243  0.00  0.00    +0.000 C 
ATOM     26  C   UNL     1      -0.160   9.895  19.114  0.00  0.00    +0.000 C 
ATOM     27  N   UNL     1       1.231  10.379  19.190  0.00  0.00    +0.000 NA
ATOM     28  C   UNL     1       1.122  11.860  19.189  0.00  0.00    +0.000 C 
BRANCH  27  29
ATOM     29  C   UNL     1       2.058   9.853  18.089  0.00  0.00    +0.000 C 
BRANCH  29  30
ATOM     30  C   UNL     1       1.644   8.431  17.677  0.00  0.00    +0.000 C 
BRANCH  30  31
ATOM     31  N   UNL     1       2.584   7.424  18.123  0.00  0.00    +0.000 N 
ATOM     32  C   UNL     1       3.777   7.118  17.530  0.00  0.00    +0.000 A 
ATOM     33  C   UNL     1       4.353   6.186  18.362  0.00  0.00    +0.000 A 
ATOM     34  N   UNL     1       3.538   5.921  19.432  0.00  0.00    +0.000 NA
ATOM     35  C   UNL     1       2.484   6.688  19.267  0.00  0.00    +0.000 A 
ENDBRANCH  30  31
ENDBRANCH  29  30
ENDBRANCH  27  29
ENDBRANCH   3  24
TORSDOF 5
ENDMDL
