MODEL 1
REMARK VINA RESULT:      -8.1      0.000      0.000
REMARK  Name = 
REMARK  2 active torsions:
REMARK  status: ('A' for Active; 'I' for Inactive)
REMARK    1  A    between atoms: C_1  and  C_2
REMARK    2  A    between atoms: C_10  and  C_12
REMARK                            x       y       z     vdW  Elec       q    Type
REMARK                         _______ _______ _______ _____ _____    ______ ____
ROOT
ATOM      1  C   UNL     1       7.586   5.961  18.857  0.00  0.00    +0.000 C 
ATOM      2  C   UNL     1       7.073   5.357  17.600  0.00  0.00    +0.000 A 
ATOM      3  C   UNL     1       7.484   5.557  16.299  0.00  0.00    +0.000 A 
ATOM      4  C   UNL     1       6.617   4.770  15.521  0.00  0.00    +0.000 A 
ATOM      5  N   UNL     1       6.618   4.599  14.078  0.00  0.00    +0.000 N 
ATOM      6  O   UNL     1       7.458   5.263  13.451  0.00  0.00    +0.000 OA
ATOM      7  O   UNL     1       5.804   3.813  13.574  0.00  0.00    +0.000 OA
ATOM      8  N   UNL     1       5.695   4.132  16.261  0.00  0.00    +0.000 NA
ATOM      9  N   UNL     1       5.971   4.511  17.542  0.00  0.00    +0.000 N 
ATOM     10  C   UNL     1       5.176   4.009  18.601  0.00  0.00    +0.000 C 
ATOM     11  O   UNL     1       5.670   3.994  19.729  0.00  0.00    +0.000 OA
ENDROOT
BRANCH  10  12
ATOM     12  C   UNL     1       3.785   3.541  18.449  0.00  0.00    +0.000 A 
ATOM     13  C   UNL     1       3.434   2.245  18.851  0.00  0.00    +0.000 A 
ATOM     14  C   UNL     1       2.090   1.858  18.851  0.00  0.00    +0.000 A 
ATOM     15  C   UNL     1       1.099   2.760  18.459  0.00  0.00    +0.000 A 
ATOM     16  C   UNL     1       1.449   4.051  18.062  0.00  0.00    +0.000 A 
ATOM     17  C   UNL     1       2.787   4.437  18.067  0.00  0.00    +0.000 A 
ATOM     18  F   UNL     1       3.080   5.714  17.780  0.00  0.00    +0.000 F 
ENDBRANCH  10  12
TORSDOF 1
ENDMDL
MODEL 2
REMARK VINA RESULT:      -7.7      1.119      1.597
REMARK  Name = 
REMARK  2 active torsions:
REMARK  status: ('A' for Active; 'I' for Inactive)
REMARK    1  A    between atoms: C_1  and  C_2
REMARK    2  A    between atoms: C_10  and  C_12
REMARK                            x       y       z     vdW  Elec       q    Type
REMARK                         _______ _______ _______ _____ _____    ______ ____
ROOT
ATOM      1  C   UNL     1       7.725   6.017  19.004  0.00  0.00    +0.000 C 
ATOM      2  C   UNL     1       7.133   5.426  17.775  0.00  0.00    +0.000 A 
ATOM      3  C   UNL     1       7.507   5.586  16.457  0.00  0.00    +0.000 A 
ATOM      4  C   UNL     1       6.571   4.838  15.723  0.00  0.00    +0.000 A 
ATOM      5  N   UNL     1       6.510   4.649  14.283  0.00  0.00    +0.000 N 
ATOM      6  O   UNL     1       7.362   5.257  13.617  0.00  0.00    +0.000 OA
ATOM      7  O   UNL     1       5.635   3.903  13.821  0.00  0.00    +0.000 OA
ATOM      8  N   UNL     1       5.642   4.263  16.504  0.00  0.00    +0.000 NA
ATOM      9  N   UNL     1       5.985   4.642  17.769  0.00  0.00    +0.000 N 
ATOM     10  C   UNL     1       5.202   4.200  18.864  0.00  0.00    +0.000 C 
ATOM     11  O   UNL     1       5.735   4.171  19.973  0.00  0.00    +0.000 OA
ENDROOT
BRANCH  10  12
ATOM     12  C   UNL     1       3.783   3.807  18.768  0.00  0.00    +0.000 A 
ATOM     13  C   UNL     1       2.842   4.705  18.245  0.00  0.00    +0.000 A 
ATOM     14  C   UNL     1       1.530   4.278  18.011  0.00  0.00    +0.000 A 
ATOM     15  C   UNL     1       1.160   2.960  18.291  0.00  0.00    +0.000 A 
ATOM     16  C   UNL     1       2.098   2.067  18.809  0.00  0.00    +0.000 A 
ATOM     17  C   UNL     1       3.405   2.492  19.037  0.00  0.00    +0.000 A 
ATOM     18  F   UNL     1       4.306   1.583  19.436  0.00  0.00    +0.000 F 
ENDBRANCH  10  12
TORSDOF 1
ENDMDL
MODEL 3
REMARK VINA RESULT:      -7.6      2.748      3.320
REMARK  Name = 
REMARK  2 active torsions:
REMARK  status: ('A' for Active; 'I' for Inactive)
REMARK    1  A    between atoms: C_1  and  C_2
REMARK    2  A    between atoms: C_10  and  C_12
REMARK                            x       y       z     vdW  Elec       q    Type
REMARK                         _______ _______ _______ _____ _____    ______ ____
ROOT
ATOM      1  C   UNL     1       2.732   8.618  17.544  0.00  0.00    +0.000 C 
ATOM      2  C   UNL     1       3.718   7.510  17.628  0.00  0.00    +0.000 A 
ATOM      3  C   UNL     1       4.856   7.291  16.881  0.00  0.00    +0.000 A 
ATOM      4  C   UNL     1       5.372   6.074  17.357  0.00  0.00    +0.000 A 
ATOM      5  N   UNL     1       6.576   5.383  16.925  0.00  0.00    +0.000 N 
ATOM      6  O   UNL     1       7.202   5.910  15.993  0.00  0.00    +0.000 OA
ATOM      7  O   UNL     1       6.901   4.339  17.507  0.00  0.00    +0.000 OA
ATOM      8  N   UNL     1       4.609   5.530  18.320  0.00  0.00    +0.000 NA
ATOM      9  N   UNL     1       3.580   6.414  18.471  0.00  0.00    +0.000 N 
ATOM     10  C   UNL     1       2.571   6.147  19.429  0.00  0.00    +0.000 C 
ATOM     11  O   UNL     1       1.923   7.101  19.858  0.00  0.00    +0.000 OA
ENDROOT
BRANCH  10  12
ATOM     12  C   UNL     1       2.221   4.799  19.916  0.00  0.00    +0.000 A 
ATOM     13  C   UNL     1       2.472   4.448  21.250  0.00  0.00    +0.000 A 
ATOM     14  C   UNL     1       2.000   3.230  21.748  0.00  0.00    +0.000 A 
ATOM     15  C   UNL     1       1.273   2.368  20.924  0.00  0.00    +0.000 A 
ATOM     16  C   UNL     1       1.021   2.719  19.598  0.00  0.00    +0.000 A 
ATOM     17  C   UNL     1       1.488   3.934  19.103  0.00  0.00    +0.000 A 
ATOM     18  F   UNL     1       1.140   4.287  17.857  0.00  0.00    +0.000 F 
ENDBRANCH  10  12
TORSDOF 1
ENDMDL
MODEL 4
REMARK VINA RESULT:      -7.3      3.331      5.857
REMARK  Name = 
REMARK  2 active torsions:
REMARK  status: ('A' for Active; 'I' for Inactive)
REMARK    1  A    between atoms: C_1  and  C_2
REMARK    2  A    between atoms: C_10  and  C_12
REMARK                            x       y       z     vdW  Elec       q    Type
REMARK                         _______ _______ _______ _____ _____    ______ ____
ROOT
ATOM      1  C   UNL     1       2.132   7.762  19.965  0.00  0.00    +0.000 C 
ATOM      2  C   UNL     1       2.235   6.287  19.813  0.00  0.00    +0.000 A 
ATOM      3  C   UNL     1       1.674   5.285  20.577  0.00  0.00    +0.000 A 
ATOM      4  C   UNL     1       2.145   4.090  20.006  0.00  0.00    +0.000 A 
ATOM      5  N   UNL     1       1.846   2.727  20.414  0.00  0.00    +0.000 N 
ATOM      6  O   UNL     1       1.123   2.604  21.414  0.00  0.00    +0.000 OA
ATOM      7  O   UNL     1       2.315   1.794  19.748  0.00  0.00    +0.000 OA
ATOM      8  N   UNL     1       2.972   4.303  18.970  0.00  0.00    +0.000 NA
ATOM      9  N   UNL     1       3.038   5.662  18.866  0.00  0.00    +0.000 N 
ATOM     10  C   UNL     1       3.838   6.243  17.852  0.00  0.00    +0.000 C 
ATOM     11  O   UNL     1       3.562   7.387  17.492  0.00  0.00    +0.000 OA
ENDROOT
BRANCH  10  12
ATOM     12  C   UNL     1       5.000   5.582  17.227  0.00  0.00    +0.000 A 
ATOM     13  C   UNL     1       5.032   5.384  15.840  0.00  0.00    +0.000 A 
ATOM     14  C   UNL     1       6.197   4.901  15.234  0.00  0.00    +0.000 A 
ATOM     15  C   UNL     1       7.327   4.624  16.006  0.00  0.00    +0.000 A 
ATOM     16  C   UNL     1       7.295   4.824  17.386  0.00  0.00    +0.000 A 
ATOM     17  C   UNL     1       6.136   5.309  17.988  0.00  0.00    +0.000 A 
ATOM     18  F   UNL     1       6.173   5.588  19.299  0.00  0.00    +0.000 F 
ENDBRANCH  10  12
TORSDOF 1
ENDMDL
MODEL 5
REMARK VINA RESULT:      -7.1      3.343      5.565
REMARK  Name = 
REMARK  2 active torsions:
REMARK  status: ('A' for Active; 'I' for Inactive)
REMARK    1  A    between atoms: C_1  and  C_2
REMARK    2  A    between atoms: C_10  and  C_12
REMARK                            x       y       z     vdW  Elec       q    Type
REMARK                         _______ _______ _______ _____ _____    ______ ____
ROOT
ATOM      1  C   UNL     1       2.540   2.945  21.110  0.00  0.00    +0.000 C 
ATOM      2  C   UNL     1       2.629   4.317  20.545  0.00  0.00    +0.000 A 
ATOM      3  C   UNL     1       1.792   5.398  20.730  0.00  0.00    +0.000 A 
ATOM      4  C   UNL     1       2.329   6.413  19.920  0.00  0.00    +0.000 A 
ATOM      5  N   UNL     1       1.844   7.773  19.753  0.00  0.00    +0.000 N 
ATOM      6  O   UNL     1       0.805   8.060  20.365  0.00  0.00    +0.000 OA
ATOM      7  O   UNL     1       2.489   8.546  19.031  0.00  0.00    +0.000 OA
ATOM      8  N   UNL     1       3.414   6.010  19.238  0.00  0.00    +0.000 NA
ATOM      9  N   UNL     1       3.585   4.710  19.615  0.00  0.00    +0.000 N 
ATOM     10  C   UNL     1       4.664   3.967  19.077  0.00  0.00    +0.000 C 
ATOM     11  O   UNL     1       5.062   2.993  19.716  0.00  0.00    +0.000 OA
ENDROOT
BRANCH  10  12
ATOM     12  C   UNL     1       5.314   4.259  17.785  0.00  0.00    +0.000 A 
ATOM     13  C   UNL     1       6.676   4.589  17.745  0.00  0.00    +0.000 A 
ATOM     14  C   UNL     1       7.324   4.712  16.512  0.00  0.00    +0.000 A 
ATOM     15  C   UNL     1       6.621   4.501  15.324  0.00  0.00    +0.000 A 
ATOM     16  C   UNL     1       5.266   4.170  15.365  0.00  0.00    +0.000 A 
ATOM     17  C   UNL     1       4.622   4.043  16.594  0.00  0.00    +0.000 A 
ATOM     18  F   UNL     1       3.349   3.623  16.601  0.00  0.00    +0.000 F 
ENDBRANCH  10  12
TORSDOF 1
ENDMDL
MODEL 6
REMARK VINA RESULT:      -7.0      2.999      4.125
REMARK  Name = 
REMARK  2 active torsions:
REMARK  status: ('A' for Active; 'I' for Inactive)
REMARK    1  A    between atoms: C_1  and  C_2
REMARK    2  A    between atoms: C_10  and  C_12
REMARK                            x       y       z     vdW  Elec       q    Type
REMARK                         _______ _______ _______ _____ _____    ______ ____
ROOT
ATOM      1  C   UNL     1       3.246   2.240  17.778  0.00  0.00    +0.000 C 
ATOM      2  C   UNL     1       4.086   3.415  17.426  0.00  0.00    +0.000 A 
ATOM      3  C   UNL     1       5.391   3.458  16.982  0.00  0.00    +0.000 A 
ATOM      4  C   UNL     1       5.684   4.827  16.856  0.00  0.00    +0.000 A 
ATOM      5  N   UNL     1       6.924   5.437  16.406  0.00  0.00    +0.000 N 
ATOM      6  O   UNL     1       7.851   4.657  16.142  0.00  0.00    +0.000 OA
ATOM      7  O   UNL     1       6.975   6.671  16.308  0.00  0.00    +0.000 OA
ATOM      8  N   UNL     1       4.657   5.611  17.220  0.00  0.00    +0.000 NA
ATOM      9  N   UNL     1       3.678   4.734  17.587  0.00  0.00    +0.000 N 
ATOM     10  C   UNL     1       2.429   5.232  18.031  0.00  0.00    +0.000 C 
ATOM     11  O   UNL     1       1.452   4.490  17.940  0.00  0.00    +0.000 OA
ENDROOT
BRANCH  10  12
ATOM     12  C   UNL     1       2.230   6.567  18.629  0.00  0.00    +0.000 A 
ATOM     13  C   UNL     1       2.102   7.692  17.804  0.00  0.00    +0.000 A 
ATOM     14  C   UNL     1       1.759   8.928  18.363  0.00  0.00    +0.000 A 
ATOM     15  C   UNL     1       1.537   9.040  19.738  0.00  0.00    +0.000 A 
ATOM     16  C   UNL     1       1.662   7.918  20.557  0.00  0.00    +0.000 A 
ATOM     17  C   UNL     1       1.999   6.687  19.999  0.00  0.00    +0.000 A 
ATOM     18  F   UNL     1       2.009   5.610  20.798  0.00  0.00    +0.000 F 
ENDBRANCH  10  12
TORSDOF 1
ENDMDL
MODEL 7
REMARK VINA RESULT:      -7.0      3.320      5.353
REMARK  Name = 
REMARK  2 active torsions:
REMARK  status: ('A' for Active; 'I' for Inactive)
REMARK    1  A    between atoms: C_1  and  C_2
REMARK    2  A    between atoms: C_10  and  C_12
REMARK                            x       y       z     vdW  Elec       q    Type
REMARK                         _______ _______ _______ _____ _____    ______ ____
ROOT
ATOM      1  C   UNL     1       2.623   3.921  20.886  0.00  0.00    +0.000 C 
ATOM      2  C   UNL     1       2.790   5.126  20.032  0.00  0.00    +0.000 A 
ATOM      3  C   UNL     1       2.011   6.262  19.956  0.00  0.00    +0.000 A 
ATOM      4  C   UNL     1       2.609   7.043  18.952  0.00  0.00    +0.000 A 
ATOM      5  N   UNL     1       2.199   8.354  18.478  0.00  0.00    +0.000 N 
ATOM      6  O   UNL     1       1.172   8.823  18.991  0.00  0.00    +0.000 OA
ATOM      7  O   UNL     1       2.889   8.914  17.615  0.00  0.00    +0.000 OA
ATOM      8  N   UNL     1       3.675   6.444  18.398  0.00  0.00    +0.000 NA
ATOM      9  N   UNL     1       3.773   5.253  19.057  0.00  0.00    +0.000 N 
ATOM     10  C   UNL     1       4.814   4.355  18.718  0.00  0.00    +0.000 C 
ATOM     11  O   UNL     1       5.154   3.529  19.565  0.00  0.00    +0.000 OA
ENDROOT
BRANCH  10  12
ATOM     12  C   UNL     1       5.489   4.319  17.407  0.00  0.00    +0.000 A 
ATOM     13  C   UNL     1       4.750   4.058  16.245  0.00  0.00    +0.000 A 
ATOM     14  C   UNL     1       5.360   4.178  14.992  0.00  0.00    +0.000 A 
ATOM     15  C   UNL     1       6.699   4.563  14.897  0.00  0.00    +0.000 A 
ATOM     16  C   UNL     1       7.433   4.825  16.054  0.00  0.00    +0.000 A 
ATOM     17  C   UNL     1       6.823   4.710  17.301  0.00  0.00    +0.000 A 
ATOM     18  F   UNL     1       7.526   5.069  18.385  0.00  0.00    +0.000 F 
ENDBRANCH  10  12
TORSDOF 1
ENDMDL
MODEL 8
REMARK VINA RESULT:      -7.0      3.427      5.918
REMARK  Name = 
REMARK  2 active torsions:
REMARK  status: ('A' for Active; 'I' for Inactive)
REMARK    1  A    between atoms: C_1  and  C_2
REMARK    2  A    between atoms: C_10  and  C_12
REMARK                            x       y       z     vdW  Elec       q    Type
REMARK                         _______ _______ _______ _____ _____    ______ ____
ROOT
ATOM      1  C   UNL     1       1.805   7.939  19.952  0.00  0.00    +0.000 C 
ATOM      2  C   UNL     1       2.199   6.508  20.009  0.00  0.00    +0.000 A 
ATOM      3  C   UNL     1       1.896   5.552  20.956  0.00  0.00    +0.000 A 
ATOM      4  C   UNL     1       2.569   4.395  20.530  0.00  0.00    +0.000 A 
ATOM      5  N   UNL     1       2.578   3.083  21.157  0.00  0.00    +0.000 N 
ATOM      6  O   UNL     1       1.949   2.985  22.221  0.00  0.00    +0.000 OA
ATOM      7  O   UNL     1       3.192   2.164  20.598  0.00  0.00    +0.000 OA
ATOM      8  N   UNL     1       3.280   4.594  19.408  0.00  0.00    +0.000 NA
ATOM      9  N   UNL     1       3.061   5.906  19.100  0.00  0.00    +0.000 N 
ATOM     10  C   UNL     1       3.671   6.460  17.948  0.00  0.00    +0.000 C 
ATOM     11  O   UNL     1       3.150   7.456  17.449  0.00  0.00    +0.000 OA
ENDROOT
BRANCH  10  12
ATOM     12  C   UNL     1       4.910   5.945  17.332  0.00  0.00    +0.000 A 
ATOM     13  C   UNL     1       6.145   6.524  17.653  0.00  0.00    +0.000 A 
ATOM     14  C   UNL     1       7.327   5.938  17.191  0.00  0.00    +0.000 A 
ATOM     15  C   UNL     1       7.280   4.775  16.418  0.00  0.00    +0.000 A 
ATOM     16  C   UNL     1       6.050   4.199  16.101  0.00  0.00    +0.000 A 
ATOM     17  C   UNL     1       4.873   4.781  16.566  0.00  0.00    +0.000 A 
ATOM     18  F   UNL     1       3.716   4.145  16.332  0.00  0.00    +0.000 F 
ENDBRANCH  10  12
TORSDOF 1
ENDMDL
MODEL 9
REMARK VINA RESULT:      -6.9      3.466      5.671
REMARK  Name = 
REMARK  2 active torsions:
REMARK  status: ('A' for Active; 'I' for Inactive)
REMARK    1  A    between atoms: C_1  and  C_2
REMARK    2  A    between atoms: C_10  and  C_12
REMARK                            x       y       z     vdW  Elec       q    Type
REMARK                         _______ _______ _______ _____ _____    ______ ____
ROOT
ATOM      1  C   UNL     1       2.570   2.775  21.167  0.00  0.00    +0.000 C 
ATOM      2  C   UNL     1       2.636   4.161  20.636  0.00  0.00    +0.000 A 
ATOM      3  C   UNL     1       1.786   5.225  20.852  0.00  0.00    +0.000 A 
ATOM      4  C   UNL     1       2.304   6.268  20.067  0.00  0.00    +0.000 A 
ATOM      5  N   UNL     1       1.799   7.624  19.936  0.00  0.00    +0.000 N 
ATOM      6  O   UNL     1       0.759   7.881  20.560  0.00  0.00    +0.000 OA
ATOM      7  O   UNL     1       2.429   8.425  19.231  0.00  0.00    +0.000 OA
ATOM      8  N   UNL     1       3.391   5.898  19.370  0.00  0.00    +0.000 NA
ATOM      9  N   UNL     1       3.582   4.591  19.713  0.00  0.00    +0.000 N 
ATOM     10  C   UNL     1       4.668   3.877  19.151  0.00  0.00    +0.000 C 
ATOM     11  O   UNL     1       5.084   2.893  19.763  0.00  0.00    +0.000 OA
ENDROOT
BRANCH  10  12
ATOM     12  C   UNL     1       5.308   4.211  17.864  0.00  0.00    +0.000 A 
ATOM     13  C   UNL     1       4.649   3.930  16.659  0.00  0.00    +0.000 A 
ATOM     14  C   UNL     1       5.185   4.386  15.451  0.00  0.00    +0.000 A 
ATOM     15  C   UNL     1       6.370   5.127  15.443  0.00  0.00    +0.000 A 
ATOM     16  C   UNL     1       7.024   5.409  16.643  0.00  0.00    +0.000 A 
ATOM     17  C   UNL     1       6.486   4.957  17.846  0.00  0.00    +0.000 A 
ATOM     18  F   UNL     1       7.082   5.334  18.987  0.00  0.00    +0.000 F 
ENDBRANCH  10  12
TORSDOF 1
ENDMDL
