MODEL 1
REMARK VINA RESULT:      -7.3      0.000      0.000
REMARK  Name = 
REMARK  7 active torsions:
REMARK  status: ('A' for Active; 'I' for Inactive)
REMARK    1  A    between atoms: C_1  and  C_2
REMARK    2  A    between atoms: C_5  and  N_6
REMARK    3  A    between atoms: C_7  and  S_8
REMARK    4  A    between atoms: N_9  and  C_10
REMARK    5  A    between atoms: N_13  and  C_14
REMARK    6  A    between atoms: C_14  and  C_15
REMARK    7  A    between atoms: C_24  and  C_25
REMARK                            x       y       z     vdW  Elec       q    Type
REMARK                         _______ _______ _______ _____ _____    ______ ____
ROOT
ATOM      1  N   UNL     1       1.450   5.402  20.763  0.00  0.00    +0.000 N 
ATOM      2  C   UNL     1       2.175   4.260  20.511  0.00  0.00    +0.000 C 
ATOM      3  N   UNL     1       2.695   3.967  19.378  0.00  0.00    +0.000 NA
ATOM      4  H   UNL     1       1.073   5.468  21.699  0.00  0.00    +0.000 HD
ENDROOT
BRANCH   1   9
ATOM      5  C   UNL     1       1.968  10.551  18.223  0.00  0.00    +0.000 C 
ATOM      6  C   UNL     1       1.838   9.224  18.919  0.00  0.00    +0.000 A 
ATOM      7  C   UNL     1       2.366   8.087  18.307  0.00  0.00    +0.000 A 
ATOM      8  C   UNL     1       2.256   6.831  18.912  0.00  0.00    +0.000 A 
ATOM      9  C   UNL     1       1.630   6.665  20.148  0.00  0.00    +0.000 A 
ATOM     10  C   UNL     1       1.089   7.812  20.756  0.00  0.00    +0.000 A 
ATOM     11  C   UNL     1       1.188   9.089  20.160  0.00  0.00    +0.000 A 
ATOM     12  C   UNL     1       0.586  10.284  20.846  0.00  0.00    +0.000 C 
ENDBRANCH   1   9
BRANCH   3  13
ATOM     13  C   UNL     1       3.621   2.884  19.070  0.00  0.00    +0.000 C 
ATOM     14  C   UNL     1       5.028   3.478  19.203  0.00  0.00    +0.000 C 
ATOM     15  C   UNL     1       5.287   4.535  18.128  0.00  0.00    +0.000 C 
ATOM     16  N   UNL     1       5.138   3.996  16.758  0.00  0.00    +0.000 NA
ATOM     17  C   UNL     1       3.793   3.413  16.585  0.00  0.00    +0.000 C 
ATOM     18  C   UNL     1       3.459   2.361  17.646  0.00  0.00    +0.000 C 
BRANCH  16  19
ATOM     19  C   UNL     1       5.366   5.100  15.795  0.00  0.00    +0.000 C 
BRANCH  19  20
ATOM     20  C   UNL     1       6.016   4.700  14.489  0.00  0.00    +0.000 A 
ATOM     21  C   UNL     1       5.376   3.788  13.631  0.00  0.00    +0.000 A 
ATOM     22  C   UNL     1       5.947   3.451  12.401  0.00  0.00    +0.000 A 
ATOM     23  C   UNL     1       7.156   4.018  12.013  0.00  0.00    +0.000 A 
ATOM     24  C   UNL     1       7.804   4.920  12.857  0.00  0.00    +0.000 A 
ATOM     25  C   UNL     1       7.238   5.257  14.090  0.00  0.00    +0.000 A 
ENDBRANCH  19  20
ENDBRANCH  16  19
ENDBRANCH   3  13
BRANCH   2  26
ATOM     26  S   UNL     1       2.292   3.223  21.921  0.00  0.00    +0.000 S 
ATOM     27  H   UNL     1       2.553   2.099  21.239  0.00  0.00    +0.000 HD
ENDBRANCH   2  26
TORSDOF 5
ENDMDL
MODEL 2
REMARK VINA RESULT:      -7.2      3.970      8.991
REMARK  Name = 
REMARK  7 active torsions:
REMARK  status: ('A' for Active; 'I' for Inactive)
REMARK    1  A    between atoms: C_1  and  C_2
REMARK    2  A    between atoms: C_5  and  N_6
REMARK    3  A    between atoms: C_7  and  S_8
REMARK    4  A    between atoms: N_9  and  C_10
REMARK    5  A    between atoms: N_13  and  C_14
REMARK    6  A    between atoms: C_14  and  C_15
REMARK    7  A    between atoms: C_24  and  C_25
REMARK                            x       y       z     vdW  Elec       q    Type
REMARK                         _______ _______ _______ _____ _____    ______ ____
ROOT
ATOM      1  N   UNL     1       1.769   7.726  21.342  0.00  0.00    +0.000 N 
ATOM      2  C   UNL     1       0.904   8.798  21.337  0.00  0.00    +0.000 C 
ATOM      3  N   UNL     1       0.501   9.399  20.281  0.00  0.00    +0.000 NA
ATOM      4  H   UNL     1       2.021   7.389  22.260  0.00  0.00    +0.000 HD
ENDROOT
BRANCH   1   9
ATOM      5  C   UNL     1       2.392   3.594  17.371  0.00  0.00    +0.000 C 
ATOM      6  C   UNL     1       2.196   4.659  18.415  0.00  0.00    +0.000 A 
ATOM      7  C   UNL     1       2.666   5.948  18.163  0.00  0.00    +0.000 A 
ATOM      8  C   UNL     1       2.517   6.964  19.110  0.00  0.00    +0.000 A 
ATOM      9  C   UNL     1       1.887   6.738  20.335  0.00  0.00    +0.000 A 
ATOM     10  C   UNL     1       1.425   5.434  20.591  0.00  0.00    +0.000 A 
ATOM     11  C   UNL     1       1.567   4.393  19.646  0.00  0.00    +0.000 A 
ATOM     12  C   UNL     1       1.064   3.014  19.970  0.00  0.00    +0.000 C 
ENDBRANCH   1   9
BRANCH   3  13
ATOM     13  C   UNL     1      -0.542  10.412  20.169  0.00  0.00    +0.000 C 
ATOM     14  C   UNL     1      -0.467  10.941  18.731  0.00  0.00    +0.000 C 
ATOM     15  C   UNL     1       0.842  11.694  18.485  0.00  0.00    +0.000 C 
ATOM     16  N   UNL     1       1.019  12.835  19.410  0.00  0.00    +0.000 NA
ATOM     17  C   UNL     1       0.954  12.370  20.810  0.00  0.00    +0.000 C 
ATOM     18  C   UNL     1      -0.324  11.586  21.118  0.00  0.00    +0.000 C 
BRANCH  16  19
ATOM     19  C   UNL     1       2.327  13.470  19.122  0.00  0.00    +0.000 C 
BRANCH  19  20
ATOM     20  C   UNL     1       2.260  14.874  18.561  0.00  0.00    +0.000 A 
ATOM     21  C   UNL     1       3.254  15.330  17.679  0.00  0.00    +0.000 A 
ATOM     22  C   UNL     1       3.174  16.609  17.120  0.00  0.00    +0.000 A 
ATOM     23  C   UNL     1       2.104  17.441  17.431  0.00  0.00    +0.000 A 
ATOM     24  C   UNL     1       1.113  17.003  18.308  0.00  0.00    +0.000 A 
ATOM     25  C   UNL     1       1.192  15.726  18.873  0.00  0.00    +0.000 A 
ENDBRANCH  19  20
ENDBRANCH  16  19
ENDBRANCH   3  13
BRANCH   2  26
ATOM     26  S   UNL     1       0.427   9.273  22.957  0.00  0.00    +0.000 S 
ATOM     27  H   UNL     1      -0.761   9.780  22.603  0.00  0.00    +0.000 HD
ENDBRANCH   2  26
TORSDOF 5
ENDMDL
MODEL 3
REMARK VINA RESULT:      -7.2      0.308      1.013
REMARK  Name = 
REMARK  7 active torsions:
REMARK  status: ('A' for Active; 'I' for Inactive)
REMARK    1  A    between atoms: C_1  and  C_2
REMARK    2  A    between atoms: C_5  and  N_6
REMARK    3  A    between atoms: C_7  and  S_8
REMARK    4  A    between atoms: N_9  and  C_10
REMARK    5  A    between atoms: N_13  and  C_14
REMARK    6  A    between atoms: C_14  and  C_15
REMARK    7  A    between atoms: C_24  and  C_25
REMARK                            x       y       z     vdW  Elec       q    Type
REMARK                         _______ _______ _______ _____ _____    ______ ____
ROOT
ATOM      1  N   UNL     1       1.428   5.257  20.875  0.00  0.00    +0.000 N 
ATOM      2  C   UNL     1       2.021   4.065  20.525  0.00  0.00    +0.000 C 
ATOM      3  N   UNL     1       2.358   3.745  19.332  0.00  0.00    +0.000 NA
ATOM      4  H   UNL     1       1.187   5.341  21.852  0.00  0.00    +0.000 HD
ENDROOT
BRANCH   1   9
ATOM      5  C   UNL     1       2.001  10.363  18.261  0.00  0.00    +0.000 C 
ATOM      6  C   UNL     1       1.857   9.047  18.975  0.00  0.00    +0.000 A 
ATOM      7  C   UNL     1       2.375   7.896  18.382  0.00  0.00    +0.000 A 
ATOM      8  C   UNL     1       2.252   6.651  19.004  0.00  0.00    +0.000 A 
ATOM      9  C   UNL     1       1.621   6.508  20.242  0.00  0.00    +0.000 A 
ATOM     10  C   UNL     1       1.091   7.670  20.831  0.00  0.00    +0.000 A 
ATOM     11  C   UNL     1       1.204   8.937  20.217  0.00  0.00    +0.000 A 
ATOM     12  C   UNL     1       0.612  10.148  20.884  0.00  0.00    +0.000 C 
ENDBRANCH   1   9
BRANCH   3  13
ATOM     13  C   UNL     1       3.146   2.597  18.901  0.00  0.00    +0.000 C 
ATOM     14  C   UNL     1       4.614   2.977  19.135  0.00  0.00    +0.000 C 
ATOM     15  C   UNL     1       5.044   4.119  18.211  0.00  0.00    +0.000 C 
ATOM     16  N   UNL     1       4.873   3.784  16.781  0.00  0.00    +0.000 NA
ATOM     17  C   UNL     1       3.470   3.411  16.510  0.00  0.00    +0.000 C 
ATOM     18  C   UNL     1       2.967   2.286  17.418  0.00  0.00    +0.000 C 
BRANCH  16  19
ATOM     19  C   UNL     1       5.274   4.961  15.975  0.00  0.00    +0.000 C 
BRANCH  19  20
ATOM     20  C   UNL     1       5.889   4.649  14.628  0.00  0.00    +0.000 A 
ATOM     21  C   UNL     1       7.134   5.198  14.276  0.00  0.00    +0.000 A 
ATOM     22  C   UNL     1       7.731   4.877  13.054  0.00  0.00    +0.000 A 
ATOM     23  C   UNL     1       7.096   4.006  12.174  0.00  0.00    +0.000 A 
ATOM     24  C   UNL     1       5.858   3.458  12.508  0.00  0.00    +0.000 A 
ATOM     25  C   UNL     1       5.256   3.780  13.728  0.00  0.00    +0.000 A 
ENDBRANCH  19  20
ENDBRANCH  16  19
ENDBRANCH   3  13
BRANCH   2  26
ATOM     26  S   UNL     1       2.245   3.006  21.906  0.00  0.00    +0.000 S 
ATOM     27  H   UNL     1       1.798   1.898  21.299  0.00  0.00    +0.000 HD
ENDBRANCH   2  26
TORSDOF 5
ENDMDL
MODEL 4
REMARK VINA RESULT:      -7.0      0.956      1.266
REMARK  Name = 
REMARK  7 active torsions:
REMARK  status: ('A' for Active; 'I' for Inactive)
REMARK    1  A    between atoms: C_1  and  C_2
REMARK    2  A    between atoms: C_5  and  N_6
REMARK    3  A    between atoms: C_7  and  S_8
REMARK    4  A    between atoms: N_9  and  C_10
REMARK    5  A    between atoms: N_13  and  C_14
REMARK    6  A    between atoms: C_14  and  C_15
REMARK    7  A    between atoms: C_24  and  C_25
REMARK                            x       y       z     vdW  Elec       q    Type
REMARK                         _______ _______ _______ _____ _____    ______ ____
ROOT
ATOM      1  N   UNL     1       1.421   5.514  20.627  0.00  0.00    +0.000 N 
ATOM      2  C   UNL     1       2.540   4.731  20.457  0.00  0.00    +0.000 C 
ATOM      3  N   UNL     1       3.524   5.028  19.694  0.00  0.00    +0.000 NA
ATOM      4  H   UNL     1       0.715   5.121  21.233  0.00  0.00    +0.000 HD
ENDROOT
BRANCH   1   9
ATOM      5  C   UNL     1       0.982  11.254  20.330  0.00  0.00    +0.000 C 
ATOM      6  C   UNL     1       1.105   9.759  20.443  0.00  0.00    +0.000 A 
ATOM      7  C   UNL     1       1.660   9.045  19.381  0.00  0.00    +0.000 A 
ATOM      8  C   UNL     1       1.781   7.654  19.438  0.00  0.00    +0.000 A 
ATOM      9  C   UNL     1       1.366   6.927  20.556  0.00  0.00    +0.000 A 
ATOM     10  C   UNL     1       0.797   7.650  21.619  0.00  0.00    +0.000 A 
ATOM     11  C   UNL     1       0.664   9.056  21.580  0.00  0.00    +0.000 A 
ATOM     12  C   UNL     1       0.041   9.782  22.739  0.00  0.00    +0.000 C 
ENDBRANCH   1   9
BRANCH   3  13
ATOM     13  C   UNL     1       4.815   4.357  19.593  0.00  0.00    +0.000 C 
ATOM     14  C   UNL     1       5.828   5.441  19.207  0.00  0.00    +0.000 C 
ATOM     15  C   UNL     1       5.554   5.982  17.802  0.00  0.00    +0.000 C 
ATOM     16  N   UNL     1       5.593   4.922  16.772  0.00  0.00    +0.000 NA
ATOM     17  C   UNL     1       4.630   3.853  17.104  0.00  0.00    +0.000 C 
ATOM     18  C   UNL     1       4.834   3.283  18.509  0.00  0.00    +0.000 C 
BRANCH  16  19
ATOM     19  C   UNL     1       5.275   5.534  15.460  0.00  0.00    +0.000 C 
BRANCH  19  20
ATOM     20  C   UNL     1       5.927   4.880  14.261  0.00  0.00    +0.000 A 
ATOM     21  C   UNL     1       5.224   3.921  13.511  0.00  0.00    +0.000 A 
ATOM     22  C   UNL     1       5.801   3.347  12.375  0.00  0.00    +0.000 A 
ATOM     23  C   UNL     1       7.078   3.723  11.974  0.00  0.00    +0.000 A 
ATOM     24  C   UNL     1       7.789   4.670  12.712  0.00  0.00    +0.000 A 
ATOM     25  C   UNL     1       7.217   5.243  13.852  0.00  0.00    +0.000 A 
ENDBRANCH  19  20
ENDBRANCH  16  19
ENDBRANCH   3  13
BRANCH   2  26
ATOM     26  S   UNL     1       2.460   3.248  21.392  0.00  0.00    +0.000 S 
ATOM     27  H   UNL     1       1.616   2.614  20.566  0.00  0.00    +0.000 HD
ENDBRANCH   2  26
TORSDOF 5
ENDMDL
MODEL 5
REMARK VINA RESULT:      -7.0      1.829      2.652
REMARK  Name = 
REMARK  7 active torsions:
REMARK  status: ('A' for Active; 'I' for Inactive)
REMARK    1  A    between atoms: C_1  and  C_2
REMARK    2  A    between atoms: C_5  and  N_6
REMARK    3  A    between atoms: C_7  and  S_8
REMARK    4  A    between atoms: N_9  and  C_10
REMARK    5  A    between atoms: N_13  and  C_14
REMARK    6  A    between atoms: C_14  and  C_15
REMARK    7  A    between atoms: C_24  and  C_25
REMARK                            x       y       z     vdW  Elec       q    Type
REMARK                         _______ _______ _______ _____ _____    ______ ____
ROOT
ATOM      1  N   UNL     1       1.445   5.407  20.999  0.00  0.00    +0.000 N 
ATOM      2  C   UNL     1       1.860   4.141  20.653  0.00  0.00    +0.000 C 
ATOM      3  N   UNL     1       1.983   3.722  19.450  0.00  0.00    +0.000 NA
ATOM      4  H   UNL     1       1.362   5.570  21.993  0.00  0.00    +0.000 HD
ENDROOT
BRANCH   1   9
ATOM      5  C   UNL     1       2.126  10.243  17.936  0.00  0.00    +0.000 C 
ATOM      6  C   UNL     1       1.951   9.000  18.767  0.00  0.00    +0.000 A 
ATOM      7  C   UNL     1       2.519   7.806  18.323  0.00  0.00    +0.000 A 
ATOM      8  C   UNL     1       2.371   6.626  19.056  0.00  0.00    +0.000 A 
ATOM      9  C   UNL     1       1.665   6.594  20.260  0.00  0.00    +0.000 A 
ATOM     10  C   UNL     1       1.084   7.797  20.698  0.00  0.00    +0.000 A 
ATOM     11  C   UNL     1       1.221   9.001  19.970  0.00  0.00    +0.000 A 
ATOM     12  C   UNL     1       0.574  10.260  20.476  0.00  0.00    +0.000 C 
ENDBRANCH   1   9
BRANCH   3  13
ATOM     13  C   UNL     1       2.581   2.473  18.992  0.00  0.00    +0.000 C 
ATOM     14  C   UNL     1       4.084   2.594  19.275  0.00  0.00    +0.000 C 
ATOM     15  C   UNL     1       4.725   3.680  18.408  0.00  0.00    +0.000 C 
ATOM     16  N   UNL     1       4.543   3.429  16.962  0.00  0.00    +0.000 NA
ATOM     17  C   UNL     1       3.107   3.305  16.644  0.00  0.00    +0.000 C 
ATOM     18  C   UNL     1       2.397   2.249  17.494  0.00  0.00    +0.000 C 
BRANCH  16  19
ATOM     19  C   UNL     1       5.158   4.550  16.212  0.00  0.00    +0.000 C 
BRANCH  19  20
ATOM     20  C   UNL     1       6.110   5.419  17.004  0.00  0.00    +0.000 A 
ATOM     21  C   UNL     1       7.074   4.829  17.841  0.00  0.00    +0.000 A 
ATOM     22  C   UNL     1       7.988   5.623  18.539  0.00  0.00    +0.000 A 
ATOM     23  C   UNL     1       7.953   7.007  18.409  0.00  0.00    +0.000 A 
ATOM     24  C   UNL     1       6.999   7.606  17.586  0.00  0.00    +0.000 A 
ATOM     25  C   UNL     1       6.080   6.815  16.889  0.00  0.00    +0.000 A 
ENDBRANCH  19  20
ENDBRANCH  16  19
ENDBRANCH   3  13
BRANCH   2  26
ATOM     26  S   UNL     1       2.181   3.141  22.058  0.00  0.00    +0.000 S 
ATOM     27  H   UNL     1       1.407   3.838  22.900  0.00  0.00    +0.000 HD
ENDBRANCH   2  26
TORSDOF 5
ENDMDL
MODEL 6
REMARK VINA RESULT:      -6.8      4.017      9.210
REMARK  Name = 
REMARK  7 active torsions:
REMARK  status: ('A' for Active; 'I' for Inactive)
REMARK    1  A    between atoms: C_1  and  C_2
REMARK    2  A    between atoms: C_5  and  N_6
REMARK    3  A    between atoms: C_7  and  S_8
REMARK    4  A    between atoms: N_9  and  C_10
REMARK    5  A    between atoms: N_13  and  C_14
REMARK    6  A    between atoms: C_14  and  C_15
REMARK    7  A    between atoms: C_24  and  C_25
REMARK                            x       y       z     vdW  Elec       q    Type
REMARK                         _______ _______ _______ _____ _____    ______ ____
ROOT
ATOM      1  N   UNL     1       1.804   7.842  21.348  0.00  0.00    +0.000 N 
ATOM      2  C   UNL     1       0.865   8.846  21.404  0.00  0.00    +0.000 C 
ATOM      3  N   UNL     1       0.322   9.389  20.380  0.00  0.00    +0.000 NA
ATOM      4  H   UNL     1       2.165   7.547  22.245  0.00  0.00    +0.000 HD
ENDROOT
BRANCH   1   9
ATOM      5  C   UNL     1       2.355   3.657  17.422  0.00  0.00    +0.000 C 
ATOM      6  C   UNL     1       2.178   4.735  18.456  0.00  0.00    +0.000 A 
ATOM      7  C   UNL     1       2.633   6.023  18.173  0.00  0.00    +0.000 A 
ATOM      8  C   UNL     1       2.501   7.052  19.109  0.00  0.00    +0.000 A 
ATOM      9  C   UNL     1       1.904   6.839  20.353  0.00  0.00    +0.000 A 
ATOM     10  C   UNL     1       1.457   5.537  20.639  0.00  0.00    +0.000 A 
ATOM     11  C   UNL     1       1.583   4.483  19.706  0.00  0.00    +0.000 A 
ATOM     12  C   UNL     1       1.097   3.105  20.063  0.00  0.00    +0.000 C 
ENDBRANCH   1   9
BRANCH   3  13
ATOM     13  C   UNL     1      -0.800  10.320  20.348  0.00  0.00    +0.000 C 
ATOM     14  C   UNL     1      -1.016  10.673  18.871  0.00  0.00    +0.000 C 
ATOM     15  C   UNL     1       0.168  11.464  18.311  0.00  0.00    +0.000 C 
ATOM     16  N   UNL     1       0.413  12.717  19.057  0.00  0.00    +0.000 NA
ATOM     17  C   UNL     1       0.627  12.424  20.488  0.00  0.00    +0.000 C 
ATOM     18  C   UNL     1      -0.513  11.612  21.107  0.00  0.00    +0.000 C 
BRANCH  16  19
ATOM     19  C   UNL     1       1.598  13.386  18.470  0.00  0.00    +0.000 C 
BRANCH  19  20
ATOM     20  C   UNL     1       1.715  14.868  18.751  0.00  0.00    +0.000 A 
ATOM     21  C   UNL     1       0.569  15.682  18.742  0.00  0.00    +0.000 A 
ATOM     22  C   UNL     1       0.663  17.042  19.047  0.00  0.00    +0.000 A 
ATOM     23  C   UNL     1       1.895  17.604  19.367  0.00  0.00    +0.000 A 
ATOM     24  C   UNL     1       3.041  16.809  19.375  0.00  0.00    +0.000 A 
ATOM     25  C   UNL     1       2.952  15.448  19.066  0.00  0.00    +0.000 A 
ENDBRANCH  19  20
ENDBRANCH  16  19
ENDBRANCH   3  13
BRANCH   2  26
ATOM     26  S   UNL     1       0.504   9.326  23.053  0.00  0.00    +0.000 S 
ATOM     27  H   UNL     1      -0.507   8.464  23.225  0.00  0.00    +0.000 HD
ENDBRANCH   2  26
TORSDOF 5
ENDMDL
MODEL 7
REMARK VINA RESULT:      -6.8      0.803      1.501
REMARK  Name = 
REMARK  7 active torsions:
REMARK  status: ('A' for Active; 'I' for Inactive)
REMARK    1  A    between atoms: C_1  and  C_2
REMARK    2  A    between atoms: C_5  and  N_6
REMARK    3  A    between atoms: C_7  and  S_8
REMARK    4  A    between atoms: N_9  and  C_10
REMARK    5  A    between atoms: N_13  and  C_14
REMARK    6  A    between atoms: C_14  and  C_15
REMARK    7  A    between atoms: C_24  and  C_25
REMARK                            x       y       z     vdW  Elec       q    Type
REMARK                         _______ _______ _______ _____ _____    ______ ____
ROOT
ATOM      1  N   UNL     1       1.327   5.306  20.668  0.00  0.00    +0.000 N 
ATOM      2  C   UNL     1       2.426   4.490  20.522  0.00  0.00    +0.000 C 
ATOM      3  N   UNL     1       3.354   4.672  19.660  0.00  0.00    +0.000 NA
ATOM      4  H   UNL     1       0.664   5.004  21.368  0.00  0.00    +0.000 HD
ENDROOT
BRANCH   1   9
ATOM      5  C   UNL     1       1.334  10.980  19.653  0.00  0.00    +0.000 C 
ATOM      6  C   UNL     1       1.322   9.494  19.883  0.00  0.00    +0.000 A 
ATOM      7  C   UNL     1       0.872   9.004  21.109  0.00  0.00    +0.000 A 
ATOM      8  C   UNL     1       0.856   7.631  21.370  0.00  0.00    +0.000 A 
ATOM      9  C   UNL     1       1.275   6.698  20.419  0.00  0.00    +0.000 A 
ATOM     10  C   UNL     1       1.738   7.198  19.188  0.00  0.00    +0.000 A 
ATOM     11  C   UNL     1       1.763   8.582  18.906  0.00  0.00    +0.000 A 
ATOM     12  C   UNL     1       2.275   9.066  17.578  0.00  0.00    +0.000 C 
ENDBRANCH   1   9
BRANCH   3  13
ATOM     13  C   UNL     1       4.630   3.974  19.555  0.00  0.00    +0.000 C 
ATOM     14  C   UNL     1       5.683   5.054  19.276  0.00  0.00    +0.000 C 
ATOM     15  C   UNL     1       5.470   5.694  17.903  0.00  0.00    +0.000 C 
ATOM     16  N   UNL     1       5.518   4.704  16.805  0.00  0.00    +0.000 NA
ATOM     17  C   UNL     1       4.518   3.642  17.033  0.00  0.00    +0.000 C 
ATOM     18  C   UNL     1       4.660   2.975  18.403  0.00  0.00    +0.000 C 
BRANCH  16  19
ATOM     19  C   UNL     1       5.261   5.410  15.528  0.00  0.00    +0.000 C 
BRANCH  19  20
ATOM     20  C   UNL     1       5.963   4.840  14.315  0.00  0.00    +0.000 A 
ATOM     21  C   UNL     1       5.330   3.861  13.528  0.00  0.00    +0.000 A 
ATOM     22  C   UNL     1       5.952   3.364  12.379  0.00  0.00    +0.000 A 
ATOM     23  C   UNL     1       7.205   3.836  12.003  0.00  0.00    +0.000 A 
ATOM     24  C   UNL     1       7.846   4.803  12.777  0.00  0.00    +0.000 A 
ATOM     25  C   UNL     1       7.229   5.300  13.929  0.00  0.00    +0.000 A 
ENDBRANCH  19  20
ENDBRANCH  16  19
ENDBRANCH   3  13
BRANCH   2  26
ATOM     26  S   UNL     1       2.405   3.142  21.644  0.00  0.00    +0.000 S 
ATOM     27  H   UNL     1       3.613   2.669  21.308  0.00  0.00    +0.000 HD
ENDBRANCH   2  26
TORSDOF 5
ENDMDL
MODEL 8
REMARK VINA RESULT:      -6.7      0.502      1.754
REMARK  Name = 
REMARK  7 active torsions:
REMARK  status: ('A' for Active; 'I' for Inactive)
REMARK    1  A    between atoms: C_1  and  C_2
REMARK    2  A    between atoms: C_5  and  N_6
REMARK    3  A    between atoms: C_7  and  S_8
REMARK    4  A    between atoms: N_9  and  C_10
REMARK    5  A    between atoms: N_13  and  C_14
REMARK    6  A    between atoms: C_14  and  C_15
REMARK    7  A    between atoms: C_24  and  C_25
REMARK                            x       y       z     vdW  Elec       q    Type
REMARK                         _______ _______ _______ _____ _____    ______ ____
ROOT
ATOM      1  N   UNL     1       1.353   5.186  20.909  0.00  0.00    +0.000 N 
ATOM      2  C   UNL     1       1.980   4.008  20.571  0.00  0.00    +0.000 C 
ATOM      3  N   UNL     1       2.315   3.680  19.379  0.00  0.00    +0.000 NA
ATOM      4  H   UNL     1       1.121   5.277  21.888  0.00  0.00    +0.000 HD
ENDROOT
BRANCH   1   9
ATOM      5  C   UNL     1       2.159  10.264  18.303  0.00  0.00    +0.000 C 
ATOM      6  C   UNL     1       1.947   8.922  18.950  0.00  0.00    +0.000 A 
ATOM      7  C   UNL     1       1.160   8.843  20.098  0.00  0.00    +0.000 A 
ATOM      8  C   UNL     1       0.947   7.620  20.739  0.00  0.00    +0.000 A 
ATOM      9  C   UNL     1       1.500   6.433  20.255  0.00  0.00    +0.000 A 
ATOM     10  C   UNL     1       2.302   6.519  19.104  0.00  0.00    +0.000 A 
ATOM     11  C   UNL     1       2.530   7.746  18.443  0.00  0.00    +0.000 A 
ATOM     12  C   UNL     1       3.403   7.787  17.219  0.00  0.00    +0.000 C 
ENDBRANCH   1   9
BRANCH   3  13
ATOM     13  C   UNL     1       3.134   2.551  18.956  0.00  0.00    +0.000 C 
ATOM     14  C   UNL     1       4.589   2.967  19.203  0.00  0.00    +0.000 C 
ATOM     15  C   UNL     1       5.000   4.119  18.282  0.00  0.00    +0.000 C 
ATOM     16  N   UNL     1       4.850   3.778  16.851  0.00  0.00    +0.000 NA
ATOM     17  C   UNL     1       3.459   3.371  16.568  0.00  0.00    +0.000 C 
ATOM     18  C   UNL     1       2.976   2.235  17.472  0.00  0.00    +0.000 C 
BRANCH  16  19
ATOM     19  C   UNL     1       5.229   4.964  16.046  0.00  0.00    +0.000 C 
BRANCH  19  20
ATOM     20  C   UNL     1       5.842   4.666  14.695  0.00  0.00    +0.000 A 
ATOM     21  C   UNL     1       7.070   5.246  14.334  0.00  0.00    +0.000 A 
ATOM     22  C   UNL     1       7.666   4.939  13.108  0.00  0.00    +0.000 A 
ATOM     23  C   UNL     1       7.048   4.051  12.234  0.00  0.00    +0.000 A 
ATOM     24  C   UNL     1       5.827   3.472  12.578  0.00  0.00    +0.000 A 
ATOM     25  C   UNL     1       5.225   3.780  13.802  0.00  0.00    +0.000 A 
ENDBRANCH  19  20
ENDBRANCH  16  19
ENDBRANCH   3  13
BRANCH   2  26
ATOM     26  S   UNL     1       2.253   2.977  21.965  0.00  0.00    +0.000 S 
ATOM     27  H   UNL     1       3.073   3.826  22.600  0.00  0.00    +0.000 HD
ENDBRANCH   2  26
TORSDOF 5
ENDMDL
MODEL 9
REMARK VINA RESULT:      -6.6      1.535      8.078
REMARK  Name = 
REMARK  7 active torsions:
REMARK  status: ('A' for Active; 'I' for Inactive)
REMARK    1  A    between atoms: C_1  and  C_2
REMARK    2  A    between atoms: C_5  and  N_6
REMARK    3  A    between atoms: C_7  and  S_8
REMARK    4  A    between atoms: N_9  and  C_10
REMARK    5  A    between atoms: N_13  and  C_14
REMARK    6  A    between atoms: C_14  and  C_15
REMARK    7  A    between atoms: C_24  and  C_25
REMARK                            x       y       z     vdW  Elec       q    Type
REMARK                         _______ _______ _______ _____ _____    ______ ____
ROOT
ATOM      1  N   UNL     1       5.772   3.655  18.357  0.00  0.00    +0.000 N 
ATOM      2  C   UNL     1       4.469   3.593  18.797  0.00  0.00    +0.000 C 
ATOM      3  N   UNL     1       3.548   4.413  18.453  0.00  0.00    +0.000 NA
ATOM      4  H   UNL     1       6.386   2.956  18.752  0.00  0.00    +0.000 HD
ENDROOT
BRANCH   1   9
ATOM      5  C   UNL     1       7.641   5.412  13.195  0.00  0.00    +0.000 C 
ATOM      6  C   UNL     1       7.119   4.954  14.530  0.00  0.00    +0.000 A 
ATOM      7  C   UNL     1       7.735   5.420  15.691  0.00  0.00    +0.000 A 
ATOM      8  C   UNL     1       7.290   5.010  16.952  0.00  0.00    +0.000 A 
ATOM      9  C   UNL     1       6.213   4.135  17.101  0.00  0.00    +0.000 A 
ATOM     10  C   UNL     1       5.602   3.660  15.927  0.00  0.00    +0.000 A 
ATOM     11  C   UNL     1       6.038   4.060  14.644  0.00  0.00    +0.000 A 
ATOM     12  C   UNL     1       5.357   3.517  13.419  0.00  0.00    +0.000 C 
ENDBRANCH   1   9
BRANCH   3  13
ATOM     13  C   UNL     1       2.118   4.320  18.721  0.00  0.00    +0.000 C 
ATOM     14  C   UNL     1       1.452   5.390  17.848  0.00  0.00    +0.000 C 
ATOM     15  C   UNL     1       1.846   6.798  18.301  0.00  0.00    +0.000 C 
ATOM     16  N   UNL     1       1.487   7.059  19.711  0.00  0.00    +0.000 NA
ATOM     17  C   UNL     1       2.109   6.049  20.590  0.00  0.00    +0.000 C 
ATOM     18  C   UNL     1       1.773   4.613  20.178  0.00  0.00    +0.000 C 
BRANCH  16  19
ATOM     19  C   UNL     1       1.944   8.424  20.065  0.00  0.00    +0.000 C 
BRANCH  19  20
ATOM     20  C   UNL     1       1.009   9.215  20.953  0.00  0.00    +0.000 A 
ATOM     21  C   UNL     1       0.207  10.231  20.405  0.00  0.00    +0.000 A 
ATOM     22  C   UNL     1      -0.695  10.934  21.209  0.00  0.00    +0.000 A 
ATOM     23  C   UNL     1      -0.807  10.631  22.562  0.00  0.00    +0.000 A 
ATOM     24  C   UNL     1      -0.013   9.629  23.119  0.00  0.00    +0.000 A 
ATOM     25  C   UNL     1       0.892   8.926  22.319  0.00  0.00    +0.000 A 
ENDBRANCH  19  20
ENDBRANCH  16  19
ENDBRANCH   3  13
BRANCH   2  26
ATOM     26  S   UNL     1       4.207   2.265  19.913  0.00  0.00    +0.000 S 
ATOM     27  H   UNL     1       3.739   1.409  18.995  0.00  0.00    +0.000 HD
ENDBRANCH   2  26
TORSDOF 5
ENDMDL
