MODEL 1
REMARK VINA RESULT:      -8.5      0.000      0.000
REMARK  Name = 
REMARK  9 active torsions:
REMARK  status: ('A' for Active; 'I' for Inactive)
REMARK    1  A    between atoms: C_1  and  C_2
REMARK    2  A    between atoms: C_3  and  C_4
REMARK    3  A    between atoms: C_4  and  C_5
REMARK    4  A    between atoms: C_5  and  O_7
REMARK    5  A    between atoms: C_12  and  C_13
REMARK    6  A    between atoms: C_14  and  O_15
REMARK    7  A    between atoms: O_15  and  C_16
REMARK    8  A    between atoms: C_16  and  C_17
REMARK    9  A    between atoms: C_21  and  C_22
REMARK                            x       y       z     vdW  Elec       q    Type
REMARK                         _______ _______ _______ _____ _____    ______ ____
ROOT
ATOM      1  C   UNL     1       4.101   5.671  17.274  0.00  0.00    +0.000 C 
ATOM      2  C   UNL     1       3.228   5.768  18.497  0.00  0.00    +0.000 A 
ATOM      3  C   UNL     1       2.982   4.728  19.328  0.00  0.00    +0.000 A 
ATOM      4  C   UNL     1       2.092   4.901  20.507  0.00  0.00    +0.000 A 
ATOM      5  O   UNL     1       1.664   3.938  21.139  0.00  0.00    +0.000 OA
ATOM      6  O   UNL     1       1.774   6.189  20.880  0.00  0.00    +0.000 OA
ATOM      7  C   UNL     1       1.886   7.250  19.967  0.00  0.00    +0.000 A 
ATOM      8  C   UNL     1       1.220   8.445  20.289  0.00  0.00    +0.000 A 
ATOM      9  C   UNL     1       0.495   8.627  21.597  0.00  0.00    +0.000 C 
ATOM     10  C   UNL     1       1.231   9.490  19.352  0.00  0.00    +0.000 A 
ATOM     11  C   UNL     1       1.914   9.334  18.147  0.00  0.00    +0.000 A 
ATOM     12  C   UNL     1       2.601   8.144  17.871  0.00  0.00    +0.000 A 
ATOM     13  C   UNL     1       2.585   7.072  18.772  0.00  0.00    +0.000 A 
ENDROOT
BRANCH   3  14
ATOM     14  C   UNL     1       3.451   3.304  19.121  0.00  0.00    +0.000 C 
BRANCH  14  15
ATOM     15  C   UNL     1       2.528   2.418  18.303  0.00  0.00    +0.000 C 
ATOM     16  O   UNL     1       2.414   2.429  17.087  0.00  0.00    +0.000 OA
BRANCH  15  17
ATOM     17  O   UNL     1       1.789   1.583  19.088  0.00  0.00    +0.000 OA
ATOM     18  H   UNL     1       0.836   1.585  18.878  0.00  0.00    +0.000 HD
ENDBRANCH  15  17
ENDBRANCH  14  15
ENDBRANCH   3  14
BRANCH  10  19
ATOM     19  O   UNL     1       0.497  10.595  19.682  0.00  0.00    +0.000 OA
BRANCH  19  20
ATOM     20  C   UNL     1       0.096  11.457  18.620  0.00  0.00    +0.000 C 
BRANCH  20  21
ATOM     21  C   UNL     1      -1.340  11.126  18.296  0.00  0.00    +0.000 A 
ATOM     22  C   UNL     1      -1.671  10.112  17.390  0.00  0.00    +0.000 A 
ATOM     23  C   UNL     1      -3.008   9.823  17.113  0.00  0.00    +0.000 A 
ATOM     24  C   UNL     1      -4.029  10.549  17.731  0.00  0.00    +0.000 A 
ATOM     25  C   UNL     1      -3.723  11.578  18.631  0.00  0.00    +0.000 A 
ATOM     26  C   UNL     1      -2.375  11.854  18.909  0.00  0.00    +0.000 A 
BRANCH  25  27
ATOM     27  C   UNL     1      -4.805  12.391  19.295  0.00  0.00    +0.000 C 
ATOM     28  F   UNL     1      -5.672  12.967  18.416  0.00  0.00    +0.000 F 
ATOM     29  F   UNL     1      -5.571  11.653  20.146  0.00  0.00    +0.000 F 
ATOM     30  F   UNL     1      -4.300  13.414  20.041  0.00  0.00    +0.000 F 
ENDBRANCH  25  27
ENDBRANCH  20  21
ENDBRANCH  19  20
ENDBRANCH  10  19
TORSDOF 7
ENDMDL
MODEL 2
REMARK VINA RESULT:      -8.4      1.633      2.135
REMARK  Name = 
REMARK  9 active torsions:
REMARK  status: ('A' for Active; 'I' for Inactive)
REMARK    1  A    between atoms: C_1  and  C_2
REMARK    2  A    between atoms: C_3  and  C_4
REMARK    3  A    between atoms: C_4  and  C_5
REMARK    4  A    between atoms: C_5  and  O_7
REMARK    5  A    between atoms: C_12  and  C_13
REMARK    6  A    between atoms: C_14  and  O_15
REMARK    7  A    between atoms: O_15  and  C_16
REMARK    8  A    between atoms: C_16  and  C_17
REMARK    9  A    between atoms: C_21  and  C_22
REMARK                            x       y       z     vdW  Elec       q    Type
REMARK                         _______ _______ _______ _____ _____    ______ ____
ROOT
ATOM      1  C   UNL     1       4.007   5.778  17.278  0.00  0.00    +0.000 C 
ATOM      2  C   UNL     1       3.170   5.855  18.527  0.00  0.00    +0.000 A 
ATOM      3  C   UNL     1       2.927   4.795  19.333  0.00  0.00    +0.000 A 
ATOM      4  C   UNL     1       2.074   4.949  20.543  0.00  0.00    +0.000 A 
ATOM      5  O   UNL     1       1.644   3.976  21.157  0.00  0.00    +0.000 OA
ATOM      6  O   UNL     1       1.792   6.231  20.963  0.00  0.00    +0.000 OA
ATOM      7  C   UNL     1       1.900   7.317  20.079  0.00  0.00    +0.000 A 
ATOM      8  C   UNL     1       1.268   8.515  20.456  0.00  0.00    +0.000 A 
ATOM      9  C   UNL     1       0.584   8.670  21.789  0.00  0.00    +0.000 C 
ATOM     10  C   UNL     1       1.274   9.587  19.551  0.00  0.00    +0.000 A 
ATOM     11  C   UNL     1       1.919   9.455  18.322  0.00  0.00    +0.000 A 
ATOM     12  C   UNL     1       2.574   8.261  17.991  0.00  0.00    +0.000 A 
ATOM     13  C   UNL     1       2.562   7.162  18.860  0.00  0.00    +0.000 A 
ENDROOT
BRANCH   3  14
ATOM     14  C   UNL     1       3.360   3.369  19.071  0.00  0.00    +0.000 C 
BRANCH  14  15
ATOM     15  C   UNL     1       2.421   2.542  18.212  0.00  0.00    +0.000 C 
ATOM     16  O   UNL     1       2.286   2.634  17.001  0.00  0.00    +0.000 OA
BRANCH  15  17
ATOM     17  O   UNL     1       1.694   1.657  18.952  0.00  0.00    +0.000 OA
ATOM     18  H   UNL     1       1.349   0.902  18.438  0.00  0.00    +0.000 HD
ENDBRANCH  15  17
ENDBRANCH  14  15
ENDBRANCH   3  14
BRANCH  10  19
ATOM     19  O   UNL     1       0.572  10.696  19.935  0.00  0.00    +0.000 OA
BRANCH  19  20
ATOM     20  C   UNL     1       0.309  11.682  18.940  0.00  0.00    +0.000 C 
BRANCH  20  21
ATOM     21  C   UNL     1      -1.167  11.622  18.633  0.00  0.00    +0.000 A 
ATOM     22  C   UNL     1      -2.123  12.089  19.544  0.00  0.00    +0.000 A 
ATOM     23  C   UNL     1      -3.482  12.025  19.233  0.00  0.00    +0.000 A 
ATOM     24  C   UNL     1      -3.902  11.489  18.014  0.00  0.00    +0.000 A 
ATOM     25  C   UNL     1      -2.966  11.004  17.092  0.00  0.00    +0.000 A 
ATOM     26  C   UNL     1      -1.601  11.080  17.412  0.00  0.00    +0.000 A 
BRANCH  25  27
ATOM     27  C   UNL     1      -3.394  10.400  15.779  0.00  0.00    +0.000 C 
ATOM     28  F   UNL     1      -2.572  10.714  14.738  0.00  0.00    +0.000 F 
ATOM     29  F   UNL     1      -3.445   9.039  15.817  0.00  0.00    +0.000 F 
ATOM     30  F   UNL     1      -4.639  10.808  15.402  0.00  0.00    +0.000 F 
ENDBRANCH  25  27
ENDBRANCH  20  21
ENDBRANCH  19  20
ENDBRANCH  10  19
TORSDOF 7
ENDMDL
MODEL 3
REMARK VINA RESULT:      -8.3      2.002      3.035
REMARK  Name = 
REMARK  9 active torsions:
REMARK  status: ('A' for Active; 'I' for Inactive)
REMARK    1  A    between atoms: C_1  and  C_2
REMARK    2  A    between atoms: C_3  and  C_4
REMARK    3  A    between atoms: C_4  and  C_5
REMARK    4  A    between atoms: C_5  and  O_7
REMARK    5  A    between atoms: C_12  and  C_13
REMARK    6  A    between atoms: C_14  and  O_15
REMARK    7  A    between atoms: O_15  and  C_16
REMARK    8  A    between atoms: C_16  and  C_17
REMARK    9  A    between atoms: C_21  and  C_22
REMARK                            x       y       z     vdW  Elec       q    Type
REMARK                         _______ _______ _______ _____ _____    ______ ____
ROOT
ATOM      1  C   UNL     1       2.163   3.869  21.281  0.00  0.00    +0.000 C 
ATOM      2  C   UNL     1       2.620   4.716  20.122  0.00  0.00    +0.000 A 
ATOM      3  C   UNL     1       3.448   4.271  19.149  0.00  0.00    +0.000 A 
ATOM      4  C   UNL     1       3.867   5.177  18.045  0.00  0.00    +0.000 A 
ATOM      5  O   UNL     1       4.789   4.885  17.287  0.00  0.00    +0.000 OA
ATOM      6  O   UNL     1       3.171   6.356  17.891  0.00  0.00    +0.000 OA
ATOM      7  C   UNL     1       2.431   6.897  18.955  0.00  0.00    +0.000 A 
ATOM      8  C   UNL     1       2.051   8.247  18.849  0.00  0.00    +0.000 A 
ATOM      9  C   UNL     1       2.336   9.061  17.614  0.00  0.00    +0.000 C 
ATOM     10  C   UNL     1       1.396   8.844  19.937  0.00  0.00    +0.000 A 
ATOM     11  C   UNL     1       1.115   8.091  21.077  0.00  0.00    +0.000 A 
ATOM     12  C   UNL     1       1.472   6.738  21.136  0.00  0.00    +0.000 A 
ATOM     13  C   UNL     1       2.153   6.119  20.079  0.00  0.00    +0.000 A 
ENDROOT
BRANCH   3  14
ATOM     14  C   UNL     1       4.118   2.914  19.111  0.00  0.00    +0.000 C 
BRANCH  14  15
ATOM     15  C   UNL     1       3.403   1.848  18.300  0.00  0.00    +0.000 C 
ATOM     16  O   UNL     1       2.366   1.998  17.671  0.00  0.00    +0.000 OA
BRANCH  15  17
ATOM     17  O   UNL     1       4.044   0.646  18.355  0.00  0.00    +0.000 OA
ATOM     18  H   UNL     1       5.016   0.715  18.298  0.00  0.00    +0.000 HD
ENDBRANCH  15  17
ENDBRANCH  14  15
ENDBRANCH   3  14
BRANCH  10  19
ATOM     19  O   UNL     1       1.127  10.179  19.812  0.00  0.00    +0.000 OA
BRANCH  19  20
ATOM     20  C   UNL     1       0.325  10.783  20.824  0.00  0.00    +0.000 C 
BRANCH  20  21
ATOM     21  C   UNL     1      -0.963  11.219  20.169  0.00  0.00    +0.000 A 
ATOM     22  C   UNL     1      -1.776  12.206  20.739  0.00  0.00    +0.000 A 
ATOM     23  C   UNL     1      -2.960  12.593  20.109  0.00  0.00    +0.000 A 
ATOM     24  C   UNL     1      -3.349  11.994  18.909  0.00  0.00    +0.000 A 
ATOM     25  C   UNL     1      -2.559  10.995  18.327  0.00  0.00    +0.000 A 
ATOM     26  C   UNL     1      -1.366  10.619  18.964  0.00  0.00    +0.000 A 
BRANCH  25  27
ATOM     27  C   UNL     1      -2.967  10.316  17.044  0.00  0.00    +0.000 C 
ATOM     28  F   UNL     1      -3.598   9.123  17.232  0.00  0.00    +0.000 F 
ATOM     29  F   UNL     1      -3.818  11.074  16.296  0.00  0.00    +0.000 F 
ATOM     30  F   UNL     1      -1.901  10.048  16.238  0.00  0.00    +0.000 F 
ENDBRANCH  25  27
ENDBRANCH  20  21
ENDBRANCH  19  20
ENDBRANCH  10  19
TORSDOF 7
ENDMDL
MODEL 4
REMARK VINA RESULT:      -8.3      1.487      2.098
REMARK  Name = 
REMARK  9 active torsions:
REMARK  status: ('A' for Active; 'I' for Inactive)
REMARK    1  A    between atoms: C_1  and  C_2
REMARK    2  A    between atoms: C_3  and  C_4
REMARK    3  A    between atoms: C_4  and  C_5
REMARK    4  A    between atoms: C_5  and  O_7
REMARK    5  A    between atoms: C_12  and  C_13
REMARK    6  A    between atoms: C_14  and  O_15
REMARK    7  A    between atoms: O_15  and  C_16
REMARK    8  A    between atoms: C_16  and  C_17
REMARK    9  A    between atoms: C_21  and  C_22
REMARK                            x       y       z     vdW  Elec       q    Type
REMARK                         _______ _______ _______ _____ _____    ______ ____
ROOT
ATOM      1  C   UNL     1       4.080   6.135  17.082  0.00  0.00    +0.000 C 
ATOM      2  C   UNL     1       3.212   6.143  18.312  0.00  0.00    +0.000 A 
ATOM      3  C   UNL     1       3.008   5.056  19.093  0.00  0.00    +0.000 A 
ATOM      4  C   UNL     1       2.121   5.141  20.284  0.00  0.00    +0.000 A 
ATOM      5  O   UNL     1       1.730   4.134  20.870  0.00  0.00    +0.000 OA
ATOM      6  O   UNL     1       1.761   6.397  20.721  0.00  0.00    +0.000 OA
ATOM      7  C   UNL     1       1.831   7.505  19.860  0.00  0.00    +0.000 A 
ATOM      8  C   UNL     1       1.127   8.660  20.244  0.00  0.00    +0.000 A 
ATOM      9  C   UNL     1       0.406   8.753  21.563  0.00  0.00    +0.000 C 
ATOM     10  C   UNL     1       1.097   9.748  19.359  0.00  0.00    +0.000 A 
ATOM     11  C   UNL     1       1.776   9.675  18.144  0.00  0.00    +0.000 A 
ATOM     12  C   UNL     1       2.501   8.524  17.807  0.00  0.00    +0.000 A 
ATOM     13  C   UNL     1       2.528   7.409  18.655  0.00  0.00    +0.000 A 
ENDROOT
BRANCH   3  14
ATOM     14  C   UNL     1       3.523   3.660  18.815  0.00  0.00    +0.000 C 
BRANCH  14  15
ATOM     15  C   UNL     1       4.899   3.342  19.372  0.00  0.00    +0.000 C 
ATOM     16  O   UNL     1       5.874   4.078  19.343  0.00  0.00    +0.000 OA
BRANCH  15  17
ATOM     17  O   UNL     1       4.955   2.093  19.918  0.00  0.00    +0.000 OA
ATOM     18  H   UNL     1       5.081   2.092  20.886  0.00  0.00    +0.000 HD
ENDBRANCH  15  17
ENDBRANCH  14  15
ENDBRANCH   3  14
BRANCH  10  19
ATOM     19  O   UNL     1       0.328  10.811  19.747  0.00  0.00    +0.000 OA
BRANCH  19  20
ATOM     20  C   UNL     1      -0.183  11.659  18.721  0.00  0.00    +0.000 C 
BRANCH  20  21
ATOM     21  C   UNL     1      -1.633  11.925  19.045  0.00  0.00    +0.000 A 
ATOM     22  C   UNL     1      -2.018  12.481  20.271  0.00  0.00    +0.000 A 
ATOM     23  C   UNL     1      -3.366  12.721  20.543  0.00  0.00    +0.000 A 
ATOM     24  C   UNL     1      -4.343  12.401  19.599  0.00  0.00    +0.000 A 
ATOM     25  C   UNL     1      -3.984  11.831  18.370  0.00  0.00    +0.000 A 
ATOM     26  C   UNL     1      -2.625  11.602  18.104  0.00  0.00    +0.000 A 
BRANCH  25  27
ATOM     27  C   UNL     1      -5.021  11.456  17.343  0.00  0.00    +0.000 C 
ATOM     28  F   UNL     1      -6.041  10.704  17.844  0.00  0.00    +0.000 F 
ATOM     29  F   UNL     1      -5.607  12.542  16.766  0.00  0.00    +0.000 F 
ATOM     30  F   UNL     1      -4.495  10.728  16.317  0.00  0.00    +0.000 F 
ENDBRANCH  25  27
ENDBRANCH  20  21
ENDBRANCH  19  20
ENDBRANCH  10  19
TORSDOF 7
ENDMDL
MODEL 5
REMARK VINA RESULT:      -8.3      0.946      1.167
REMARK  Name = 
REMARK  9 active torsions:
REMARK  status: ('A' for Active; 'I' for Inactive)
REMARK    1  A    between atoms: C_1  and  C_2
REMARK    2  A    between atoms: C_3  and  C_4
REMARK    3  A    between atoms: C_4  and  C_5
REMARK    4  A    between atoms: C_5  and  O_7
REMARK    5  A    between atoms: C_12  and  C_13
REMARK    6  A    between atoms: C_14  and  O_15
REMARK    7  A    between atoms: O_15  and  C_16
REMARK    8  A    between atoms: C_16  and  C_17
REMARK    9  A    between atoms: C_21  and  C_22
REMARK                            x       y       z     vdW  Elec       q    Type
REMARK                         _______ _______ _______ _____ _____    ______ ____
ROOT
ATOM      1  C   UNL     1       4.001   5.592  17.238  0.00  0.00    +0.000 C 
ATOM      2  C   UNL     1       3.088   5.730  18.427  0.00  0.00    +0.000 A 
ATOM      3  C   UNL     1       2.729   4.695  19.222  0.00  0.00    +0.000 A 
ATOM      4  C   UNL     1       1.807   4.912  20.369  0.00  0.00    +0.000 A 
ATOM      5  O   UNL     1       1.280   3.972  20.960  0.00  0.00    +0.000 OA
ATOM      6  O   UNL     1       1.574   6.212  20.761  0.00  0.00    +0.000 OA
ATOM      7  C   UNL     1       1.806   7.281  19.879  0.00  0.00    +0.000 A 
ATOM      8  C   UNL     1       1.221   8.518  20.204  0.00  0.00    +0.000 A 
ATOM      9  C   UNL     1       0.460   8.727  21.487  0.00  0.00    +0.000 C 
ATOM     10  C   UNL     1       1.352   9.578  19.295  0.00  0.00    +0.000 A 
ATOM     11  C   UNL     1       2.070   9.395  18.114  0.00  0.00    +0.000 A 
ATOM     12  C   UNL     1       2.673   8.162  17.836  0.00  0.00    +0.000 A 
ATOM     13  C   UNL     1       2.538   7.074  18.709  0.00  0.00    +0.000 A 
ENDROOT
BRANCH   3  14
ATOM     14  C   UNL     1       3.094   3.243  18.999  0.00  0.00    +0.000 C 
BRANCH  14  15
ATOM     15  C   UNL     1       4.225   2.709  19.859  0.00  0.00    +0.000 C 
ATOM     16  O   UNL     1       4.108   2.192  20.960  0.00  0.00    +0.000 OA
BRANCH  15  17
ATOM     17  O   UNL     1       5.443   2.882  19.271  0.00  0.00    +0.000 OA
ATOM     18  H   UNL     1       6.186   2.513  19.786  0.00  0.00    +0.000 HD
ENDBRANCH  15  17
ENDBRANCH  14  15
ENDBRANCH   3  14
BRANCH  10  19
ATOM     19  O   UNL     1       0.693  10.730  19.623  0.00  0.00    +0.000 OA
BRANCH  19  20
ATOM     20  C   UNL     1       0.230  11.548  18.551  0.00  0.00    +0.000 C 
BRANCH  20  21
ATOM     21  C   UNL     1      -1.198  11.149  18.272  0.00  0.00    +0.000 A 
ATOM     22  C   UNL     1      -1.506  10.095  17.403  0.00  0.00    +0.000 A 
ATOM     23  C   UNL     1      -2.836   9.744  17.166  0.00  0.00    +0.000 A 
ATOM     24  C   UNL     1      -3.872  10.445  17.786  0.00  0.00    +0.000 A 
ATOM     25  C   UNL     1      -3.589  11.512  18.649  0.00  0.00    +0.000 A 
ATOM     26  C   UNL     1      -2.248  11.851  18.887  0.00  0.00    +0.000 A 
BRANCH  25  27
ATOM     27  C   UNL     1      -4.690  12.299  19.314  0.00  0.00    +0.000 C 
ATOM     28  F   UNL     1      -5.515  12.935  18.435  0.00  0.00    +0.000 F 
ATOM     29  F   UNL     1      -5.497  11.523  20.089  0.00  0.00    +0.000 F 
ATOM     30  F   UNL     1      -4.205  13.272  20.137  0.00  0.00    +0.000 F 
ENDBRANCH  25  27
ENDBRANCH  20  21
ENDBRANCH  19  20
ENDBRANCH  10  19
TORSDOF 7
ENDMDL
MODEL 6
REMARK VINA RESULT:      -8.2      2.279      3.288
REMARK  Name = 
REMARK  9 active torsions:
REMARK  status: ('A' for Active; 'I' for Inactive)
REMARK    1  A    between atoms: C_1  and  C_2
REMARK    2  A    between atoms: C_3  and  C_4
REMARK    3  A    between atoms: C_4  and  C_5
REMARK    4  A    between atoms: C_5  and  O_7
REMARK    5  A    between atoms: C_12  and  C_13
REMARK    6  A    between atoms: C_14  and  O_15
REMARK    7  A    between atoms: O_15  and  C_16
REMARK    8  A    between atoms: C_16  and  C_17
REMARK    9  A    between atoms: C_21  and  C_22
REMARK                            x       y       z     vdW  Elec       q    Type
REMARK                         _______ _______ _______ _____ _____    ______ ____
ROOT
ATOM      1  C   UNL     1       1.800   4.044  21.169  0.00  0.00    +0.000 C 
ATOM      2  C   UNL     1       2.215   4.925  20.021  0.00  0.00    +0.000 A 
ATOM      3  C   UNL     1       2.907   4.480  18.946  0.00  0.00    +0.000 A 
ATOM      4  C   UNL     1       3.295   5.419  17.859  0.00  0.00    +0.000 A 
ATOM      5  O   UNL     1       4.113   5.106  16.997  0.00  0.00    +0.000 OA
ATOM      6  O   UNL     1       2.689   6.657  17.841  0.00  0.00    +0.000 OA
ATOM      7  C   UNL     1       2.101   7.185  19.003  0.00  0.00    +0.000 A 
ATOM      8  C   UNL     1       1.828   8.564  19.012  0.00  0.00    +0.000 A 
ATOM      9  C   UNL     1       2.062   9.431  17.803  0.00  0.00    +0.000 C 
ATOM     10  C   UNL     1       1.332   9.139  20.192  0.00  0.00    +0.000 A 
ATOM     11  C   UNL     1       1.098   8.340  21.309  0.00  0.00    +0.000 A 
ATOM     12  C   UNL     1       1.343   6.961  21.256  0.00  0.00    +0.000 A 
ATOM     13  C   UNL     1       1.866   6.360  20.103  0.00  0.00    +0.000 A 
ENDROOT
BRANCH   3  14
ATOM     14  C   UNL     1       3.453   3.080  18.765  0.00  0.00    +0.000 C 
BRANCH  14  15
ATOM     15  C   UNL     1       4.730   2.768  19.524  0.00  0.00    +0.000 C 
ATOM     16  O   UNL     1       4.861   1.920  20.394  0.00  0.00    +0.000 OA
BRANCH  15  17
ATOM     17  O   UNL     1       5.763   3.573  19.142  0.00  0.00    +0.000 OA
ATOM     18  H   UNL     1       5.524   4.516  19.074  0.00  0.00    +0.000 HD
ENDBRANCH  15  17
ENDBRANCH  14  15
ENDBRANCH   3  14
BRANCH  10  19
ATOM     19  O   UNL     1       1.166  10.496  20.170  0.00  0.00    +0.000 OA
BRANCH  19  20
ATOM     20  C   UNL     1       0.185  11.051  21.043  0.00  0.00    +0.000 C 
BRANCH  20  21
ATOM     21  C   UNL     1      -1.042  11.334  20.211  0.00  0.00    +0.000 A 
ATOM     22  C   UNL     1      -2.027  12.232  20.641  0.00  0.00    +0.000 A 
ATOM     23  C   UNL     1      -3.149  12.479  19.850  0.00  0.00    +0.000 A 
ATOM     24  C   UNL     1      -3.305  11.827  18.624  0.00  0.00    +0.000 A 
ATOM     25  C   UNL     1      -2.340  10.915  18.178  0.00  0.00    +0.000 A 
ATOM     26  C   UNL     1      -1.211  10.681  18.978  0.00  0.00    +0.000 A 
BRANCH  25  27
ATOM     27  C   UNL     1      -2.495  10.182  16.870  0.00  0.00    +0.000 C 
ATOM     28  F   UNL     1      -3.537   9.305  16.855  0.00  0.00    +0.000 F 
ATOM     29  F   UNL     1      -2.699  11.022  15.817  0.00  0.00    +0.000 F 
ATOM     30  F   UNL     1      -1.390   9.448  16.553  0.00  0.00    +0.000 F 
ENDBRANCH  25  27
ENDBRANCH  20  21
ENDBRANCH  19  20
ENDBRANCH  10  19
TORSDOF 7
ENDMDL
MODEL 7
REMARK VINA RESULT:      -8.1      6.809      8.798
REMARK  Name = 
REMARK  9 active torsions:
REMARK  status: ('A' for Active; 'I' for Inactive)
REMARK    1  A    between atoms: C_1  and  C_2
REMARK    2  A    between atoms: C_3  and  C_4
REMARK    3  A    between atoms: C_4  and  C_5
REMARK    4  A    between atoms: C_5  and  O_7
REMARK    5  A    between atoms: C_12  and  C_13
REMARK    6  A    between atoms: C_14  and  O_15
REMARK    7  A    between atoms: O_15  and  C_16
REMARK    8  A    between atoms: C_16  and  C_17
REMARK    9  A    between atoms: C_21  and  C_22
REMARK                            x       y       z     vdW  Elec       q    Type
REMARK                         _______ _______ _______ _____ _____    ______ ____
ROOT
ATOM      1  C   UNL     1       2.065   4.671  17.496  0.00  0.00    +0.000 C 
ATOM      2  C   UNL     1       3.320   4.328  18.253  0.00  0.00    +0.000 A 
ATOM      3  C   UNL     1       3.431   3.262  19.079  0.00  0.00    +0.000 A 
ATOM      4  C   UNL     1       4.702   3.002  19.807  0.00  0.00    +0.000 A 
ATOM      5  O   UNL     1       4.763   2.194  20.731  0.00  0.00    +0.000 OA
ATOM      6  O   UNL     1       5.822   3.691  19.397  0.00  0.00    +0.000 OA
ATOM      7  C   UNL     1       5.703   4.884  18.665  0.00  0.00    +0.000 A 
ATOM      8  C   UNL     1       6.841   5.707  18.592  0.00  0.00    +0.000 A 
ATOM      9  C   UNL     1       8.163   5.294  19.185  0.00  0.00    +0.000 C 
ATOM     10  C   UNL     1       6.727   6.950  17.952  0.00  0.00    +0.000 A 
ATOM     11  C   UNL     1       5.511   7.331  17.387  0.00  0.00    +0.000 A 
ATOM     12  C   UNL     1       4.405   6.473  17.442  0.00  0.00    +0.000 A 
ATOM     13  C   UNL     1       4.477   5.237  18.099  0.00  0.00    +0.000 A 
ENDROOT
BRANCH   3  14
ATOM     14  C   UNL     1       2.311   2.313  19.450  0.00  0.00    +0.000 C 
BRANCH  14  15
ATOM     15  C   UNL     1       1.458   2.731  20.634  0.00  0.00    +0.000 C 
ATOM     16  O   UNL     1       1.746   2.592  21.813  0.00  0.00    +0.000 OA
BRANCH  15  17
ATOM     17  O   UNL     1       0.275   3.286  20.243  0.00  0.00    +0.000 OA
ATOM     18  H   UNL     1      -0.470   2.656  20.227  0.00  0.00    +0.000 HD
ENDBRANCH  15  17
ENDBRANCH  14  15
ENDBRANCH   3  14
BRANCH  10  19
ATOM     19  O   UNL     1       7.841   7.743  17.985  0.00  0.00    +0.000 OA
BRANCH  19  20
ATOM     20  C   UNL     1       7.753   9.022  17.362  0.00  0.00    +0.000 C 
BRANCH  20  21
ATOM     21  C   UNL     1       8.541   9.987  18.215  0.00  0.00    +0.000 A 
ATOM     22  C   UNL     1       9.027   9.619  19.476  0.00  0.00    +0.000 A 
ATOM     23  C   UNL     1       9.757  10.530  20.242  0.00  0.00    +0.000 A 
ATOM     24  C   UNL     1      10.003  11.818  19.762  0.00  0.00    +0.000 A 
ATOM     25  C   UNL     1       9.516  12.213  18.509  0.00  0.00    +0.000 A 
ATOM     26  C   UNL     1       8.790  11.287  17.743  0.00  0.00    +0.000 A 
BRANCH  25  27
ATOM     27  C   UNL     1       9.748  13.604  17.977  0.00  0.00    +0.000 C 
ATOM     28  F   UNL     1      10.612  13.650  16.924  0.00  0.00    +0.000 F 
ATOM     29  F   UNL     1       8.602  14.200  17.545  0.00  0.00    +0.000 F 
ATOM     30  F   UNL     1      10.270  14.439  18.920  0.00  0.00    +0.000 F 
ENDBRANCH  25  27
ENDBRANCH  20  21
ENDBRANCH  19  20
ENDBRANCH  10  19
TORSDOF 7
ENDMDL
MODEL 8
REMARK VINA RESULT:      -8.1      2.494      3.127
REMARK  Name = 
REMARK  9 active torsions:
REMARK  status: ('A' for Active; 'I' for Inactive)
REMARK    1  A    between atoms: C_1  and  C_2
REMARK    2  A    between atoms: C_3  and  C_4
REMARK    3  A    between atoms: C_4  and  C_5
REMARK    4  A    between atoms: C_5  and  O_7
REMARK    5  A    between atoms: C_12  and  C_13
REMARK    6  A    between atoms: C_14  and  O_15
REMARK    7  A    between atoms: O_15  and  C_16
REMARK    8  A    between atoms: C_16  and  C_17
REMARK    9  A    between atoms: C_21  and  C_22
REMARK                            x       y       z     vdW  Elec       q    Type
REMARK                         _______ _______ _______ _____ _____    ______ ____
ROOT
ATOM      1  C   UNL     1       5.062   7.001  16.155  0.00  0.00    +0.000 C 
ATOM      2  C   UNL     1       4.415   6.516  17.425  0.00  0.00    +0.000 A 
ATOM      3  C   UNL     1       4.711   5.333  18.013  0.00  0.00    +0.000 A 
ATOM      4  C   UNL     1       4.014   4.917  19.260  0.00  0.00    +0.000 A 
ATOM      5  O   UNL     1       4.084   3.766  19.684  0.00  0.00    +0.000 OA
ATOM      6  O   UNL     1       3.294   5.877  19.937  0.00  0.00    +0.000 OA
ATOM      7  C   UNL     1       2.855   7.040  19.282  0.00  0.00    +0.000 A 
ATOM      8  C   UNL     1       1.845   7.787  19.913  0.00  0.00    +0.000 A 
ATOM      9  C   UNL     1       1.315   7.421  21.275  0.00  0.00    +0.000 C 
ATOM     10  C   UNL     1       1.316   8.898  19.239  0.00  0.00    +0.000 A 
ATOM     11  C   UNL     1       1.813   9.251  17.985  0.00  0.00    +0.000 A 
ATOM     12  C   UNL     1       2.848   8.510  17.400  0.00  0.00    +0.000 A 
ATOM     13  C   UNL     1       3.378   7.377  18.033  0.00  0.00    +0.000 A 
ENDROOT
BRANCH   3  14
ATOM     14  C   UNL     1       5.646   4.280  17.457  0.00  0.00    +0.000 C 
BRANCH  14  15
ATOM     15  C   UNL     1       7.128   4.538  17.664  0.00  0.00    +0.000 C 
ATOM     16  O   UNL     1       7.665   4.836  18.720  0.00  0.00    +0.000 OA
BRANCH  15  17
ATOM     17  O   UNL     1       7.836   4.420  16.504  0.00  0.00    +0.000 OA
ATOM     18  H   UNL     1       7.505   4.985  15.781  0.00  0.00    +0.000 HD
ENDBRANCH  15  17
ENDBRANCH  14  15
ENDBRANCH   3  14
BRANCH  10  19
ATOM     19  O   UNL     1       0.279   9.536  19.862  0.00  0.00    +0.000 OA
BRANCH  19  20
ATOM     20  C   UNL     1       0.193  10.950  19.709  0.00  0.00    +0.000 C 
BRANCH  20  21
ATOM     21  C   UNL     1      -1.201  11.261  19.221  0.00  0.00    +0.000 A 
ATOM     22  C   UNL     1      -2.101  12.000  19.999  0.00  0.00    +0.000 A 
ATOM     23  C   UNL     1      -3.383  12.277  19.520  0.00  0.00    +0.000 A 
ATOM     24  C   UNL     1      -3.782  11.813  18.265  0.00  0.00    +0.000 A 
ATOM     25  C   UNL     1      -2.904  11.061  17.474  0.00  0.00    +0.000 A 
ATOM     26  C   UNL     1      -1.615  10.795  17.961  0.00  0.00    +0.000 A 
BRANCH  25  27
ATOM     27  C   UNL     1      -3.318  10.530  16.125  0.00  0.00    +0.000 C 
ATOM     28  F   UNL     1      -2.592  11.039  15.090  0.00  0.00    +0.000 F 
ATOM     29  F   UNL     1      -3.199   9.176  16.034  0.00  0.00    +0.000 F 
ATOM     30  F   UNL     1      -4.621  10.810  15.836  0.00  0.00    +0.000 F 
ENDBRANCH  25  27
ENDBRANCH  20  21
ENDBRANCH  19  20
ENDBRANCH  10  19
TORSDOF 7
ENDMDL
MODEL 9
REMARK VINA RESULT:      -8.1      4.772      9.079
REMARK  Name = 
REMARK  9 active torsions:
REMARK  status: ('A' for Active; 'I' for Inactive)
REMARK    1  A    between atoms: C_1  and  C_2
REMARK    2  A    between atoms: C_3  and  C_4
REMARK    3  A    between atoms: C_4  and  C_5
REMARK    4  A    between atoms: C_5  and  O_7
REMARK    5  A    between atoms: C_12  and  C_13
REMARK    6  A    between atoms: C_14  and  O_15
REMARK    7  A    between atoms: O_15  and  C_16
REMARK    8  A    between atoms: C_16  and  C_17
REMARK    9  A    between atoms: C_21  and  C_22
REMARK                            x       y       z     vdW  Elec       q    Type
REMARK                         _______ _______ _______ _____ _____    ______ ____
ROOT
ATOM      1  C   UNL     1      -1.233  11.378  22.754  0.00  0.00    +0.000 C 
ATOM      2  C   UNL     1      -0.814  11.277  21.311  0.00  0.00    +0.000 A 
ATOM      3  C   UNL     1      -1.262  12.107  20.341  0.00  0.00    +0.000 A 
ATOM      4  C   UNL     1      -0.814  11.931  18.933  0.00  0.00    +0.000 A 
ATOM      5  O   UNL     1      -1.372  12.506  18.001  0.00  0.00    +0.000 OA
ATOM      6  O   UNL     1       0.267  11.106  18.709  0.00  0.00    +0.000 OA
ATOM      7  C   UNL     1       0.641  10.138  19.655  0.00  0.00    +0.000 A 
ATOM      8  C   UNL     1       1.503   9.116  19.220  0.00  0.00    +0.000 A 
ATOM      9  C   UNL     1       2.084   9.101  17.831  0.00  0.00    +0.000 C 
ATOM     10  C   UNL     1       1.816   8.081  20.114  0.00  0.00    +0.000 A 
ATOM     11  C   UNL     1       1.295   8.098  21.407  0.00  0.00    +0.000 A 
ATOM     12  C   UNL     1       0.470   9.151  21.823  0.00  0.00    +0.000 A 
ATOM     13  C   UNL     1       0.114  10.185  20.947  0.00  0.00    +0.000 A 
ENDROOT
BRANCH   3  14
ATOM     14  C   UNL     1      -2.308  13.188  20.516  0.00  0.00    +0.000 C 
BRANCH  14  15
ATOM     15  C   UNL     1      -3.751  12.733  20.398  0.00  0.00    +0.000 C 
ATOM     16  O   UNL     1      -4.484  12.418  21.324  0.00  0.00    +0.000 OA
BRANCH  15  17
ATOM     17  O   UNL     1      -4.170  12.687  19.101  0.00  0.00    +0.000 OA
ATOM     18  H   UNL     1      -5.123  12.499  19.001  0.00  0.00    +0.000 HD
ENDBRANCH  15  17
ENDBRANCH  14  15
ENDBRANCH   3  14
BRANCH  10  19
ATOM     19  O   UNL     1       2.589   7.071  19.610  0.00  0.00    +0.000 OA
BRANCH  19  20
ATOM     20  C   UNL     1       1.963   5.807  19.407  0.00  0.00    +0.000 C 
BRANCH  20  21
ATOM     21  C   UNL     1       2.859   5.009  18.492  0.00  0.00    +0.000 A 
ATOM     22  C   UNL     1       2.910   3.611  18.554  0.00  0.00    +0.000 A 
ATOM     23  C   UNL     1       3.745   2.898  17.692  0.00  0.00    +0.000 A 
ATOM     24  C   UNL     1       4.543   3.572  16.765  0.00  0.00    +0.000 A 
ATOM     25  C   UNL     1       4.519   4.970  16.693  0.00  0.00    +0.000 A 
ATOM     26  C   UNL     1       3.670   5.677  17.558  0.00  0.00    +0.000 A 
BRANCH  25  27
ATOM     27  C   UNL     1       5.387   5.723  15.716  0.00  0.00    +0.000 C 
ATOM     28  F   UNL     1       4.921   6.968  15.417  0.00  0.00    +0.000 F 
ATOM     29  F   UNL     1       6.659   5.901  16.171  0.00  0.00    +0.000 F 
ATOM     30  F   UNL     1       5.505   5.076  14.522  0.00  0.00    +0.000 F 
ENDBRANCH  25  27
ENDBRANCH  20  21
ENDBRANCH  19  20
ENDBRANCH  10  19
TORSDOF 7
ENDMDL
