MODEL 1
REMARK VINA RESULT:      -7.4      0.000      0.000
REMARK  Name = 
REMARK  9 active torsions:
REMARK  status: ('A' for Active; 'I' for Inactive)
REMARK    1  A    between atoms: C_1  and  O_2
REMARK    2  A    between atoms: O_2  and  C_3
REMARK    3  A    between atoms: C_6  and  C_7
REMARK    4  A    between atoms: N_9  and  C_10
REMARK    5  A    between atoms: C_14  and  O_16
REMARK    6  A    between atoms: O_16  and  C_17
REMARK    7  A    between atoms: C_17  and  C_18
REMARK    8  A    between atoms: C_17  and  C_19
REMARK    9  A    between atoms: C_17  and  C_20
REMARK                            x       y       z     vdW  Elec       q    Type
REMARK                         _______ _______ _______ _____ _____    ______ ____
ROOT
ATOM      1  C   UNL     1       2.740   7.630  18.296  0.00  0.00    +0.000 A 
ATOM      2  C   UNL     1       2.487   8.837  17.663  0.00  0.00    +0.000 A 
ATOM      3  N   UNL     1       1.612   9.564  18.426  0.00  0.00    +0.000 N 
ATOM      4  C   UNL     1       1.304   8.849  19.562  0.00  0.00    +0.000 A 
ATOM      5  N   UNL     1       0.460   9.254  20.525  0.00  0.00    +0.000 NA
ATOM      6  C   UNL     1       0.344   8.350  21.506  0.00  0.00    +0.000 A 
ATOM      7  N   UNL     1       0.971   7.169  21.620  0.00  0.00    +0.000 NA
ATOM      8  C   UNL     1       1.818   6.794  20.642  0.00  0.00    +0.000 A 
ATOM      9  N   UNL     1       2.456   5.574  20.831  0.00  0.00    +0.000 N 
ATOM     10  C   UNL     1       2.005   7.645  19.531  0.00  0.00    +0.000 A 
ATOM     11  H   UNL     1       2.352   5.262  21.790  0.00  0.00    +0.000 HD
ATOM     12  H   UNL     1       3.393   5.530  20.452  0.00  0.00    +0.000 HD
ENDROOT
BRANCH   3  13
ATOM     13  C   UNL     1       1.078  10.880  18.102  0.00  0.00    +0.000 C 
ATOM     14  C   UNL     1       1.811  12.050  18.780  0.00  0.00    +0.000 C 
ATOM     15  C   UNL     1       0.952  12.416  19.983  0.00  0.00    +0.000 C 
ATOM     16  N   UNL     1      -0.386  12.028  19.601  0.00  0.00    +0.000 N 
ATOM     17  C   UNL     1      -1.572  12.479  20.128  0.00  0.00    +0.000 C 
ATOM     18  O   UNL     1      -2.653  12.066  19.735  0.00  0.00    +0.000 OA
ATOM     19  C   UNL     1      -0.387  11.064  18.508  0.00  0.00    +0.000 C 
BRANCH  17  20
ATOM     20  O   UNL     1      -1.405  13.437  21.085  0.00  0.00    +0.000 OA
BRANCH  20  21
ATOM     21  C   UNL     1      -1.782  13.129  22.459  0.00  0.00    +0.000 C 
ATOM     22  C   UNL     1      -1.298  11.733  22.871  0.00  0.00    +0.000 C 
ATOM     23  C   UNL     1      -1.066  14.161  23.349  0.00  0.00    +0.000 C 
ATOM     24  C   UNL     1      -3.292  13.308  22.672  0.00  0.00    +0.000 C 
ENDBRANCH  20  21
ENDBRANCH  17  20
ENDBRANCH   3  13
BRANCH   1  28
ATOM     25  C   UNL     1       5.149   4.597  16.479  0.00  0.00    +0.000 A 
ATOM     26  C   UNL     1       5.574   5.924  16.477  0.00  0.00    +0.000 A 
ATOM     27  C   UNL     1       4.807   6.918  17.096  0.00  0.00    +0.000 A 
ATOM     28  C   UNL     1       3.574   6.602  17.683  0.00  0.00    +0.000 A 
ATOM     29  C   UNL     1       3.134   5.276  17.623  0.00  0.00    +0.000 A 
ATOM     30  C   UNL     1       3.925   4.274  17.056  0.00  0.00    +0.000 A 
BRANCH  25  32
ATOM     31  C   UNL     1       6.135   3.923  14.440  0.00  0.00    +0.000 C 
ATOM     32  O   UNL     1       5.974   3.713  15.839  0.00  0.00    +0.000 OA
ENDBRANCH  25  32
ENDBRANCH   1  28
TORSDOF 5
ENDMDL
MODEL 2
REMARK VINA RESULT:      -7.3      6.203      7.946
REMARK  Name = 
REMARK  9 active torsions:
REMARK  status: ('A' for Active; 'I' for Inactive)
REMARK    1  A    between atoms: C_1  and  O_2
REMARK    2  A    between atoms: O_2  and  C_3
REMARK    3  A    between atoms: C_6  and  C_7
REMARK    4  A    between atoms: N_9  and  C_10
REMARK    5  A    between atoms: C_14  and  O_16
REMARK    6  A    between atoms: O_16  and  C_17
REMARK    7  A    between atoms: C_17  and  C_18
REMARK    8  A    between atoms: C_17  and  C_19
REMARK    9  A    between atoms: C_17  and  C_20
REMARK                            x       y       z     vdW  Elec       q    Type
REMARK                         _______ _______ _______ _____ _____    ______ ____
ROOT
ATOM      1  C   UNL     1      -4.209  11.900  19.256  0.00  0.00    +0.000 A 
ATOM      2  C   UNL     1      -3.357  12.671  20.031  0.00  0.00    +0.000 A 
ATOM      3  N   UNL     1      -4.034  13.100  21.142  0.00  0.00    +0.000 N 
ATOM      4  C   UNL     1      -5.317  12.602  21.108  0.00  0.00    +0.000 A 
ATOM      5  N   UNL     1      -6.263  12.839  22.032  0.00  0.00    +0.000 NA
ATOM      6  C   UNL     1      -7.419  12.234  21.735  0.00  0.00    +0.000 A 
ATOM      7  N   UNL     1      -7.694  11.446  20.684  0.00  0.00    +0.000 NA
ATOM      8  C   UNL     1      -6.723  11.221  19.778  0.00  0.00    +0.000 A 
ATOM      9  N   UNL     1      -7.061  10.376  18.729  0.00  0.00    +0.000 N 
ATOM     10  C   UNL     1      -5.461  11.829  19.958  0.00  0.00    +0.000 A 
ATOM     11  H   UNL     1      -7.921   9.880  18.933  0.00  0.00    +0.000 HD
ATOM     12  H   UNL     1      -6.296   9.809  18.387  0.00  0.00    +0.000 HD
ENDROOT
BRANCH   3  13
ATOM     13  C   UNL     1      -3.500  13.952  22.197  0.00  0.00    +0.000 C 
ATOM     14  C   UNL     1      -3.702  15.458  21.962  0.00  0.00    +0.000 C 
ATOM     15  C   UNL     1      -2.373  15.958  21.409  0.00  0.00    +0.000 C 
ATOM     16  N   UNL     1      -1.392  15.050  21.956  0.00  0.00    +0.000 N 
ATOM     17  C   UNL     1      -0.043  15.264  22.101  0.00  0.00    +0.000 C 
ATOM     18  O   UNL     1       0.702  14.412  22.566  0.00  0.00    +0.000 OA
ATOM     19  C   UNL     1      -1.990  13.799  22.403  0.00  0.00    +0.000 C 
BRANCH  17  20
ATOM     20  O   UNL     1       0.349  16.511  21.711  0.00  0.00    +0.000 OA
BRANCH  20  21
ATOM     21  C   UNL     1       1.202  16.644  20.537  0.00  0.00    +0.000 C 
ATOM     22  C   UNL     1       0.845  15.605  19.467  0.00  0.00    +0.000 C 
ATOM     23  C   UNL     1       0.925  18.041  19.953  0.00  0.00    +0.000 C 
ATOM     24  C   UNL     1       2.688  16.594  20.923  0.00  0.00    +0.000 C 
ENDBRANCH  20  21
ENDBRANCH  17  20
ENDBRANCH   3  13
BRANCH   1  28
ATOM     25  C   UNL     1      -2.997  10.297  15.479  0.00  0.00    +0.000 A 
ATOM     26  C   UNL     1      -4.109  11.134  15.561  0.00  0.00    +0.000 A 
ATOM     27  C   UNL     1      -4.494  11.686  16.788  0.00  0.00    +0.000 A 
ATOM     28  C   UNL     1      -3.798  11.367  17.962  0.00  0.00    +0.000 A 
ATOM     29  C   UNL     1      -2.721  10.479  17.871  0.00  0.00    +0.000 A 
ATOM     30  C   UNL     1      -2.301   9.971  16.639  0.00  0.00    +0.000 A 
BRANCH  25  32
ATOM     31  C   UNL     1      -3.780   9.890  13.288  0.00  0.00    +0.000 C 
ATOM     32  O   UNL     1      -2.718   9.810  14.231  0.00  0.00    +0.000 OA
ENDBRANCH  25  32
ENDBRANCH   1  28
TORSDOF 5
ENDMDL
MODEL 3
REMARK VINA RESULT:      -7.2      3.385      8.248
REMARK  Name = 
REMARK  9 active torsions:
REMARK  status: ('A' for Active; 'I' for Inactive)
REMARK    1  A    between atoms: C_1  and  O_2
REMARK    2  A    between atoms: O_2  and  C_3
REMARK    3  A    between atoms: C_6  and  C_7
REMARK    4  A    between atoms: N_9  and  C_10
REMARK    5  A    between atoms: C_14  and  O_16
REMARK    6  A    between atoms: O_16  and  C_17
REMARK    7  A    between atoms: C_17  and  C_18
REMARK    8  A    between atoms: C_17  and  C_19
REMARK    9  A    between atoms: C_17  and  C_20
REMARK                            x       y       z     vdW  Elec       q    Type
REMARK                         _______ _______ _______ _____ _____    ______ ____
ROOT
ATOM      1  C   UNL     1       1.553  13.319  20.128  0.00  0.00    +0.000 A 
ATOM      2  C   UNL     1       1.465  12.095  19.486  0.00  0.00    +0.000 A 
ATOM      3  N   UNL     1       0.518  11.330  20.115  0.00  0.00    +0.000 N 
ATOM      4  C   UNL     1      -0.025  12.052  21.155  0.00  0.00    +0.000 A 
ATOM      5  N   UNL     1      -0.970  11.603  21.996  0.00  0.00    +0.000 NA
ATOM      6  C   UNL     1      -1.301  12.517  22.916  0.00  0.00    +0.000 A 
ATOM      7  N   UNL     1      -0.825  13.765  23.050  0.00  0.00    +0.000 NA
ATOM      8  C   UNL     1       0.117  14.190  22.185  0.00  0.00    +0.000 A 
ATOM      9  N   UNL     1       0.550  15.499  22.359  0.00  0.00    +0.000 N 
ATOM     10  C   UNL     1       0.578  13.308  21.184  0.00  0.00    +0.000 A 
ATOM     11  H   UNL     1      -0.080  16.004  22.973  0.00  0.00    +0.000 HD
ATOM     12  H   UNL     1       0.803  15.971  21.501  0.00  0.00    +0.000 HD
ENDROOT
BRANCH   3  13
ATOM     13  C   UNL     1       0.138   9.969  19.760  0.00  0.00    +0.000 C 
ATOM     14  C   UNL     1       0.111   8.986  20.943  0.00  0.00    +0.000 C 
ATOM     15  C   UNL     1       1.433   8.233  20.866  0.00  0.00    +0.000 C 
ATOM     16  N   UNL     1       1.781   8.260  19.465  0.00  0.00    +0.000 N 
ATOM     17  C   UNL     1       2.639   7.419  18.798  0.00  0.00    +0.000 C 
ATOM     18  O   UNL     1       2.874   7.546  17.605  0.00  0.00    +0.000 OA
ATOM     19  C   UNL     1       1.080   9.315  18.745  0.00  0.00    +0.000 C 
BRANCH  17  20
ATOM     20  O   UNL     1       3.153   6.436  19.593  0.00  0.00    +0.000 OA
BRANCH  20  21
ATOM     21  C   UNL     1       2.668   5.072  19.424  0.00  0.00    +0.000 C 
ATOM     22  C   UNL     1       1.895   4.912  18.109  0.00  0.00    +0.000 C 
ATOM     23  C   UNL     1       3.915   4.172  19.353  0.00  0.00    +0.000 C 
ATOM     24  C   UNL     1       1.846   4.622  20.641  0.00  0.00    +0.000 C 
ENDBRANCH  20  21
ENDBRANCH  17  20
ENDBRANCH   3  13
BRANCH   1  28
ATOM     25  C   UNL     1       4.409  16.286  18.967  0.00  0.00    +0.000 A 
ATOM     26  C   UNL     1       4.560  15.602  20.172  0.00  0.00    +0.000 A 
ATOM     27  C   UNL     1       3.647  14.609  20.545  0.00  0.00    +0.000 A 
ATOM     28  C   UNL     1       2.539  14.321  19.737  0.00  0.00    +0.000 A 
ATOM     29  C   UNL     1       2.370  15.059  18.560  0.00  0.00    +0.000 A 
ATOM     30  C   UNL     1       3.311  16.011  18.159  0.00  0.00    +0.000 A 
BRANCH  25  32
ATOM     31  C   UNL     1       6.298  17.468  19.751  0.00  0.00    +0.000 C 
ATOM     32  O   UNL     1       5.356  17.240  18.709  0.00  0.00    +0.000 OA
ENDBRANCH  25  32
ENDBRANCH   1  28
TORSDOF 5
ENDMDL
MODEL 4
REMARK VINA RESULT:      -7.1      3.411      8.352
REMARK  Name = 
REMARK  9 active torsions:
REMARK  status: ('A' for Active; 'I' for Inactive)
REMARK    1  A    between atoms: C_1  and  O_2
REMARK    2  A    between atoms: O_2  and  C_3
REMARK    3  A    between atoms: C_6  and  C_7
REMARK    4  A    between atoms: N_9  and  C_10
REMARK    5  A    between atoms: C_14  and  O_16
REMARK    6  A    between atoms: O_16  and  C_17
REMARK    7  A    between atoms: C_17  and  C_18
REMARK    8  A    between atoms: C_17  and  C_19
REMARK    9  A    between atoms: C_17  and  C_20
REMARK                            x       y       z     vdW  Elec       q    Type
REMARK                         _______ _______ _______ _____ _____    ______ ____
ROOT
ATOM      1  C   UNL     1       1.143  13.395  20.613  0.00  0.00    +0.000 A 
ATOM      2  C   UNL     1       1.118  12.170  19.966  0.00  0.00    +0.000 A 
ATOM      3  N   UNL     1       0.160  11.381  20.545  0.00  0.00    +0.000 N 
ATOM      4  C   UNL     1      -0.453  12.086  21.557  0.00  0.00    +0.000 A 
ATOM      5  N   UNL     1      -1.428  11.612  22.349  0.00  0.00    +0.000 NA
ATOM      6  C   UNL     1      -1.827  12.515  23.253  0.00  0.00    +0.000 A 
ATOM      7  N   UNL     1      -1.389  13.775  23.412  0.00  0.00    +0.000 NA
ATOM      8  C   UNL     1      -0.416  14.224  22.596  0.00  0.00    +0.000 A 
ATOM      9  N   UNL     1      -0.025  15.543  22.793  0.00  0.00    +0.000 N 
ATOM     10  C   UNL     1       0.117  13.357  21.618  0.00  0.00    +0.000 A 
ATOM     11  H   UNL     1      -0.697  16.031  23.376  0.00  0.00    +0.000 HD
ATOM     12  H   UNL     1       0.259  16.024  21.950  0.00  0.00    +0.000 HD
ENDROOT
BRANCH   3  13
ATOM     13  C   UNL     1      -0.168  10.012  20.170  0.00  0.00    +0.000 C 
ATOM     14  C   UNL     1      -0.047   8.991  21.314  0.00  0.00    +0.000 C 
ATOM     15  C   UNL     1       1.306   8.321  21.110  0.00  0.00    +0.000 C 
ATOM     16  N   UNL     1       1.543   8.415  19.688  0.00  0.00    +0.000 N 
ATOM     17  C   UNL     1       2.393   7.649  18.929  0.00  0.00    +0.000 C 
ATOM     18  O   UNL     1       2.527   7.828  17.727  0.00  0.00    +0.000 OA
ATOM     19  C   UNL     1       0.728   9.449  19.063  0.00  0.00    +0.000 C 
BRANCH  17  20
ATOM     20  O   UNL     1       3.023   6.673  19.645  0.00  0.00    +0.000 OA
BRANCH  20  21
ATOM     21  C   UNL     1       2.628   5.285  19.438  0.00  0.00    +0.000 C 
ATOM     22  C   UNL     1       1.960   5.092  18.071  0.00  0.00    +0.000 C 
ATOM     23  C   UNL     1       3.926   4.457  19.453  0.00  0.00    +0.000 C 
ATOM     24  C   UNL     1       1.748   4.782  20.592  0.00  0.00    +0.000 C 
ENDBRANCH  20  21
ENDBRANCH  17  20
ENDBRANCH   3  13
BRANCH   1  28
ATOM     25  C   UNL     1       4.043  16.375  19.605  0.00  0.00    +0.000 A 
ATOM     26  C   UNL     1       2.711  16.538  19.228  0.00  0.00    +0.000 A 
ATOM     27  C   UNL     1       1.751  15.582  19.581  0.00  0.00    +0.000 A 
ATOM     28  C   UNL     1       2.122  14.422  20.273  0.00  0.00    +0.000 A 
ATOM     29  C   UNL     1       3.473  14.246  20.591  0.00  0.00    +0.000 A 
ATOM     30  C   UNL     1       4.423  15.225  20.290  0.00  0.00    +0.000 A 
BRANCH  25  32
ATOM     31  C   UNL     1       6.026  17.584  20.034  0.00  0.00    +0.000 C 
ATOM     32  O   UNL     1       4.894  17.367  19.200  0.00  0.00    +0.000 OA
ENDBRANCH  25  32
ENDBRANCH   1  28
TORSDOF 5
ENDMDL
MODEL 5
REMARK VINA RESULT:      -7.0      1.948      3.128
REMARK  Name = 
REMARK  9 active torsions:
REMARK  status: ('A' for Active; 'I' for Inactive)
REMARK    1  A    between atoms: C_1  and  O_2
REMARK    2  A    between atoms: O_2  and  C_3
REMARK    3  A    between atoms: C_6  and  C_7
REMARK    4  A    between atoms: N_9  and  C_10
REMARK    5  A    between atoms: C_14  and  O_16
REMARK    6  A    between atoms: O_16  and  C_17
REMARK    7  A    between atoms: C_17  and  C_18
REMARK    8  A    between atoms: C_17  and  C_19
REMARK    9  A    between atoms: C_17  and  C_20
REMARK                            x       y       z     vdW  Elec       q    Type
REMARK                         _______ _______ _______ _____ _____    ______ ____
ROOT
ATOM      1  C   UNL     1       3.928   6.137  17.892  0.00  0.00    +0.000 A 
ATOM      2  C   UNL     1       3.059   7.209  17.775  0.00  0.00    +0.000 A 
ATOM      3  N   UNL     1       2.088   7.101  18.736  0.00  0.00    +0.000 N 
ATOM      4  C   UNL     1       2.326   5.974  19.491  0.00  0.00    +0.000 A 
ATOM      5  N   UNL     1       1.561   5.551  20.511  0.00  0.00    +0.000 NA
ATOM      6  C   UNL     1       2.027   4.421  21.055  0.00  0.00    +0.000 A 
ATOM      7  N   UNL     1       3.129   3.733  20.716  0.00  0.00    +0.000 NA
ATOM      8  C   UNL     1       3.881   4.187  19.695  0.00  0.00    +0.000 A 
ATOM      9  N   UNL     1       5.021   3.446  19.410  0.00  0.00    +0.000 N 
ATOM     10  C   UNL     1       3.479   5.355  19.012  0.00  0.00    +0.000 A 
ATOM     11  H   UNL     1       5.228   2.804  20.167  0.00  0.00    +0.000 HD
ATOM     12  H   UNL     1       5.801   3.995  19.072  0.00  0.00    +0.000 HD
ENDROOT
BRANCH   3  13
ATOM     13  C   UNL     1       0.973   8.016  18.937  0.00  0.00    +0.000 C 
ATOM     14  C   UNL     1       0.977   9.239  18.004  0.00  0.00    +0.000 C 
ATOM     15  C   UNL     1       1.564  10.373  18.835  0.00  0.00    +0.000 C 
ATOM     16  N   UNL     1       1.232  10.029  20.198  0.00  0.00    +0.000 N 
ATOM     17  C   UNL     1       1.171  10.869  21.282  0.00  0.00    +0.000 C 
ATOM     18  O   UNL     1       0.894  10.463  22.402  0.00  0.00    +0.000 OA
ATOM     19  C   UNL     1       0.917   8.614  20.345  0.00  0.00    +0.000 C 
BRANCH  17  20
ATOM     20  O   UNL     1       1.414  12.174  20.966  0.00  0.00    +0.000 OA
BRANCH  20  21
ATOM     21  C   UNL     1       0.288  13.094  20.870  0.00  0.00    +0.000 C 
ATOM     22  C   UNL     1       0.253  14.062  22.059  0.00  0.00    +0.000 C 
ATOM     23  C   UNL     1       0.511  13.923  19.591  0.00  0.00    +0.000 C 
ATOM     24  C   UNL     1      -1.036  12.333  20.699  0.00  0.00    +0.000 C 
ENDBRANCH  20  21
ENDBRANCH  17  20
ENDBRANCH   3  13
BRANCH   1  28
ATOM     25  C   UNL     1       7.167   5.518  15.165  0.00  0.00    +0.000 A 
ATOM     26  C   UNL     1       5.883   5.084  14.839  0.00  0.00    +0.000 A 
ATOM     27  C   UNL     1       4.813   5.309  15.712  0.00  0.00    +0.000 A 
ATOM     28  C   UNL     1       5.023   5.930  16.950  0.00  0.00    +0.000 A 
ATOM     29  C   UNL     1       6.328   6.306  17.288  0.00  0.00    +0.000 A 
ATOM     30  C   UNL     1       7.387   6.132  16.393  0.00  0.00    +0.000 A 
BRANCH  25  32
ATOM     31  C   UNL     1       7.676   5.039  12.908  0.00  0.00    +0.000 C 
ATOM     32  O   UNL     1       8.135   5.237  14.240  0.00  0.00    +0.000 OA
ENDBRANCH  25  32
ENDBRANCH   1  28
TORSDOF 5
ENDMDL
MODEL 6
REMARK VINA RESULT:      -7.0      3.471      8.059
REMARK  Name = 
REMARK  9 active torsions:
REMARK  status: ('A' for Active; 'I' for Inactive)
REMARK    1  A    between atoms: C_1  and  O_2
REMARK    2  A    between atoms: O_2  and  C_3
REMARK    3  A    between atoms: C_6  and  C_7
REMARK    4  A    between atoms: N_9  and  C_10
REMARK    5  A    between atoms: C_14  and  O_16
REMARK    6  A    between atoms: O_16  and  C_17
REMARK    7  A    between atoms: C_17  and  C_18
REMARK    8  A    between atoms: C_17  and  C_19
REMARK    9  A    between atoms: C_17  and  C_20
REMARK                            x       y       z     vdW  Elec       q    Type
REMARK                         _______ _______ _______ _____ _____    ______ ____
ROOT
ATOM      1  C   UNL     1       2.082  13.410  19.149  0.00  0.00    +0.000 A 
ATOM      2  C   UNL     1       2.059  12.072  18.791  0.00  0.00    +0.000 A 
ATOM      3  N   UNL     1       0.799  11.576  19.002  0.00  0.00    +0.000 N 
ATOM      4  C   UNL     1      -0.006  12.585  19.480  0.00  0.00    +0.000 A 
ATOM      5  N   UNL     1      -1.301  12.449  19.812  0.00  0.00    +0.000 NA
ATOM      6  C   UNL     1      -1.830  13.595  20.258  0.00  0.00    +0.000 A 
ATOM      7  N   UNL     1      -1.233  14.792  20.371  0.00  0.00    +0.000 NA
ATOM      8  C   UNL     1       0.064  14.899  20.022  0.00  0.00    +0.000 A 
ATOM      9  N   UNL     1       0.616  16.169  20.137  0.00  0.00    +0.000 N 
ATOM     10  C   UNL     1       0.750  13.752  19.566  0.00  0.00    +0.000 A 
ATOM     11  H   UNL     1      -0.112  16.865  20.252  0.00  0.00    +0.000 HD
ATOM     12  H   UNL     1       1.323  16.379  19.444  0.00  0.00    +0.000 HD
ENDROOT
BRANCH   3  13
ATOM     13  C   UNL     1       0.366  10.205  18.769  0.00  0.00    +0.000 C 
ATOM     14  C   UNL     1       0.023   9.420  20.047  0.00  0.00    +0.000 C 
ATOM     15  C   UNL     1       1.257   8.578  20.342  0.00  0.00    +0.000 C 
ATOM     16  N   UNL     1       1.865   8.366  19.049  0.00  0.00    +0.000 N 
ATOM     17  C   UNL     1       2.749   7.377  18.691  0.00  0.00    +0.000 C 
ATOM     18  O   UNL     1       3.216   7.303  17.563  0.00  0.00    +0.000 OA
ATOM     19  C   UNL     1       1.415   9.342  18.064  0.00  0.00    +0.000 C 
BRANCH  17  20
ATOM     20  O   UNL     1       3.008   6.496  19.700  0.00  0.00    +0.000 OA
BRANCH  20  21
ATOM     21  C   UNL     1       2.786   5.075  19.466  0.00  0.00    +0.000 C 
ATOM     22  C   UNL     1       4.112   4.320  19.313  0.00  0.00    +0.000 C 
ATOM     23  C   UNL     1       2.074   4.533  20.719  0.00  0.00    +0.000 C 
ATOM     24  C   UNL     1       1.846   4.851  18.271  0.00  0.00    +0.000 C 
ENDBRANCH  20  21
ENDBRANCH  17  20
ENDBRANCH   3  13
BRANCH   1  28
ATOM     25  C   UNL     1       5.706  15.683  19.085  0.00  0.00    +0.000 A 
ATOM     26  C   UNL     1       5.161  15.199  17.897  0.00  0.00    +0.000 A 
ATOM     27  C   UNL     1       3.960  14.481  17.906  0.00  0.00    +0.000 A 
ATOM     28  C   UNL     1       3.312  14.193  19.115  0.00  0.00    +0.000 A 
ATOM     29  C   UNL     1       3.904  14.634  20.303  0.00  0.00    +0.000 A 
ATOM     30  C   UNL     1       5.073  15.399  20.291  0.00  0.00    +0.000 A 
BRANCH  25  32
ATOM     31  C   UNL     1       7.818  15.813  18.033  0.00  0.00    +0.000 C 
ATOM     32  O   UNL     1       6.885  16.364  18.956  0.00  0.00    +0.000 OA
ENDBRANCH  25  32
ENDBRANCH   1  28
TORSDOF 5
ENDMDL
MODEL 7
REMARK VINA RESULT:      -7.0      3.352      8.285
REMARK  Name = 
REMARK  9 active torsions:
REMARK  status: ('A' for Active; 'I' for Inactive)
REMARK    1  A    between atoms: C_1  and  O_2
REMARK    2  A    between atoms: O_2  and  C_3
REMARK    3  A    between atoms: C_6  and  C_7
REMARK    4  A    between atoms: N_9  and  C_10
REMARK    5  A    between atoms: C_14  and  O_16
REMARK    6  A    between atoms: O_16  and  C_17
REMARK    7  A    between atoms: C_17  and  C_18
REMARK    8  A    between atoms: C_17  and  C_19
REMARK    9  A    between atoms: C_17  and  C_20
REMARK                            x       y       z     vdW  Elec       q    Type
REMARK                         _______ _______ _______ _____ _____    ______ ____
ROOT
ATOM      1  C   UNL     1       2.010  13.290  19.618  0.00  0.00    +0.000 A 
ATOM      2  C   UNL     1       1.906  12.133  18.862  0.00  0.00    +0.000 A 
ATOM      3  N   UNL     1       0.993  11.299  19.451  0.00  0.00    +0.000 N 
ATOM      4  C   UNL     1       0.487  11.908  20.578  0.00  0.00    +0.000 A 
ATOM      5  N   UNL     1      -0.419  11.366  21.408  0.00  0.00    +0.000 NA
ATOM      6  C   UNL     1      -0.719  12.181  22.427  0.00  0.00    +0.000 A 
ATOM      7  N   UNL     1      -0.248  13.416  22.663  0.00  0.00    +0.000 NA
ATOM      8  C   UNL     1       0.653  13.935  21.807  0.00  0.00    +0.000 A 
ATOM      9  N   UNL     1       1.081  15.226  22.092  0.00  0.00    +0.000 N 
ATOM     10  C   UNL     1       1.080  13.162  20.706  0.00  0.00    +0.000 A 
ATOM     11  H   UNL     1       0.473  15.661  22.777  0.00  0.00    +0.000 HD
ATOM     12  H   UNL     1       1.294  15.784  21.275  0.00  0.00    +0.000 HD
ENDROOT
BRANCH   3  13
ATOM     13  C   UNL     1       0.610   9.974  18.979  0.00  0.00    +0.000 C 
ATOM     14  C   UNL     1       0.449   8.924  20.091  0.00  0.00    +0.000 C 
ATOM     15  C   UNL     1       1.751   8.134  20.087  0.00  0.00    +0.000 C 
ATOM     16  N   UNL     1       2.227   8.233  18.727  0.00  0.00    +0.000 N 
ATOM     17  C   UNL     1       3.119   7.406  18.089  0.00  0.00    +0.000 C 
ATOM     18  O   UNL     1       3.466   7.596  16.932  0.00  0.00    +0.000 OA
ATOM     19  C   UNL     1       1.623   9.352  18.014  0.00  0.00    +0.000 C 
BRANCH  17  20
ATOM     20  O   UNL     1       3.532   6.361  18.864  0.00  0.00    +0.000 OA
BRANCH  20  21
ATOM     21  C   UNL     1       3.232   5.003  18.427  0.00  0.00    +0.000 C 
ATOM     22  C   UNL     1       4.248   4.513  17.388  0.00  0.00    +0.000 C 
ATOM     23  C   UNL     1       3.360   4.107  19.674  0.00  0.00    +0.000 C 
ATOM     24  C   UNL     1       1.785   4.889  17.925  0.00  0.00    +0.000 C 
ENDBRANCH  20  21
ENDBRANCH  17  20
ENDBRANCH   3  13
BRANCH   1  28
ATOM     25  C   UNL     1       4.789  16.392  18.637  0.00  0.00    +0.000 A 
ATOM     26  C   UNL     1       4.937  15.666  19.818  0.00  0.00    +0.000 A 
ATOM     27  C   UNL     1       4.050  14.630  20.131  0.00  0.00    +0.000 A 
ATOM     28  C   UNL     1       2.969  14.338  19.288  0.00  0.00    +0.000 A 
ATOM     29  C   UNL     1       2.800  15.115  18.137  0.00  0.00    +0.000 A 
ATOM     30  C   UNL     1       3.718  16.113  17.794  0.00  0.00    +0.000 A 
BRANCH  25  32
ATOM     31  C   UNL     1       6.906  17.276  19.198  0.00  0.00    +0.000 C 
ATOM     32  O   UNL     1       5.708  17.385  18.437  0.00  0.00    +0.000 OA
ENDBRANCH  25  32
ENDBRANCH   1  28
TORSDOF 5
ENDMDL
MODEL 8
REMARK VINA RESULT:      -6.9      3.485      8.378
REMARK  Name = 
REMARK  9 active torsions:
REMARK  status: ('A' for Active; 'I' for Inactive)
REMARK    1  A    between atoms: C_1  and  O_2
REMARK    2  A    between atoms: O_2  and  C_3
REMARK    3  A    between atoms: C_6  and  C_7
REMARK    4  A    between atoms: N_9  and  C_10
REMARK    5  A    between atoms: C_14  and  O_16
REMARK    6  A    between atoms: O_16  and  C_17
REMARK    7  A    between atoms: C_17  and  C_18
REMARK    8  A    between atoms: C_17  and  C_19
REMARK    9  A    between atoms: C_17  and  C_20
REMARK                            x       y       z     vdW  Elec       q    Type
REMARK                         _______ _______ _______ _____ _____    ______ ____
ROOT
ATOM      1  C   UNL     1       1.176  13.900  19.248  0.00  0.00    +0.000 A 
ATOM      2  C   UNL     1       1.279  12.575  18.859  0.00  0.00    +0.000 A 
ATOM      3  N   UNL     1       0.096  11.939  19.130  0.00  0.00    +0.000 N 
ATOM      4  C   UNL     1      -0.785  12.844  19.680  0.00  0.00    +0.000 A 
ATOM      5  N   UNL     1      -2.034  12.558  20.083  0.00  0.00    +0.000 NA
ATOM      6  C   UNL     1      -2.657  13.630  20.587  0.00  0.00    +0.000 A 
ATOM      7  N   UNL     1      -2.190  14.884  20.695  0.00  0.00    +0.000 NA
ATOM      8  C   UNL     1      -0.936  15.140  20.274  0.00  0.00    +0.000 A 
ATOM      9  N   UNL     1      -0.520  16.461  20.388  0.00  0.00    +0.000 N 
ATOM     10  C   UNL     1      -0.158  14.086  19.750  0.00  0.00    +0.000 A 
ATOM     11  H   UNL     1      -1.311  17.071  20.562  0.00  0.00    +0.000 HD
ATOM     12  H   UNL     1       0.116  16.762  19.661  0.00  0.00    +0.000 HD
ENDROOT
BRANCH   3  13
ATOM     13  C   UNL     1      -0.198  10.532  18.890  0.00  0.00    +0.000 C 
ATOM     14  C   UNL     1      -0.399   9.697  20.165  0.00  0.00    +0.000 C 
ATOM     15  C   UNL     1       0.930   8.988  20.392  0.00  0.00    +0.000 C 
ATOM     16  N   UNL     1       1.500   8.862  19.071  0.00  0.00    +0.000 N 
ATOM     17  C   UNL     1       2.469   7.979  18.658  0.00  0.00    +0.000 C 
ATOM     18  O   UNL     1       2.891   7.973  17.510  0.00  0.00    +0.000 OA
ATOM     19  C   UNL     1       0.906   9.798  18.125  0.00  0.00    +0.000 C 
BRANCH  17  20
ATOM     20  O   UNL     1       2.864   7.117  19.638  0.00  0.00    +0.000 OA
BRANCH  20  21
ATOM     21  C   UNL     1       2.831   5.685  19.369  0.00  0.00    +0.000 C 
ATOM     22  C   UNL     1       4.245   5.114  19.203  0.00  0.00    +0.000 C 
ATOM     23  C   UNL     1       2.195   5.024  20.606  0.00  0.00    +0.000 C 
ATOM     24  C   UNL     1       1.931   5.369  18.165  0.00  0.00    +0.000 C 
ENDBRANCH  20  21
ENDBRANCH  17  20
ENDBRANCH   3  13
BRANCH   1  28
ATOM     25  C   UNL     1       4.481  16.602  18.955  0.00  0.00    +0.000 A 
ATOM     26  C   UNL     1       3.862  16.383  20.185  0.00  0.00    +0.000 A 
ATOM     27  C   UNL     1       2.800  15.478  20.295  0.00  0.00    +0.000 A 
ATOM     28  C   UNL     1       2.309  14.816  19.162  0.00  0.00    +0.000 A 
ATOM     29  C   UNL     1       2.903  15.092  17.925  0.00  0.00    +0.000 A 
ATOM     30  C   UNL     1       4.000  15.952  17.824  0.00  0.00    +0.000 A 
BRANCH  25  32
ATOM     31  C   UNL     1       6.805  16.977  18.756  0.00  0.00    +0.000 C 
ATOM     32  O   UNL     1       5.503  17.512  18.965  0.00  0.00    +0.000 OA
ENDBRANCH  25  32
ENDBRANCH   1  28
TORSDOF 5
ENDMDL
MODEL 9
REMARK VINA RESULT:      -6.9      2.147      3.513
REMARK  Name = 
REMARK  9 active torsions:
REMARK  status: ('A' for Active; 'I' for Inactive)
REMARK    1  A    between atoms: C_1  and  O_2
REMARK    2  A    between atoms: O_2  and  C_3
REMARK    3  A    between atoms: C_6  and  C_7
REMARK    4  A    between atoms: N_9  and  C_10
REMARK    5  A    between atoms: C_14  and  O_16
REMARK    6  A    between atoms: O_16  and  C_17
REMARK    7  A    between atoms: C_17  and  C_18
REMARK    8  A    between atoms: C_17  and  C_19
REMARK    9  A    between atoms: C_17  and  C_20
REMARK                            x       y       z     vdW  Elec       q    Type
REMARK                         _______ _______ _______ _____ _____    ______ ____
ROOT
ATOM      1  C   UNL     1       3.838   5.541  18.438  0.00  0.00    +0.000 A 
ATOM      2  C   UNL     1       2.920   6.576  18.495  0.00  0.00    +0.000 A 
ATOM      3  N   UNL     1       1.996   6.297  19.467  0.00  0.00    +0.000 N 
ATOM      4  C   UNL     1       2.312   5.094  20.057  0.00  0.00    +0.000 A 
ATOM      5  N   UNL     1       1.608   4.505  21.038  0.00  0.00    +0.000 NA
ATOM      6  C   UNL     1       2.144   3.337  21.410  0.00  0.00    +0.000 A 
ATOM      7  N   UNL     1       3.259   2.752  20.943  0.00  0.00    +0.000 NA
ATOM      8  C   UNL     1       3.948   3.371  19.965  0.00  0.00    +0.000 A 
ATOM      9  N   UNL     1       5.106   2.729  19.544  0.00  0.00    +0.000 N 
ATOM     10  C   UNL     1       3.469   4.599  19.459  0.00  0.00    +0.000 A 
ATOM     11  H   UNL     1       5.371   2.004  20.201  0.00  0.00    +0.000 HD
ATOM     12  H   UNL     1       5.847   3.354  19.254  0.00  0.00    +0.000 HD
ENDROOT
BRANCH   3  13
ATOM     13  C   UNL     1       0.852   7.125  19.828  0.00  0.00    +0.000 C 
ATOM     14  C   UNL     1       0.568   8.279  18.852  0.00  0.00    +0.000 C 
ATOM     15  C   UNL     1       1.184   9.512  19.502  0.00  0.00    +0.000 C 
ATOM     16  N   UNL     1       1.140   9.231  20.918  0.00  0.00    +0.000 N 
ATOM     17  C   UNL     1       1.196  10.133  21.952  0.00  0.00    +0.000 C 
ATOM     18  O   UNL     1       1.167   9.779  23.122  0.00  0.00    +0.000 OA
ATOM     19  C   UNL     1       0.995   7.807  21.191  0.00  0.00    +0.000 C 
BRANCH  17  20
ATOM     20  O   UNL     1       1.250  11.431  21.533  0.00  0.00    +0.000 OA
BRANCH  20  21
ATOM     21  C   UNL     1       0.025  12.220  21.536  0.00  0.00    +0.000 C 
ATOM     22  C   UNL     1      -0.914  11.791  22.670  0.00  0.00    +0.000 C 
ATOM     23  C   UNL     1       0.448  13.678  21.798  0.00  0.00    +0.000 C 
ATOM     24  C   UNL     1      -0.663  12.181  20.164  0.00  0.00    +0.000 C 
ENDBRANCH  20  21
ENDBRANCH  17  20
ENDBRANCH   3  13
BRANCH   1  28
ATOM     25  C   UNL     1       6.985   5.451  15.541  0.00  0.00    +0.000 A 
ATOM     26  C   UNL     1       5.815   4.725  15.327  0.00  0.00    +0.000 A 
ATOM     27  C   UNL     1       4.769   4.773  16.255  0.00  0.00    +0.000 A 
ATOM     28  C   UNL     1       4.901   5.512  17.438  0.00  0.00    +0.000 A 
ATOM     29  C   UNL     1       6.105   6.187  17.666  0.00  0.00    +0.000 A 
ATOM     30  C   UNL     1       7.128   6.185  16.714  0.00  0.00    +0.000 A 
BRANCH  25  32
ATOM     31  C   UNL     1       7.472   4.918  13.291  0.00  0.00    +0.000 C 
ATOM     32  O   UNL     1       7.943   5.324  14.571  0.00  0.00    +0.000 OA
ENDBRANCH  25  32
ENDBRANCH   1  28
TORSDOF 5
ENDMDL
