MODEL 1
REMARK VINA RESULT:      -7.3      0.000      0.000
REMARK  Name = 
REMARK  8 active torsions:
REMARK  status: ('A' for Active; 'I' for Inactive)
REMARK    1  A    between atoms: C_1  and  C_2
REMARK    2  A    between atoms: C_5  and  S_6
REMARK    3  A    between atoms: S_6  and  N_9
REMARK    4  A    between atoms: C_13  and  C_15
REMARK    5  A    between atoms: C_15  and  O_16
REMARK    6  A    between atoms: O_16  and  C_17
REMARK    7  A    between atoms: C_17  and  C_19
REMARK    8  A    between atoms: C_25  and  C_26
REMARK                            x       y       z     vdW  Elec       q    Type
REMARK                         _______ _______ _______ _____ _____    ______ ____
ROOT
ATOM      1  N   UNL     1       4.264   5.610  18.930  0.00  0.00    +0.000 NA
ATOM      2  C   UNL     1       4.285   6.620  17.843  0.00  0.00    +0.000 C 
ATOM      3  C   UNL     1       2.857   6.847  17.352  0.00  0.00    +0.000 C 
ATOM      4  N   UNL     1       2.098   7.456  18.443  0.00  0.00    +0.000 N 
ATOM      5  C   UNL     1       1.873   8.824  18.368  0.00  0.00    +0.000 C 
ATOM      6  O   UNL     1       2.252   9.475  17.386  0.00  0.00    +0.000 OA
ATOM      7  C   UNL     1       1.991   6.586  19.626  0.00  0.00    +0.000 C 
ATOM      8  C   UNL     1       3.333   5.926  20.051  0.00  0.00    +0.000 C 
ENDROOT
BRANCH   1   9
ATOM      9  S   UNL     1       4.583   4.010  18.491  0.00  0.00    +0.000 S 
ATOM     10  O   UNL     1       3.317   3.408  18.129  0.00  0.00    +0.000 OA
ATOM     11  O   UNL     1       5.447   3.391  19.474  0.00  0.00    +0.000 OA
BRANCH   9  16
ATOM     12  C   UNL     1       7.572   5.109  13.283  0.00  0.00    +0.000 C 
ATOM     13  C   UNL     1       6.867   4.771  14.565  0.00  0.00    +0.000 A 
ATOM     14  C   UNL     1       5.578   4.236  14.562  0.00  0.00    +0.000 A 
ATOM     15  C   UNL     1       4.920   3.977  15.766  0.00  0.00    +0.000 A 
ATOM     16  C   UNL     1       5.545   4.250  16.994  0.00  0.00    +0.000 A 
ATOM     17  C   UNL     1       6.859   4.757  17.021  0.00  0.00    +0.000 A 
ATOM     18  C   UNL     1       7.650   5.066  18.261  0.00  0.00    +0.000 C 
ATOM     19  C   UNL     1       7.499   5.014  15.791  0.00  0.00    +0.000 A 
ENDBRANCH   9  16
ENDBRANCH   1   9
BRANCH   5  20
ATOM     20  C   UNL     1       1.111   9.539  19.487  0.00  0.00    +0.000 C 
BRANCH  20  21
ATOM     21  O   UNL     1       0.374  10.659  18.976  0.00  0.00    +0.000 OA
BRANCH  21  22
ATOM     22  C   UNL     1      -0.878  10.786  19.511  0.00  0.00    +0.000 C 
ATOM     23  O   UNL     1      -1.065  11.205  20.660  0.00  0.00    +0.000 OA
BRANCH  22  24
ATOM     24  C   UNL     1      -1.991  10.329  18.533  0.00  0.00    +0.000 C 
ATOM     25  C   UNL     1      -2.816  11.448  17.844  0.00  0.00    +0.000 C 
ATOM     26  C   UNL     1      -2.786  10.613  16.553  0.00  0.00    +0.000 C 
ATOM     27  C   UNL     1      -1.543   9.899  17.109  0.00  0.00    +0.000 C 
ENDBRANCH  22  24
ENDBRANCH  21  22
ENDBRANCH  20  21
ENDBRANCH   5  20
TORSDOF 6
ENDMDL
MODEL 2
REMARK VINA RESULT:      -7.2      3.780      9.791
REMARK  Name = 
REMARK  8 active torsions:
REMARK  status: ('A' for Active; 'I' for Inactive)
REMARK    1  A    between atoms: C_1  and  C_2
REMARK    2  A    between atoms: C_5  and  S_6
REMARK    3  A    between atoms: S_6  and  N_9
REMARK    4  A    between atoms: C_13  and  C_15
REMARK    5  A    between atoms: C_15  and  O_16
REMARK    6  A    between atoms: O_16  and  C_17
REMARK    7  A    between atoms: C_17  and  C_19
REMARK    8  A    between atoms: C_25  and  C_26
REMARK                            x       y       z     vdW  Elec       q    Type
REMARK                         _______ _______ _______ _____ _____    ______ ____
ROOT
ATOM      1  N   UNL     1      -0.801  10.606  19.183  0.00  0.00    +0.000 NA
ATOM      2  C   UNL     1      -0.041  10.195  17.976  0.00  0.00    +0.000 C 
ATOM      3  C   UNL     1       1.446  10.154  18.320  0.00  0.00    +0.000 C 
ATOM      4  N   UNL     1       1.652   9.089  19.299  0.00  0.00    +0.000 N 
ATOM      5  C   UNL     1       2.178   7.893  18.829  0.00  0.00    +0.000 C 
ATOM      6  O   UNL     1       2.508   7.769  17.643  0.00  0.00    +0.000 OA
ATOM      7  C   UNL     1       0.945   9.328  20.568  0.00  0.00    +0.000 C 
ATOM      8  C   UNL     1      -0.532   9.782  20.395  0.00  0.00    +0.000 C 
ENDROOT
BRANCH   1   9
ATOM      9  S   UNL     1      -1.193  12.244  19.315  0.00  0.00    +0.000 S 
ATOM     10  O   UNL     1      -0.943  12.846  18.022  0.00  0.00    +0.000 OA
ATOM     11  O   UNL     1      -0.609  12.796  20.518  0.00  0.00    +0.000 OA
BRANCH   9  16
ATOM     12  C   UNL     1      -7.232  12.353  20.200  0.00  0.00    +0.000 C 
ATOM     13  C   UNL     1      -5.747  12.257  20.008  0.00  0.00    +0.000 A 
ATOM     14  C   UNL     1      -4.859  12.670  21.004  0.00  0.00    +0.000 A 
ATOM     15  C   UNL     1      -3.481  12.620  20.786  0.00  0.00    +0.000 A 
ATOM     16  C   UNL     1      -2.969  12.154  19.563  0.00  0.00    +0.000 A 
ATOM     17  C   UNL     1      -3.844  11.700  18.557  0.00  0.00    +0.000 A 
ATOM     18  C   UNL     1      -3.428  11.155  17.220  0.00  0.00    +0.000 C 
ATOM     19  C   UNL     1      -5.231  11.766  18.802  0.00  0.00    +0.000 A 
ENDBRANCH   9  16
ENDBRANCH   1   9
BRANCH   5  20
ATOM     20  C   UNL     1       2.395   6.720  19.789  0.00  0.00    +0.000 C 
BRANCH  20  21
ATOM     21  O   UNL     1       3.556   5.960  19.421  0.00  0.00    +0.000 OA
BRANCH  21  22
ATOM     22  C   UNL     1       3.366   4.607  19.472  0.00  0.00    +0.000 C 
ATOM     23  O   UNL     1       4.275   3.824  19.774  0.00  0.00    +0.000 OA
BRANCH  22  24
ATOM     24  C   UNL     1       1.920   4.195  19.094  0.00  0.00    +0.000 C 
ATOM     25  C   UNL     1       1.769   3.064  18.041  0.00  0.00    +0.000 C 
ATOM     26  C   UNL     1       0.596   2.512  18.870  0.00  0.00    +0.000 C 
ATOM     27  C   UNL     1       1.174   3.259  20.083  0.00  0.00    +0.000 C 
ENDBRANCH  22  24
ENDBRANCH  21  22
ENDBRANCH  20  21
ENDBRANCH   5  20
TORSDOF 6
ENDMDL
MODEL 3
REMARK VINA RESULT:      -7.0      1.796      2.432
REMARK  Name = 
REMARK  8 active torsions:
REMARK  status: ('A' for Active; 'I' for Inactive)
REMARK    1  A    between atoms: C_1  and  C_2
REMARK    2  A    between atoms: C_5  and  S_6
REMARK    3  A    between atoms: S_6  and  N_9
REMARK    4  A    between atoms: C_13  and  C_15
REMARK    5  A    between atoms: C_15  and  O_16
REMARK    6  A    between atoms: O_16  and  C_17
REMARK    7  A    between atoms: C_17  and  C_19
REMARK    8  A    between atoms: C_25  and  C_26
REMARK                            x       y       z     vdW  Elec       q    Type
REMARK                         _______ _______ _______ _____ _____    ______ ____
ROOT
ATOM      1  N   UNL     1       4.261   5.604  18.831  0.00  0.00    +0.000 NA
ATOM      2  C   UNL     1       4.206   6.621  17.751  0.00  0.00    +0.000 C 
ATOM      3  C   UNL     1       2.747   6.850  17.362  0.00  0.00    +0.000 C 
ATOM      4  N   UNL     1       2.065   7.451  18.507  0.00  0.00    +0.000 N 
ATOM      5  C   UNL     1       1.835   8.819  18.457  0.00  0.00    +0.000 C 
ATOM      6  O   UNL     1       2.144   9.477  17.455  0.00  0.00    +0.000 OA
ATOM      7  C   UNL     1       2.041   6.574  19.689  0.00  0.00    +0.000 C 
ATOM      8  C   UNL     1       3.410   5.912  20.015  0.00  0.00    +0.000 C 
ENDROOT
BRANCH   1   9
ATOM      9  S   UNL     1       4.550   4.008  18.360  0.00  0.00    +0.000 S 
ATOM     10  O   UNL     1       3.274   3.440  17.978  0.00  0.00    +0.000 OA
ATOM     11  O   UNL     1       5.395   3.351  19.334  0.00  0.00    +0.000 OA
BRANCH   9  16
ATOM     12  C   UNL     1       7.587   5.146  13.189  0.00  0.00    +0.000 C 
ATOM     13  C   UNL     1       6.870   4.799  14.460  0.00  0.00    +0.000 A 
ATOM     14  C   UNL     1       5.579   4.267  14.442  0.00  0.00    +0.000 A 
ATOM     15  C   UNL     1       4.910   3.998  15.638  0.00  0.00    +0.000 A 
ATOM     16  C   UNL     1       5.526   4.259  16.874  0.00  0.00    +0.000 A 
ATOM     17  C   UNL     1       6.840   4.761  16.917  0.00  0.00    +0.000 A 
ATOM     18  C   UNL     1       7.621   5.057  18.166  0.00  0.00    +0.000 C 
ATOM     19  C   UNL     1       7.492   5.028  15.695  0.00  0.00    +0.000 A 
ENDBRANCH   9  16
ENDBRANCH   1   9
BRANCH   5  20
ATOM     20  C   UNL     1       1.152   9.526  19.630  0.00  0.00    +0.000 C 
BRANCH  20  21
ATOM     21  O   UNL     1       0.809  10.878  19.291  0.00  0.00    +0.000 OA
BRANCH  21  22
ATOM     22  C   UNL     1       1.116  11.785  20.266  0.00  0.00    +0.000 C 
ATOM     23  O   UNL     1       1.003  11.525  21.469  0.00  0.00    +0.000 OA
BRANCH  22  24
ATOM     24  C   UNL     1       1.585  13.145  19.685  0.00  0.00    +0.000 C 
ATOM     25  C   UNL     1       2.844  13.782  20.332  0.00  0.00    +0.000 C 
ATOM     26  C   UNL     1       3.294  14.210  18.924  0.00  0.00    +0.000 C 
ATOM     27  C   UNL     1       2.392  13.101  18.358  0.00  0.00    +0.000 C 
ENDBRANCH  22  24
ENDBRANCH  21  22
ENDBRANCH  20  21
ENDBRANCH   5  20
TORSDOF 6
ENDMDL
MODEL 4
REMARK VINA RESULT:      -6.9      3.770      9.870
REMARK  Name = 
REMARK  8 active torsions:
REMARK  status: ('A' for Active; 'I' for Inactive)
REMARK    1  A    between atoms: C_1  and  C_2
REMARK    2  A    between atoms: C_5  and  S_6
REMARK    3  A    between atoms: S_6  and  N_9
REMARK    4  A    between atoms: C_13  and  C_15
REMARK    5  A    between atoms: C_15  and  O_16
REMARK    6  A    between atoms: O_16  and  C_17
REMARK    7  A    between atoms: C_17  and  C_19
REMARK    8  A    between atoms: C_25  and  C_26
REMARK                            x       y       z     vdW  Elec       q    Type
REMARK                         _______ _______ _______ _____ _____    ______ ____
ROOT
ATOM      1  N   UNL     1      -0.687  10.636  19.207  0.00  0.00    +0.000 NA
ATOM      2  C   UNL     1       0.100  10.296  17.994  0.00  0.00    +0.000 C 
ATOM      3  C   UNL     1       1.573  10.183  18.378  0.00  0.00    +0.000 C 
ATOM      4  N   UNL     1       1.717   9.039  19.277  0.00  0.00    +0.000 N 
ATOM      5  C   UNL     1       2.224   7.868  18.731  0.00  0.00    +0.000 C 
ATOM      6  O   UNL     1       2.588   7.826  17.549  0.00  0.00    +0.000 OA
ATOM      7  C   UNL     1       0.977   9.201  20.539  0.00  0.00    +0.000 C 
ATOM      8  C   UNL     1      -0.481   9.712  20.358  0.00  0.00    +0.000 C 
ENDROOT
BRANCH   1   9
ATOM      9  S   UNL     1      -1.037  12.270  19.455  0.00  0.00    +0.000 S 
ATOM     10  O   UNL     1      -0.845  12.942  18.187  0.00  0.00    +0.000 OA
ATOM     11  O   UNL     1      -0.375  12.739  20.653  0.00  0.00    +0.000 OA
BRANCH   9  16
ATOM     12  C   UNL     1      -7.011  12.432  20.696  0.00  0.00    +0.000 C 
ATOM     13  C   UNL     1      -5.542  12.321  20.410  0.00  0.00    +0.000 A 
ATOM     14  C   UNL     1      -4.589  12.622  21.386  0.00  0.00    +0.000 A 
ATOM     15  C   UNL     1      -3.227  12.561  21.084  0.00  0.00    +0.000 A 
ATOM     16  C   UNL     1      -2.798  12.197  19.797  0.00  0.00    +0.000 A 
ATOM     17  C   UNL     1      -3.739  11.856  18.807  0.00  0.00    +0.000 A 
ATOM     18  C   UNL     1      -3.414  11.425  17.404  0.00  0.00    +0.000 C 
ATOM     19  C   UNL     1      -5.108  11.929  19.137  0.00  0.00    +0.000 A 
ENDBRANCH   9  16
ENDBRANCH   1   9
BRANCH   5  20
ATOM     20  C   UNL     1       2.377   6.618  19.602  0.00  0.00    +0.000 C 
BRANCH  20  21
ATOM     21  O   UNL     1       2.021   5.433  18.874  0.00  0.00    +0.000 OA
BRANCH  21  22
ATOM     22  C   UNL     1       2.932   4.421  18.990  0.00  0.00    +0.000 C 
ATOM     23  O   UNL     1       4.057   4.484  18.479  0.00  0.00    +0.000 OA
BRANCH  22  24
ATOM     24  C   UNL     1       2.382   3.216  19.796  0.00  0.00    +0.000 C 
ATOM     25  C   UNL     1       2.647   3.222  21.326  0.00  0.00    +0.000 C 
ATOM     26  C   UNL     1       1.226   2.669  21.528  0.00  0.00    +0.000 C 
ATOM     27  C   UNL     1       0.868   3.235  20.144  0.00  0.00    +0.000 C 
ENDBRANCH  22  24
ENDBRANCH  21  22
ENDBRANCH  20  21
ENDBRANCH   5  20
TORSDOF 6
ENDMDL
MODEL 5
REMARK VINA RESULT:      -6.9      2.935      8.608
REMARK  Name = 
REMARK  8 active torsions:
REMARK  status: ('A' for Active; 'I' for Inactive)
REMARK    1  A    between atoms: C_1  and  C_2
REMARK    2  A    between atoms: C_5  and  S_6
REMARK    3  A    between atoms: S_6  and  N_9
REMARK    4  A    between atoms: C_13  and  C_15
REMARK    5  A    between atoms: C_15  and  O_16
REMARK    6  A    between atoms: O_16  and  C_17
REMARK    7  A    between atoms: C_17  and  C_19
REMARK    8  A    between atoms: C_25  and  C_26
REMARK                            x       y       z     vdW  Elec       q    Type
REMARK                         _______ _______ _______ _____ _____    ______ ____
ROOT
ATOM      1  N   UNL     1       3.288   5.770  17.768  0.00  0.00    +0.000 NA
ATOM      2  C   UNL     1       4.462   6.634  17.484  0.00  0.00    +0.000 C 
ATOM      3  C   UNL     1       5.736   5.854  17.800  0.00  0.00    +0.000 C 
ATOM      4  N   UNL     1       5.827   4.740  16.858  0.00  0.00    +0.000 N 
ATOM      5  C   UNL     1       6.706   4.886  15.793  0.00  0.00    +0.000 C 
ATOM      6  O   UNL     1       7.417   5.893  15.691  0.00  0.00    +0.000 OA
ATOM      7  C   UNL     1       4.718   3.782  16.990  0.00  0.00    +0.000 C 
ATOM      8  C   UNL     1       3.315   4.445  17.086  0.00  0.00    +0.000 C 
ENDROOT
BRANCH   1   9
ATOM      9  S   UNL     1       2.553   5.956  19.277  0.00  0.00    +0.000 S 
ATOM     10  O   UNL     1       3.598   5.854  20.274  0.00  0.00    +0.000 OA
ATOM     11  O   UNL     1       1.368   5.129  19.355  0.00  0.00    +0.000 OA
BRANCH   9  16
ATOM     12  C   UNL     1       0.473  11.664  18.683  0.00  0.00    +0.000 C 
ATOM     13  C   UNL     1       1.047  10.288  18.855  0.00  0.00    +0.000 A 
ATOM     14  C   UNL     1       1.715   9.647  17.810  0.00  0.00    +0.000 A 
ATOM     15  C   UNL     1       2.198   8.347  17.974  0.00  0.00    +0.000 A 
ATOM     16  C   UNL     1       2.019   7.668  19.191  0.00  0.00    +0.000 A 
ATOM     17  C   UNL     1       1.379   8.308  20.270  0.00  0.00    +0.000 A 
ATOM     18  C   UNL     1       1.148   7.708  21.629  0.00  0.00    +0.000 C 
ATOM     19  C   UNL     1       0.897   9.619  20.076  0.00  0.00    +0.000 A 
ENDBRANCH   9  16
ENDBRANCH   1   9
BRANCH   5  20
ATOM     20  C   UNL     1       6.836   3.774  14.748  0.00  0.00    +0.000 C 
BRANCH  20  21
ATOM     21  O   UNL     1       6.119   4.105  13.549  0.00  0.00    +0.000 OA
BRANCH  21  22
ATOM     22  C   UNL     1       6.917   4.228  12.447  0.00  0.00    +0.000 C 
ATOM     23  O   UNL     1       7.798   5.092  12.363  0.00  0.00    +0.000 OA
BRANCH  22  24
ATOM     24  C   UNL     1       6.570   3.193  11.344  0.00  0.00    +0.000 C 
ATOM     25  C   UNL     1       7.477   1.937  11.256  0.00  0.00    +0.000 C 
ATOM     26  C   UNL     1       6.216   1.102  10.975  0.00  0.00    +0.000 C 
ATOM     27  C   UNL     1       5.395   2.221  11.637  0.00  0.00    +0.000 C 
ENDBRANCH  22  24
ENDBRANCH  21  22
ENDBRANCH  20  21
ENDBRANCH   5  20
TORSDOF 6
ENDMDL
MODEL 6
REMARK VINA RESULT:      -6.9      3.916      9.564
REMARK  Name = 
REMARK  8 active torsions:
REMARK  status: ('A' for Active; 'I' for Inactive)
REMARK    1  A    between atoms: C_1  and  C_2
REMARK    2  A    between atoms: C_5  and  S_6
REMARK    3  A    between atoms: S_6  and  N_9
REMARK    4  A    between atoms: C_13  and  C_15
REMARK    5  A    between atoms: C_15  and  O_16
REMARK    6  A    between atoms: O_16  and  C_17
REMARK    7  A    between atoms: C_17  and  C_19
REMARK    8  A    between atoms: C_25  and  C_26
REMARK                            x       y       z     vdW  Elec       q    Type
REMARK                         _______ _______ _______ _____ _____    ______ ____
ROOT
ATOM      1  N   UNL     1       0.097  10.071  19.666  0.00  0.00    +0.000 NA
ATOM      2  C   UNL     1       0.677   9.281  18.551  0.00  0.00    +0.000 C 
ATOM      3  C   UNL     1       2.076   8.817  18.951  0.00  0.00    +0.000 C 
ATOM      4  N   UNL     1       1.939   7.884  20.067  0.00  0.00    +0.000 N 
ATOM      5  C   UNL     1       2.051   6.531  19.776  0.00  0.00    +0.000 C 
ATOM      6  O   UNL     1       2.317   6.151  18.628  0.00  0.00    +0.000 OA
ATOM      7  C   UNL     1       1.354   8.504  21.268  0.00  0.00    +0.000 C 
ATOM      8  C   UNL     1       0.098   9.375  20.984  0.00  0.00    +0.000 C 
ENDROOT
BRANCH   1   9
ATOM      9  S   UNL     1       0.249  11.750  19.570  0.00  0.00    +0.000 S 
ATOM     10  O   UNL     1      -0.265  12.150  18.276  0.00  0.00    +0.000 OA
ATOM     11  O   UNL     1       1.570  12.152  20.001  0.00  0.00    +0.000 OA
BRANCH   9  16
ATOM     12  C   UNL     1      -3.532  13.904  23.851  0.00  0.00    +0.000 C 
ATOM     13  C   UNL     1      -2.615  13.307  22.824  0.00  0.00    +0.000 A 
ATOM     14  C   UNL     1      -1.244  13.185  23.061  0.00  0.00    +0.000 A 
ATOM     15  C   UNL     1      -0.400  12.674  22.073  0.00  0.00    +0.000 A 
ATOM     16  C   UNL     1      -0.918  12.274  20.829  0.00  0.00    +0.000 A 
ATOM     17  C   UNL     1      -2.302  12.355  20.581  0.00  0.00    +0.000 A 
ATOM     18  C   UNL     1      -2.986  11.938  19.309  0.00  0.00    +0.000 C 
ATOM     19  C   UNL     1      -3.131  12.879  21.594  0.00  0.00    +0.000 A 
ENDBRANCH   9  16
ENDBRANCH   1   9
BRANCH   5  20
ATOM     20  C   UNL     1       1.890   5.490  20.887  0.00  0.00    +0.000 C 
BRANCH  20  21
ATOM     21  O   UNL     1       0.995   4.442  20.488  0.00  0.00    +0.000 OA
BRANCH  21  22
ATOM     22  C   UNL     1       1.387   3.198  20.896  0.00  0.00    +0.000 C 
ATOM     23  O   UNL     1       1.454   2.886  22.092  0.00  0.00    +0.000 OA
BRANCH  22  24
ATOM     24  C   UNL     1       1.747   2.268  19.708  0.00  0.00    +0.000 C 
ATOM     25  C   UNL     1       1.243   2.702  18.306  0.00  0.00    +0.000 C 
ATOM     26  C   UNL     1       2.587   2.230  17.726  0.00  0.00    +0.000 C 
ATOM     27  C   UNL     1       3.186   2.386  19.134  0.00  0.00    +0.000 C 
ENDBRANCH  22  24
ENDBRANCH  21  22
ENDBRANCH  20  21
ENDBRANCH   5  20
TORSDOF 6
ENDMDL
MODEL 7
REMARK VINA RESULT:      -6.9      3.891      9.416
REMARK  Name = 
REMARK  8 active torsions:
REMARK  status: ('A' for Active; 'I' for Inactive)
REMARK    1  A    between atoms: C_1  and  C_2
REMARK    2  A    between atoms: C_5  and  S_6
REMARK    3  A    between atoms: S_6  and  N_9
REMARK    4  A    between atoms: C_13  and  C_15
REMARK    5  A    between atoms: C_15  and  O_16
REMARK    6  A    between atoms: O_16  and  C_17
REMARK    7  A    between atoms: C_17  and  C_19
REMARK    8  A    between atoms: C_25  and  C_26
REMARK                            x       y       z     vdW  Elec       q    Type
REMARK                         _______ _______ _______ _____ _____    ______ ____
ROOT
ATOM      1  N   UNL     1      -0.213   9.958  19.839  0.00  0.00    +0.000 NA
ATOM      2  C   UNL     1       0.451   9.291  18.690  0.00  0.00    +0.000 C 
ATOM      3  C   UNL     1       1.892   8.965  19.074  0.00  0.00    +0.000 C 
ATOM      4  N   UNL     1       1.859   7.970  20.144  0.00  0.00    +0.000 N 
ATOM      5  C   UNL     1       2.120   6.653  19.789  0.00  0.00    +0.000 C 
ATOM      6  O   UNL     1       2.424   6.360  18.626  0.00  0.00    +0.000 OA
ATOM      7  C   UNL     1       1.211   8.463  21.370  0.00  0.00    +0.000 C 
ATOM      8  C   UNL     1      -0.134   9.204  21.122  0.00  0.00    +0.000 C 
ENDROOT
BRANCH   1   9
ATOM      9  S   UNL     1      -0.246  11.647  19.825  0.00  0.00    +0.000 S 
ATOM     10  O   UNL     1       0.461  12.075  18.635  0.00  0.00    +0.000 OA
ATOM     11  O   UNL     1       0.115  12.159  21.129  0.00  0.00    +0.000 OA
BRANCH   9  16
ATOM     12  C   UNL     1      -6.264  12.281  19.024  0.00  0.00    +0.000 C 
ATOM     13  C   UNL     1      -4.775  12.189  19.185  0.00  0.00    +0.000 A 
ATOM     14  C   UNL     1      -3.986  11.513  18.253  0.00  0.00    +0.000 A 
ATOM     15  C   UNL     1      -2.608  11.395  18.448  0.00  0.00    +0.000 A 
ATOM     16  C   UNL     1      -1.998  11.955  19.583  0.00  0.00    +0.000 A 
ATOM     17  C   UNL     1      -2.769  12.671  20.519  0.00  0.00    +0.000 A 
ATOM     18  C   UNL     1      -2.239  13.339  21.757  0.00  0.00    +0.000 C 
ATOM     19  C   UNL     1      -4.158  12.771  20.300  0.00  0.00    +0.000 A 
ENDBRANCH   9  16
ENDBRANCH   1   9
BRANCH   5  20
ATOM     20  C   UNL     1       2.075   5.549  20.848  0.00  0.00    +0.000 C 
BRANCH  20  21
ATOM     21  O   UNL     1       1.047   4.591  20.554  0.00  0.00    +0.000 OA
BRANCH  21  22
ATOM     22  C   UNL     1       1.391   3.304  20.857  0.00  0.00    +0.000 C 
ATOM     23  O   UNL     1       1.586   2.929  22.019  0.00  0.00    +0.000 OA
BRANCH  22  24
ATOM     24  C   UNL     1       1.523   2.412  19.595  0.00  0.00    +0.000 C 
ATOM     25  C   UNL     1       1.307   3.107  18.224  0.00  0.00    +0.000 C 
ATOM     26  C   UNL     1       2.466   2.263  17.665  0.00  0.00    +0.000 C 
ATOM     27  C   UNL     1       2.963   2.089  19.109  0.00  0.00    +0.000 C 
ENDBRANCH  22  24
ENDBRANCH  21  22
ENDBRANCH  20  21
ENDBRANCH   5  20
TORSDOF 6
ENDMDL
MODEL 8
REMARK VINA RESULT:      -6.9      1.486      2.020
REMARK  Name = 
REMARK  8 active torsions:
REMARK  status: ('A' for Active; 'I' for Inactive)
REMARK    1  A    between atoms: C_1  and  C_2
REMARK    2  A    between atoms: C_5  and  S_6
REMARK    3  A    between atoms: S_6  and  N_9
REMARK    4  A    between atoms: C_13  and  C_15
REMARK    5  A    between atoms: C_15  and  O_16
REMARK    6  A    between atoms: O_16  and  C_17
REMARK    7  A    between atoms: C_17  and  C_19
REMARK    8  A    between atoms: C_25  and  C_26
REMARK                            x       y       z     vdW  Elec       q    Type
REMARK                         _______ _______ _______ _____ _____    ______ ____
ROOT
ATOM      1  N   UNL     1       2.090   4.637  18.818  0.00  0.00    +0.000 NA
ATOM      2  C   UNL     1       1.437   5.025  20.094  0.00  0.00    +0.000 C 
ATOM      3  C   UNL     1       2.266   6.122  20.758  0.00  0.00    +0.000 C 
ATOM      4  N   UNL     1       2.208   7.309  19.907  0.00  0.00    +0.000 N 
ATOM      5  C   UNL     1       1.350   8.327  20.303  0.00  0.00    +0.000 C 
ATOM      6  O   UNL     1       0.716   8.244  21.363  0.00  0.00    +0.000 OA
ATOM      7  C   UNL     1       2.803   7.095  18.578  0.00  0.00    +0.000 C 
ATOM      8  C   UNL     1       2.359   5.773  17.890  0.00  0.00    +0.000 C 
ENDROOT
BRANCH   1   9
ATOM      9  S   UNL     1       3.108   3.290  18.861  0.00  0.00    +0.000 S 
ATOM     10  O   UNL     1       2.375   2.186  18.279  0.00  0.00    +0.000 OA
ATOM     11  O   UNL     1       3.715   3.173  20.169  0.00  0.00    +0.000 OA
BRANCH   9  16
ATOM     12  C   UNL     1       7.172   5.187  14.720  0.00  0.00    +0.000 C 
ATOM     13  C   UNL     1       6.217   4.664  15.753  0.00  0.00    +0.000 A 
ATOM     14  C   UNL     1       5.178   3.799  15.407  0.00  0.00    +0.000 A 
ATOM     15  C   UNL     1       4.269   3.364  16.374  0.00  0.00    +0.000 A 
ATOM     16  C   UNL     1       4.390   3.790  17.708  0.00  0.00    +0.000 A 
ATOM     17  C   UNL     1       5.451   4.635  18.087  0.00  0.00    +0.000 A 
ATOM     18  C   UNL     1       5.709   5.140  19.479  0.00  0.00    +0.000 C 
ATOM     19  C   UNL     1       6.351   5.062  17.090  0.00  0.00    +0.000 A 
ENDBRANCH   9  16
ENDBRANCH   1   9
BRANCH   5  20
ATOM     20  C   UNL     1       1.212   9.589  19.449  0.00  0.00    +0.000 C 
BRANCH  20  21
ATOM     21  O   UNL     1       0.256   9.399  18.395  0.00  0.00    +0.000 OA
BRANCH  21  22
ATOM     22  C   UNL     1      -0.831  10.223  18.482  0.00  0.00    +0.000 C 
ATOM     23  O   UNL     1      -0.999  10.995  19.434  0.00  0.00    +0.000 OA
BRANCH  22  24
ATOM     24  C   UNL     1      -1.802  10.054  17.285  0.00  0.00    +0.000 C 
ATOM     25  C   UNL     1      -3.259   9.640  17.622  0.00  0.00    +0.000 C 
ATOM     26  C   UNL     1      -3.739  10.610  16.528  0.00  0.00    +0.000 C 
ATOM     27  C   UNL     1      -2.400  11.351  16.676  0.00  0.00    +0.000 C 
ENDBRANCH  22  24
ENDBRANCH  21  22
ENDBRANCH  20  21
ENDBRANCH   5  20
TORSDOF 6
ENDMDL
MODEL 9
REMARK VINA RESULT:      -6.8      1.828      2.349
REMARK  Name = 
REMARK  8 active torsions:
REMARK  status: ('A' for Active; 'I' for Inactive)
REMARK    1  A    between atoms: C_1  and  C_2
REMARK    2  A    between atoms: C_5  and  S_6
REMARK    3  A    between atoms: S_6  and  N_9
REMARK    4  A    between atoms: C_13  and  C_15
REMARK    5  A    between atoms: C_15  and  O_16
REMARK    6  A    between atoms: O_16  and  C_17
REMARK    7  A    between atoms: C_17  and  C_19
REMARK    8  A    between atoms: C_25  and  C_26
REMARK                            x       y       z     vdW  Elec       q    Type
REMARK                         _______ _______ _______ _____ _____    ______ ____
ROOT
ATOM      1  N   UNL     1       4.211   5.598  19.012  0.00  0.00    +0.000 NA
ATOM      2  C   UNL     1       4.208   6.613  17.928  0.00  0.00    +0.000 C 
ATOM      3  C   UNL     1       2.776   6.804  17.434  0.00  0.00    +0.000 C 
ATOM      4  N   UNL     1       1.998   7.388  18.525  0.00  0.00    +0.000 N 
ATOM      5  C   UNL     1       1.737   8.750  18.455  0.00  0.00    +0.000 C 
ATOM      6  O   UNL     1       2.101   9.415  17.477  0.00  0.00    +0.000 OA
ATOM      7  C   UNL     1       1.911   6.511  19.705  0.00  0.00    +0.000 C 
ATOM      8  C   UNL     1       3.269   5.885  20.131  0.00  0.00    +0.000 C 
ENDROOT
BRANCH   1   9
ATOM      9  S   UNL     1       4.574   4.010  18.567  0.00  0.00    +0.000 S 
ATOM     10  O   UNL     1       3.326   3.376  18.198  0.00  0.00    +0.000 OA
ATOM     11  O   UNL     1       5.450   3.410  19.549  0.00  0.00    +0.000 OA
BRANCH   9  16
ATOM     12  C   UNL     1       7.547   5.205  13.371  0.00  0.00    +0.000 C 
ATOM     13  C   UNL     1       6.848   4.845  14.649  0.00  0.00    +0.000 A 
ATOM     14  C   UNL     1       5.579   4.264  14.642  0.00  0.00    +0.000 A 
ATOM     15  C   UNL     1       4.924   3.983  15.843  0.00  0.00    +0.000 A 
ATOM     16  C   UNL     1       5.534   4.281  17.074  0.00  0.00    +0.000 A 
ATOM     17  C   UNL     1       6.828   4.835  17.106  0.00  0.00    +0.000 A 
ATOM     18  C   UNL     1       7.602   5.175  18.349  0.00  0.00    +0.000 C 
ATOM     19  C   UNL     1       7.464   5.112  15.878  0.00  0.00    +0.000 A 
ENDBRANCH   9  16
ENDBRANCH   1   9
BRANCH   5  20
ATOM     20  C   UNL     1       0.953   9.440  19.575  0.00  0.00    +0.000 C 
BRANCH  20  21
ATOM     21  O   UNL     1       1.815   9.795  20.666  0.00  0.00    +0.000 OA
BRANCH  21  22
ATOM     22  C   UNL     1       1.194   9.782  21.884  0.00  0.00    +0.000 C 
ATOM     23  O   UNL     1       1.737   9.325  22.897  0.00  0.00    +0.000 OA
BRANCH  22  24
ATOM     24  C   UNL     1      -0.238  10.374  21.826  0.00  0.00    +0.000 C 
ATOM     25  C   UNL     1      -1.044  10.381  23.153  0.00  0.00    +0.000 C 
ATOM     26  C   UNL     1      -1.579  11.771  22.768  0.00  0.00    +0.000 C 
ATOM     27  C   UNL     1      -0.361  11.922  21.842  0.00  0.00    +0.000 C 
ENDBRANCH  22  24
ENDBRANCH  21  22
ENDBRANCH  20  21
ENDBRANCH   5  20
TORSDOF 6
ENDMDL
