MODEL 1
REMARK VINA RESULT:      -7.3      0.000      0.000
REMARK  Name = 
REMARK  6 active torsions:
REMARK  status: ('A' for Active; 'I' for Inactive)
REMARK    1  A    between atoms: C_1  and  C_2
REMARK    2  A    between atoms: C_2  and  C_3
REMARK    3  A    between atoms: N_7  and  C_8
REMARK    4  A    between atoms: C_10  and  C_11
REMARK    5  A    between atoms: C_10  and  C_12
REMARK    6  A    between atoms: C_17  and  C_18
REMARK                            x       y       z     vdW  Elec       q    Type
REMARK                         _______ _______ _______ _____ _____    ______ ____
ROOT
ATOM      1  C   UNL     1       4.439   4.187  17.671  0.00  0.00    +0.000 C 
ATOM      2  C   UNL     1       4.397   2.970  18.247  0.00  0.00    +0.000 C 
ATOM      3  C   UNL     1       3.591   2.583  19.456  0.00  0.00    +0.000 C 
ATOM      4  C   UNL     1       4.557   2.117  20.553  0.00  0.00    +0.000 C 
ATOM      5  C   UNL     1       2.639   1.438  19.088  0.00  0.00    +0.000 C 
ATOM      6  O   UNL     1       2.801   3.627  20.033  0.00  0.00    +0.000 OA
ATOM      7  C   UNL     1       2.835   4.868  19.468  0.00  0.00    +0.000 A 
ATOM      8  C   UNL     1       2.030   5.814  20.118  0.00  0.00    +0.000 A 
ATOM      9  C   UNL     1       1.938   7.119  19.639  0.00  0.00    +0.000 A 
ATOM     10  C   UNL     1       2.622   7.468  18.479  0.00  0.00    +0.000 A 
ATOM     11  C   UNL     1       3.400   6.509  17.814  0.00  0.00    +0.000 A 
ATOM     12  C   UNL     1       3.570   5.205  18.321  0.00  0.00    +0.000 A 
ENDROOT
BRANCH   1  17
ATOM     13  C   UNL     1       6.679   4.779  16.601  0.00  0.00    +0.000 A 
ATOM     14  C   UNL     1       7.100   4.978  15.295  0.00  0.00    +0.000 A 
ATOM     15  C   UNL     1       6.007   4.783  14.439  0.00  0.00    +0.000 A 
ATOM     16  C   UNL     1       4.930   4.509  15.240  0.00  0.00    +0.000 A 
ATOM     17  N   UNL     1       5.311   4.455  16.576  0.00  0.00    +0.000 N 
BRANCH  13  19
ATOM     18  C   UNL     1       7.578   6.219  18.486  0.00  0.00    +0.000 C 
ATOM     19  C   UNL     1       7.510   4.836  17.857  0.00  0.00    +0.000 C 
ENDBRANCH  13  19
ENDBRANCH   1  17
BRANCH  10  20
ATOM     20  C   UNL     1       2.546   8.807  17.967  0.00  0.00    +0.000 C 
ATOM     21  N   UNL     1       2.495   9.894  17.566  0.00  0.00    +0.000 NA
ENDBRANCH  10  20
TORSDOF 3
ENDMDL
MODEL 2
REMARK VINA RESULT:      -7.1      2.418      5.921
REMARK  Name = 
REMARK  6 active torsions:
REMARK  status: ('A' for Active; 'I' for Inactive)
REMARK    1  A    between atoms: C_1  and  C_2
REMARK    2  A    between atoms: C_2  and  C_3
REMARK    3  A    between atoms: N_7  and  C_8
REMARK    4  A    between atoms: C_10  and  C_11
REMARK    5  A    between atoms: C_10  and  C_12
REMARK    6  A    between atoms: C_17  and  C_18
REMARK                            x       y       z     vdW  Elec       q    Type
REMARK                         _______ _______ _______ _____ _____    ______ ____
ROOT
ATOM      1  C   UNL     1       4.977   4.833  16.921  0.00  0.00    +0.000 C 
ATOM      2  C   UNL     1       5.756   5.471  17.815  0.00  0.00    +0.000 C 
ATOM      3  C   UNL     1       7.141   6.003  17.573  0.00  0.00    +0.000 C 
ATOM      4  C   UNL     1       8.107   5.293  18.530  0.00  0.00    +0.000 C 
ATOM      5  C   UNL     1       7.162   7.512  17.845  0.00  0.00    +0.000 C 
ATOM      6  O   UNL     1       7.659   5.800  16.255  0.00  0.00    +0.000 OA
ATOM      7  C   UNL     1       6.888   5.150  15.336  0.00  0.00    +0.000 A 
ATOM      8  C   UNL     1       7.498   5.001  14.082  0.00  0.00    +0.000 A 
ATOM      9  C   UNL     1       6.822   4.384  13.032  0.00  0.00    +0.000 A 
ATOM     10  C   UNL     1       5.513   3.953  13.224  0.00  0.00    +0.000 A 
ATOM     11  C   UNL     1       4.896   4.136  14.472  0.00  0.00    +0.000 A 
ATOM     12  C   UNL     1       5.585   4.686  15.570  0.00  0.00    +0.000 A 
ENDROOT
BRANCH   1  17
ATOM     13  C   UNL     1       2.570   4.975  17.757  0.00  0.00    +0.000 A 
ATOM     14  C   UNL     1       1.584   4.036  18.019  0.00  0.00    +0.000 A 
ATOM     15  C   UNL     1       2.092   2.762  17.727  0.00  0.00    +0.000 A 
ATOM     16  C   UNL     1       3.391   2.943  17.330  0.00  0.00    +0.000 A 
ATOM     17  N   UNL     1       3.711   4.296  17.295  0.00  0.00    +0.000 N 
BRANCH  13  19
ATOM     18  C   UNL     1       2.528   6.978  19.313  0.00  0.00    +0.000 C 
ATOM     19  C   UNL     1       2.472   6.473  17.879  0.00  0.00    +0.000 C 
ENDBRANCH  13  19
ENDBRANCH   1  17
BRANCH  10  20
ATOM     20  C   UNL     1       4.795   3.312  12.159  0.00  0.00    +0.000 C 
ATOM     21  N   UNL     1       4.208   2.810  11.295  0.00  0.00    +0.000 NA
ENDBRANCH  10  20
TORSDOF 3
ENDMDL
MODEL 3
REMARK VINA RESULT:      -7.1      1.451      2.422
REMARK  Name = 
REMARK  6 active torsions:
REMARK  status: ('A' for Active; 'I' for Inactive)
REMARK    1  A    between atoms: C_1  and  C_2
REMARK    2  A    between atoms: C_2  and  C_3
REMARK    3  A    between atoms: N_7  and  C_8
REMARK    4  A    between atoms: C_10  and  C_11
REMARK    5  A    between atoms: C_10  and  C_12
REMARK    6  A    between atoms: C_17  and  C_18
REMARK                            x       y       z     vdW  Elec       q    Type
REMARK                         _______ _______ _______ _____ _____    ______ ____
ROOT
ATOM      1  C   UNL     1       4.901   4.670  18.976  0.00  0.00    +0.000 C 
ATOM      2  C   UNL     1       5.063   3.333  18.999  0.00  0.00    +0.000 C 
ATOM      3  C   UNL     1       4.078   2.325  19.521  0.00  0.00    +0.000 C 
ATOM      4  C   UNL     1       4.736   1.558  20.676  0.00  0.00    +0.000 C 
ATOM      5  C   UNL     1       3.707   1.346  18.399  0.00  0.00    +0.000 C 
ATOM      6  O   UNL     1       2.857   2.863  20.039  0.00  0.00    +0.000 OA
ATOM      7  C   UNL     1       2.677   4.215  20.030  0.00  0.00    +0.000 A 
ATOM      8  C   UNL     1       1.451   4.631  20.567  0.00  0.00    +0.000 A 
ATOM      9  C   UNL     1       1.111   5.981  20.600  0.00  0.00    +0.000 A 
ATOM     10  C   UNL     1       1.983   6.917  20.053  0.00  0.00    +0.000 A 
ATOM     11  C   UNL     1       3.194   6.491  19.487  0.00  0.00    +0.000 A 
ATOM     12  C   UNL     1       3.595   5.141  19.512  0.00  0.00    +0.000 A 
ENDROOT
BRANCH   1  17
ATOM     13  C   UNL     1       6.088   6.177  17.294  0.00  0.00    +0.000 A 
ATOM     14  C   UNL     1       7.275   6.893  17.311  0.00  0.00    +0.000 A 
ATOM     15  C   UNL     1       7.891   6.706  18.557  0.00  0.00    +0.000 A 
ATOM     16  C   UNL     1       7.089   5.848  19.262  0.00  0.00    +0.000 A 
ATOM     17  N   UNL     1       5.946   5.532  18.534  0.00  0.00    +0.000 N 
BRANCH  13  19
ATOM     18  C   UNL     1       5.371   5.051  15.136  0.00  0.00    +0.000 C 
ATOM     19  C   UNL     1       5.069   6.110  16.187  0.00  0.00    +0.000 C 
ENDBRANCH  13  19
ENDBRANCH   1  17
BRANCH  10  20
ATOM     20  C   UNL     1       1.656   8.315  20.076  0.00  0.00    +0.000 C 
ATOM     21  N   UNL     1       1.376   9.439  20.097  0.00  0.00    +0.000 NA
ENDBRANCH  10  20
TORSDOF 3
ENDMDL
MODEL 4
REMARK VINA RESULT:      -6.9      2.045      5.129
REMARK  Name = 
REMARK  6 active torsions:
REMARK  status: ('A' for Active; 'I' for Inactive)
REMARK    1  A    between atoms: C_1  and  C_2
REMARK    2  A    between atoms: C_2  and  C_3
REMARK    3  A    between atoms: N_7  and  C_8
REMARK    4  A    between atoms: C_10  and  C_11
REMARK    5  A    between atoms: C_10  and  C_12
REMARK    6  A    between atoms: C_17  and  C_18
REMARK                            x       y       z     vdW  Elec       q    Type
REMARK                         _______ _______ _______ _____ _____    ______ ____
ROOT
ATOM      1  C   UNL     1       2.517   6.212  19.293  0.00  0.00    +0.000 C 
ATOM      2  C   UNL     1       1.707   5.312  19.882  0.00  0.00    +0.000 C 
ATOM      3  C   UNL     1       2.019   3.864  20.136  0.00  0.00    +0.000 C 
ATOM      4  C   UNL     1       0.992   3.008  19.382  0.00  0.00    +0.000 C 
ATOM      5  C   UNL     1       1.923   3.577  21.640  0.00  0.00    +0.000 C 
ATOM      6  O   UNL     1       3.308   3.423  19.699  0.00  0.00    +0.000 OA
ATOM      7  C   UNL     1       4.141   4.318  19.094  0.00  0.00    +0.000 A 
ATOM      8  C   UNL     1       5.373   3.777  18.701  0.00  0.00    +0.000 A 
ATOM      9  C   UNL     1       6.340   4.576  18.097  0.00  0.00    +0.000 A 
ATOM     10  C   UNL     1       6.091   5.934  17.924  0.00  0.00    +0.000 A 
ATOM     11  C   UNL     1       4.869   6.477  18.349  0.00  0.00    +0.000 A 
ATOM     12  C   UNL     1       3.846   5.675  18.892  0.00  0.00    +0.000 A 
ENDROOT
BRANCH   1  17
ATOM     13  C   UNL     1       1.470   8.457  19.907  0.00  0.00    +0.000 A 
ATOM     14  C   UNL     1       1.192   9.617  19.199  0.00  0.00    +0.000 A 
ATOM     15  C   UNL     1       1.615   9.442  17.874  0.00  0.00    +0.000 A 
ATOM     16  C   UNL     1       2.107   8.167  17.787  0.00  0.00    +0.000 A 
ATOM     17  N   UNL     1       2.075   7.541  19.029  0.00  0.00    +0.000 N 
BRANCH  13  19
ATOM     18  C   UNL     1      -0.151   8.595  21.854  0.00  0.00    +0.000 C 
ATOM     19  C   UNL     1       1.235   8.192  21.371  0.00  0.00    +0.000 C 
ENDBRANCH  13  19
ENDBRANCH   1  17
BRANCH  10  20
ATOM     20  C   UNL     1       7.070   6.779  17.301  0.00  0.00    +0.000 C 
ATOM     21  N   UNL     1       7.852   7.475  16.802  0.00  0.00    +0.000 NA
ENDBRANCH  10  20
TORSDOF 3
ENDMDL
MODEL 5
REMARK VINA RESULT:      -6.6      2.430      5.918
REMARK  Name = 
REMARK  6 active torsions:
REMARK  status: ('A' for Active; 'I' for Inactive)
REMARK    1  A    between atoms: C_1  and  C_2
REMARK    2  A    between atoms: C_2  and  C_3
REMARK    3  A    between atoms: N_7  and  C_8
REMARK    4  A    between atoms: C_10  and  C_11
REMARK    5  A    between atoms: C_10  and  C_12
REMARK    6  A    between atoms: C_17  and  C_18
REMARK                            x       y       z     vdW  Elec       q    Type
REMARK                         _______ _______ _______ _____ _____    ______ ____
ROOT
ATOM      1  C   UNL     1       4.984   5.283  17.014  0.00  0.00    +0.000 C 
ATOM      2  C   UNL     1       5.800   5.900  17.889  0.00  0.00    +0.000 C 
ATOM      3  C   UNL     1       7.239   6.268  17.659  0.00  0.00    +0.000 C 
ATOM      4  C   UNL     1       8.098   5.535  18.697  0.00  0.00    +0.000 C 
ATOM      5  C   UNL     1       7.411   7.783  17.826  0.00  0.00    +0.000 C 
ATOM      6  O   UNL     1       7.771   5.917  16.377  0.00  0.00    +0.000 OA
ATOM      7  C   UNL     1       6.961   5.286  15.479  0.00  0.00    +0.000 A 
ATOM      8  C   UNL     1       7.586   4.983  14.262  0.00  0.00    +0.000 A 
ATOM      9  C   UNL     1       6.879   4.365  13.234  0.00  0.00    +0.000 A 
ATOM     10  C   UNL     1       5.527   4.086  13.409  0.00  0.00    +0.000 A 
ATOM     11  C   UNL     1       4.898   4.421  14.618  0.00  0.00    +0.000 A 
ATOM     12  C   UNL     1       5.610   4.976  15.699  0.00  0.00    +0.000 A 
ENDROOT
BRANCH   1  17
ATOM     13  C   UNL     1       3.133   3.619  17.577  0.00  0.00    +0.000 A 
ATOM     14  C   UNL     1       1.790   3.743  17.899  0.00  0.00    +0.000 A 
ATOM     15  C   UNL     1       1.458   5.105  17.905  0.00  0.00    +0.000 A 
ATOM     16  C   UNL     1       2.592   5.785  17.549  0.00  0.00    +0.000 A 
ATOM     17  N   UNL     1       3.658   4.908  17.379  0.00  0.00    +0.000 N 
BRANCH  13  19
ATOM     18  C   UNL     1       3.606   1.331  18.566  0.00  0.00    +0.000 C 
ATOM     19  C   UNL     1       3.947   2.354  17.492  0.00  0.00    +0.000 C 
ENDBRANCH  13  19
ENDBRANCH   1  17
BRANCH  10  20
ATOM     20  C   UNL     1       4.776   3.446  12.366  0.00  0.00    +0.000 C 
ATOM     21  N   UNL     1       4.168   2.945  11.515  0.00  0.00    +0.000 NA
ENDBRANCH  10  20
TORSDOF 3
ENDMDL
MODEL 6
REMARK VINA RESULT:      -6.3      1.145      1.307
REMARK  Name = 
REMARK  6 active torsions:
REMARK  status: ('A' for Active; 'I' for Inactive)
REMARK    1  A    between atoms: C_1  and  C_2
REMARK    2  A    between atoms: C_2  and  C_3
REMARK    3  A    between atoms: N_7  and  C_8
REMARK    4  A    between atoms: C_10  and  C_11
REMARK    5  A    between atoms: C_10  and  C_12
REMARK    6  A    between atoms: C_17  and  C_18
REMARK                            x       y       z     vdW  Elec       q    Type
REMARK                         _______ _______ _______ _____ _____    ______ ____
ROOT
ATOM      1  C   UNL     1       3.550   4.483  18.555  0.00  0.00    +0.000 C 
ATOM      2  C   UNL     1       3.242   3.351  19.217  0.00  0.00    +0.000 C 
ATOM      3  C   UNL     1       2.242   3.213  20.331  0.00  0.00    +0.000 C 
ATOM      4  C   UNL     1       2.977   2.723  21.584  0.00  0.00    +0.000 C 
ATOM      5  C   UNL     1       1.170   2.192  19.930  0.00  0.00    +0.000 C 
ATOM      6  O   UNL     1       1.565   4.417  20.707  0.00  0.00    +0.000 OA
ATOM      7  C   UNL     1       1.868   5.575  20.053  0.00  0.00    +0.000 A 
ATOM      8  C   UNL     1       1.151   6.691  20.507  0.00  0.00    +0.000 A 
ATOM      9  C   UNL     1       1.331   7.939  19.916  0.00  0.00    +0.000 A 
ATOM     10  C   UNL     1       2.200   8.064  18.837  0.00  0.00    +0.000 A 
ATOM     11  C   UNL     1       2.889   6.936  18.365  0.00  0.00    +0.000 A 
ATOM     12  C   UNL     1       2.783   5.680  18.995  0.00  0.00    +0.000 A 
ENDROOT
BRANCH   1  17
ATOM     13  C   UNL     1       5.915   4.932  17.708  0.00  0.00    +0.000 A 
ATOM     14  C   UNL     1       6.540   4.793  16.478  0.00  0.00    +0.000 A 
ATOM     15  C   UNL     1       5.612   4.282  15.561  0.00  0.00    +0.000 A 
ATOM     16  C   UNL     1       4.426   4.155  16.236  0.00  0.00    +0.000 A 
ATOM     17  N   UNL     1       4.582   4.506  17.573  0.00  0.00    +0.000 N 
BRANCH  13  19
ATOM     18  C   UNL     1       7.822   6.175  18.828  0.00  0.00    +0.000 C 
ATOM     19  C   UNL     1       6.523   5.402  19.004  0.00  0.00    +0.000 C 
ENDBRANCH  13  19
ENDBRANCH   1  17
BRANCH  10  20
ATOM     20  C   UNL     1       2.404   9.340  18.212  0.00  0.00    +0.000 C 
ATOM     21  N   UNL     1       2.567  10.363  17.692  0.00  0.00    +0.000 NA
ENDBRANCH  10  20
TORSDOF 3
ENDMDL
MODEL 7
REMARK VINA RESULT:      -6.2      2.189      4.866
REMARK  Name = 
REMARK  6 active torsions:
REMARK  status: ('A' for Active; 'I' for Inactive)
REMARK    1  A    between atoms: C_1  and  C_2
REMARK    2  A    between atoms: C_2  and  C_3
REMARK    3  A    between atoms: N_7  and  C_8
REMARK    4  A    between atoms: C_10  and  C_11
REMARK    5  A    between atoms: C_10  and  C_12
REMARK    6  A    between atoms: C_17  and  C_18
REMARK                            x       y       z     vdW  Elec       q    Type
REMARK                         _______ _______ _______ _____ _____    ______ ____
ROOT
ATOM      1  C   UNL     1       3.420   4.947  19.085  0.00  0.00    +0.000 C 
ATOM      2  C   UNL     1       4.441   4.448  18.363  0.00  0.00    +0.000 C 
ATOM      3  C   UNL     1       5.213   5.168  17.293  0.00  0.00    +0.000 C 
ATOM      4  C   UNL     1       5.040   4.404  15.974  0.00  0.00    +0.000 C 
ATOM      5  C   UNL     1       6.698   5.208  17.674  0.00  0.00    +0.000 C 
ATOM      6  O   UNL     1       4.802   6.514  17.034  0.00  0.00    +0.000 OA
ATOM      7  C   UNL     1       3.765   7.036  17.751  0.00  0.00    +0.000 A 
ATOM      8  C   UNL     1       3.444   8.358  17.410  0.00  0.00    +0.000 A 
ATOM      9  C   UNL     1       2.426   9.036  18.076  0.00  0.00    +0.000 A 
ATOM     10  C   UNL     1       1.755   8.404  19.118  0.00  0.00    +0.000 A 
ATOM     11  C   UNL     1       2.103   7.093  19.476  0.00  0.00    +0.000 A 
ATOM     12  C   UNL     1       3.075   6.360  18.768  0.00  0.00    +0.000 A 
ENDROOT
BRANCH   1  17
ATOM     13  C   UNL     1       1.714   3.174  19.763  0.00  0.00    +0.000 A 
ATOM     14  C   UNL     1       1.293   2.656  20.978  0.00  0.00    +0.000 A 
ATOM     15  C   UNL     1       2.012   3.285  22.003  0.00  0.00    +0.000 A 
ATOM     16  C   UNL     1       2.831   4.202  21.399  0.00  0.00    +0.000 A 
ATOM     17  N   UNL     1       2.707   4.136  20.016  0.00  0.00    +0.000 N 
BRANCH  13  19
ATOM     18  C   UNL     1       2.280   1.952  17.613  0.00  0.00    +0.000 C 
ATOM     19  C   UNL     1       1.258   2.775  18.383  0.00  0.00    +0.000 C 
ENDBRANCH  13  19
ENDBRANCH   1  17
BRANCH  10  20
ATOM     20  C   UNL     1       0.700   9.081  19.818  0.00  0.00    +0.000 C 
ATOM     21  N   UNL     1      -0.149   9.642  20.374  0.00  0.00    +0.000 NA
ENDBRANCH  10  20
TORSDOF 3
ENDMDL
MODEL 8
REMARK VINA RESULT:      -6.2      1.814      5.094
REMARK  Name = 
REMARK  6 active torsions:
REMARK  status: ('A' for Active; 'I' for Inactive)
REMARK    1  A    between atoms: C_1  and  C_2
REMARK    2  A    between atoms: C_2  and  C_3
REMARK    3  A    between atoms: N_7  and  C_8
REMARK    4  A    between atoms: C_10  and  C_11
REMARK    5  A    between atoms: C_10  and  C_12
REMARK    6  A    between atoms: C_17  and  C_18
REMARK                            x       y       z     vdW  Elec       q    Type
REMARK                         _______ _______ _______ _____ _____    ______ ____
ROOT
ATOM      1  C   UNL     1       2.408   5.908  19.132  0.00  0.00    +0.000 C 
ATOM      2  C   UNL     1       1.745   5.234  20.090  0.00  0.00    +0.000 C 
ATOM      3  C   UNL     1       1.829   3.758  20.363  0.00  0.00    +0.000 C 
ATOM      4  C   UNL     1       0.432   3.151  20.178  0.00  0.00    +0.000 C 
ATOM      5  C   UNL     1       2.302   3.532  21.805  0.00  0.00    +0.000 C 
ATOM      6  O   UNL     1       2.705   3.019  19.506  0.00  0.00    +0.000 OA
ATOM      7  C   UNL     1       3.381   3.683  18.525  0.00  0.00    +0.000 A 
ATOM      8  C   UNL     1       4.203   2.861  17.742  0.00  0.00    +0.000 A 
ATOM      9  C   UNL     1       4.979   3.400  16.718  0.00  0.00    +0.000 A 
ATOM     10  C   UNL     1       4.965   4.775  16.505  0.00  0.00    +0.000 A 
ATOM     11  C   UNL     1       4.165   5.597  17.313  0.00  0.00    +0.000 A 
ATOM     12  C   UNL     1       3.314   5.067  18.303  0.00  0.00    +0.000 A 
ENDROOT
BRANCH   1  17
ATOM     13  C   UNL     1       1.621   8.244  19.791  0.00  0.00    +0.000 A 
ATOM     14  C   UNL     1       1.575   9.466  19.137  0.00  0.00    +0.000 A 
ATOM     15  C   UNL     1       2.100   9.301  17.847  0.00  0.00    +0.000 A 
ATOM     16  C   UNL     1       2.420   7.975  17.723  0.00  0.00    +0.000 A 
ATOM     17  N   UNL     1       2.179   7.298  18.914  0.00  0.00    +0.000 N 
BRANCH  13  19
ATOM     18  C   UNL     1      -0.075   8.638  21.636  0.00  0.00    +0.000 C 
ATOM     19  C   UNL     1       1.208   7.941  21.208  0.00  0.00    +0.000 C 
ENDBRANCH  13  19
ENDBRANCH   1  17
BRANCH  10  20
ATOM     20  C   UNL     1       5.754   5.355  15.454  0.00  0.00    +0.000 C 
ATOM     21  N   UNL     1       6.402   5.810  14.607  0.00  0.00    +0.000 NA
ENDBRANCH  10  20
TORSDOF 3
ENDMDL
MODEL 9
REMARK VINA RESULT:      -6.0      4.742      7.722
REMARK  Name = 
REMARK  6 active torsions:
REMARK  status: ('A' for Active; 'I' for Inactive)
REMARK    1  A    between atoms: C_1  and  C_2
REMARK    2  A    between atoms: C_2  and  C_3
REMARK    3  A    between atoms: N_7  and  C_8
REMARK    4  A    between atoms: C_10  and  C_11
REMARK    5  A    between atoms: C_10  and  C_12
REMARK    6  A    between atoms: C_17  and  C_18
REMARK                            x       y       z     vdW  Elec       q    Type
REMARK                         _______ _______ _______ _____ _____    ______ ____
ROOT
ATOM      1  C   UNL     1       0.258  10.086  19.588  0.00  0.00    +0.000 C 
ATOM      2  C   UNL     1       0.411  10.589  20.828  0.00  0.00    +0.000 C 
ATOM      3  C   UNL     1      -0.516  11.547  21.522  0.00  0.00    +0.000 C 
ATOM      4  C   UNL     1       0.264  12.830  21.839  0.00  0.00    +0.000 C 
ATOM      5  C   UNL     1      -1.020  10.915  22.826  0.00  0.00    +0.000 C 
ATOM      6  O   UNL     1      -1.665  11.950  20.771  0.00  0.00    +0.000 OA
ATOM      7  C   UNL     1      -1.835  11.457  19.510  0.00  0.00    +0.000 A 
ATOM      8  C   UNL     1      -2.989  11.924  18.865  0.00  0.00    +0.000 A 
ATOM      9  C   UNL     1      -3.313  11.486  17.584  0.00  0.00    +0.000 A 
ATOM     10  C   UNL     1      -2.502  10.543  16.961  0.00  0.00    +0.000 A 
ATOM     11  C   UNL     1      -1.366  10.054  17.625  0.00  0.00    +0.000 A 
ATOM     12  C   UNL     1      -0.975  10.539  18.888  0.00  0.00    +0.000 A 
ENDROOT
BRANCH   1  17
ATOM     13  C   UNL     1       1.781   8.041  19.488  0.00  0.00    +0.000 A 
ATOM     14  C   UNL     1       2.742   7.598  18.593  0.00  0.00    +0.000 A 
ATOM     15  C   UNL     1       2.828   8.519  17.539  0.00  0.00    +0.000 A 
ATOM     16  C   UNL     1       1.948   9.528  17.831  0.00  0.00    +0.000 A 
ATOM     17  N   UNL     1       1.252   9.250  19.002  0.00  0.00    +0.000 N 
BRANCH  13  19
ATOM     18  C   UNL     1       1.587   5.864  20.776  0.00  0.00    +0.000 C 
ATOM     19  C   UNL     1       1.311   7.361  20.747  0.00  0.00    +0.000 C 
ENDBRANCH  13  19
ENDBRANCH   1  17
BRANCH  10  20
ATOM     20  C   UNL     1      -2.813  10.077  15.639  0.00  0.00    +0.000 C 
ATOM     21  N   UNL     1      -3.054   9.714  14.564  0.00  0.00    +0.000 NA
ENDBRANCH  10  20
TORSDOF 3
ENDMDL
