MODEL 1
REMARK VINA RESULT:      -8.8      0.000      0.000
REMARK  Name = 
REMARK  6 active torsions:
REMARK  status: ('A' for Active; 'I' for Inactive)
REMARK    1  A    between atoms: C_1  and  N_2
REMARK    2  A    between atoms: C_3  and  C_5
REMARK    3  A    between atoms: C_10  and  C_11
REMARK    4  A    between atoms: N_12  and  C_13
REMARK    5  A    between atoms: C_18  and  C_19
REMARK    6  A    between atoms: C_25  and  C_26
REMARK                            x       y       z     vdW  Elec       q    Type
REMARK                         _______ _______ _______ _____ _____    ______ ____
ROOT
ATOM      1  C   UNL     1       4.509   5.645  17.635  0.00  0.00    +0.000 A 
ATOM      2  C   UNL     1       4.511   4.405  18.300  0.00  0.00    +0.000 A 
ATOM      3  C   UNL     1       3.581   4.215  19.321  0.00  0.00    +0.000 A 
ATOM      4  C   UNL     1       2.689   5.201  19.722  0.00  0.00    +0.000 A 
ATOM      5  N   UNL     1       1.899   4.728  20.749  0.00  0.00    +0.000 NA
ATOM      6  C   UNL     1       2.287   3.492  20.982  0.00  0.00    +0.000 A 
ATOM      7  C   UNL     1       1.718   2.581  22.009  0.00  0.00    +0.000 C 
ATOM      8  N   UNL     1       3.307   3.138  20.132  0.00  0.00    +0.000 N 
ATOM      9  C   UNL     1       3.984   1.865  20.053  0.00  0.00    +0.000 C 
ATOM     10  C   UNL     1       2.710   6.463  19.081  0.00  0.00    +0.000 A 
ATOM     11  C   UNL     1       3.619   6.678  18.014  0.00  0.00    +0.000 A 
ATOM     12  C   UNL     1       3.631   8.018  17.320  0.00  0.00    +0.000 C 
ATOM     13  C   UNL     1       2.349   8.795  17.576  0.00  0.00    +0.000 C 
ATOM     14  C   UNL     1       2.046   8.758  19.071  0.00  0.00    +0.000 C 
ATOM     15  O   UNL     1       1.804   7.410  19.499  0.00  0.00    +0.000 OA
ENDROOT
BRANCH  14  16
ATOM     16  C   UNL     1       0.820   9.620  19.381  0.00  0.00    +0.000 A 
ATOM     17  C   UNL     1       0.046  10.125  18.316  0.00  0.00    +0.000 A 
ATOM     18  C   UNL     1      -1.078  10.920  18.547  0.00  0.00    +0.000 A 
ATOM     19  C   UNL     1      -1.441  11.234  19.851  0.00  0.00    +0.000 A 
ATOM     20 CL   UNL     1      -2.834  12.201  20.144  0.00  0.00    +0.000 Cl
ATOM     21  C   UNL     1      -0.686  10.763  20.922  0.00  0.00    +0.000 A 
ATOM     22  C   UNL     1       0.454   9.965  20.705  0.00  0.00    +0.000 A 
ATOM     23  C   UNL     1       1.201   9.457  21.908  0.00  0.00    +0.000 C 
ENDBRANCH  14  16
BRANCH   1  26
ATOM     24  C   UNL     1       6.331   4.932  14.393  0.00  0.00    +0.000 C 
ATOM     25  N   UNL     1       5.455   4.866  15.531  0.00  0.00    +0.000 N 
ATOM     26  C   UNL     1       5.507   5.816  16.532  0.00  0.00    +0.000 C 
ATOM     27  O   UNL     1       6.306   6.745  16.537  0.00  0.00    +0.000 OA
ATOM     28  H   UNL     1       4.659   4.246  15.480  0.00  0.00    +0.000 HD
ENDBRANCH   1  26
TORSDOF 2
ENDMDL
MODEL 2
REMARK VINA RESULT:      -7.8      1.153      1.224
REMARK  Name = 
REMARK  6 active torsions:
REMARK  status: ('A' for Active; 'I' for Inactive)
REMARK    1  A    between atoms: C_1  and  N_2
REMARK    2  A    between atoms: C_3  and  C_5
REMARK    3  A    between atoms: C_10  and  C_11
REMARK    4  A    between atoms: N_12  and  C_13
REMARK    5  A    between atoms: C_18  and  C_19
REMARK    6  A    between atoms: C_25  and  C_26
REMARK                            x       y       z     vdW  Elec       q    Type
REMARK                         _______ _______ _______ _____ _____    ______ ____
ROOT
ATOM      1  C   UNL     1       4.345   6.297  17.896  0.00  0.00    +0.000 A 
ATOM      2  C   UNL     1       4.342   5.034  18.519  0.00  0.00    +0.000 A 
ATOM      3  C   UNL     1       3.290   4.740  19.385  0.00  0.00    +0.000 A 
ATOM      4  C   UNL     1       2.279   5.646  19.678  0.00  0.00    +0.000 A 
ATOM      5  N   UNL     1       1.385   5.081  20.563  0.00  0.00    +0.000 NA
ATOM      6  C   UNL     1       1.825   3.866  20.816  0.00  0.00    +0.000 A 
ATOM      7  C   UNL     1       1.182   2.878  21.720  0.00  0.00    +0.000 C 
ATOM      8  N   UNL     1       2.982   3.617  20.115  0.00  0.00    +0.000 N 
ATOM      9  C   UNL     1       3.756   2.398  20.101  0.00  0.00    +0.000 C 
ATOM     10  C   UNL     1       2.300   6.931  19.083  0.00  0.00    +0.000 A 
ATOM     11  C   UNL     1       3.335   7.250  18.169  0.00  0.00    +0.000 A 
ATOM     12  C   UNL     1       3.349   8.613  17.523  0.00  0.00    +0.000 C 
ATOM     13  C   UNL     1       1.989   9.290  17.609  0.00  0.00    +0.000 C 
ATOM     14  C   UNL     1       1.476   9.174  19.041  0.00  0.00    +0.000 C 
ATOM     15  O   UNL     1       1.274   7.796  19.389  0.00  0.00    +0.000 OA
ENDROOT
BRANCH  14  16
ATOM     16  C   UNL     1       0.157   9.935  19.191  0.00  0.00    +0.000 A 
ATOM     17  C   UNL     1      -0.728  10.003  18.095  0.00  0.00    +0.000 A 
ATOM     18  C   UNL     1      -1.940  10.691  18.180  0.00  0.00    +0.000 A 
ATOM     19  C   UNL     1      -2.283  11.334  19.362  0.00  0.00    +0.000 A 
ATOM     20 CL   UNL     1      -3.782  12.171  19.480  0.00  0.00    +0.000 Cl
ATOM     21  C   UNL     1      -1.421  11.298  20.456  0.00  0.00    +0.000 A 
ATOM     22  C   UNL     1      -0.192  10.614  20.384  0.00  0.00    +0.000 A 
ATOM     23  C   UNL     1       0.673  10.582  21.615  0.00  0.00    +0.000 C 
ENDBRANCH  14  16
BRANCH   1  26
ATOM     24  C   UNL     1       7.814   7.316  16.768  0.00  0.00    +0.000 C 
ATOM     25  N   UNL     1       6.637   7.042  17.548  0.00  0.00    +0.000 N 
ATOM     26  C   UNL     1       5.478   6.579  16.958  0.00  0.00    +0.000 C 
ATOM     27  O   UNL     1       5.361   6.401  15.751  0.00  0.00    +0.000 OA
ATOM     28  H   UNL     1       6.737   6.982  18.552  0.00  0.00    +0.000 HD
ENDBRANCH   1  26
TORSDOF 2
ENDMDL
MODEL 3
REMARK VINA RESULT:      -7.5      0.648      1.406
REMARK  Name = 
REMARK  6 active torsions:
REMARK  status: ('A' for Active; 'I' for Inactive)
REMARK    1  A    between atoms: C_1  and  N_2
REMARK    2  A    between atoms: C_3  and  C_5
REMARK    3  A    between atoms: C_10  and  C_11
REMARK    4  A    between atoms: N_12  and  C_13
REMARK    5  A    between atoms: C_18  and  C_19
REMARK    6  A    between atoms: C_25  and  C_26
REMARK                            x       y       z     vdW  Elec       q    Type
REMARK                         _______ _______ _______ _____ _____    ______ ____
ROOT
ATOM      1  C   UNL     1       4.066   5.825  17.503  0.00  0.00    +0.000 A 
ATOM      2  C   UNL     1       4.035   4.539  18.075  0.00  0.00    +0.000 A 
ATOM      3  C   UNL     1       3.177   4.329  19.154  0.00  0.00    +0.000 A 
ATOM      4  C   UNL     1       2.389   5.335  19.698  0.00  0.00    +0.000 A 
ATOM      5  N   UNL     1       1.652   4.836  20.750  0.00  0.00    +0.000 NA
ATOM      6  C   UNL     1       1.971   3.564  20.861  0.00  0.00    +0.000 A 
ATOM      7  C   UNL     1       1.423   2.614  21.864  0.00  0.00    +0.000 C 
ATOM      8  N   UNL     1       2.894   3.213  19.905  0.00  0.00    +0.000 N 
ATOM      9  C   UNL     1       3.474   1.910  19.679  0.00  0.00    +0.000 C 
ATOM     10  C   UNL     1       2.446   6.640  19.148  0.00  0.00    +0.000 A 
ATOM     11  C   UNL     1       3.282   6.879  18.027  0.00  0.00    +0.000 A 
ATOM     12  C   UNL     1       3.331   8.264  17.433  0.00  0.00    +0.000 C 
ATOM     13  C   UNL     1       2.129   9.099  17.850  0.00  0.00    +0.000 C 
ATOM     14  C   UNL     1       1.943   8.966  19.358  0.00  0.00    +0.000 C 
ATOM     15  O   UNL     1       1.643   7.606  19.707  0.00  0.00    +0.000 OA
ENDROOT
BRANCH  14  16
ATOM     16  C   UNL     1       0.807   9.876  19.830  0.00  0.00    +0.000 A 
ATOM     17  C   UNL     1       0.863  10.432  21.125  0.00  0.00    +0.000 A 
ATOM     18  C   UNL     1      -0.151  11.263  21.604  0.00  0.00    +0.000 A 
ATOM     19  C   UNL     1      -1.248  11.543  20.799  0.00  0.00    +0.000 A 
ATOM     20 CL   UNL     1      -2.495  12.578  21.377  0.00  0.00    +0.000 Cl
ATOM     21  C   UNL     1      -1.339  10.994  19.522  0.00  0.00    +0.000 A 
ATOM     22  C   UNL     1      -0.327  10.150  19.027  0.00  0.00    +0.000 A 
ATOM     23  C   UNL     1      -0.469   9.623  17.624  0.00  0.00    +0.000 C 
ENDBRANCH  14  16
BRANCH   1  26
ATOM     24  C   UNL     1       6.127   4.920  14.457  0.00  0.00    +0.000 C 
ATOM     25  N   UNL     1       5.288   4.873  15.624  0.00  0.00    +0.000 N 
ATOM     26  C   UNL     1       4.984   6.017  16.335  0.00  0.00    +0.000 C 
ATOM     27  O   UNL     1       5.422   7.125  16.048  0.00  0.00    +0.000 OA
ATOM     28  H   UNL     1       4.750   4.033  15.786  0.00  0.00    +0.000 HD
ENDBRANCH   1  26
TORSDOF 2
ENDMDL
MODEL 4
REMARK VINA RESULT:      -7.2      4.284      8.763
REMARK  Name = 
REMARK  6 active torsions:
REMARK  status: ('A' for Active; 'I' for Inactive)
REMARK    1  A    between atoms: C_1  and  N_2
REMARK    2  A    between atoms: C_3  and  C_5
REMARK    3  A    between atoms: C_10  and  C_11
REMARK    4  A    between atoms: N_12  and  C_13
REMARK    5  A    between atoms: C_18  and  C_19
REMARK    6  A    between atoms: C_25  and  C_26
REMARK                            x       y       z     vdW  Elec       q    Type
REMARK                         _______ _______ _______ _____ _____    ______ ____
ROOT
ATOM      1  C   UNL     1      -1.845  11.874  20.422  0.00  0.00    +0.000 A 
ATOM      2  C   UNL     1      -2.781  12.114  19.398  0.00  0.00    +0.000 A 
ATOM      3  C   UNL     1      -2.744  11.284  18.278  0.00  0.00    +0.000 A 
ATOM      4  C   UNL     1      -1.812  10.267  18.123  0.00  0.00    +0.000 A 
ATOM      5  N   UNL     1      -2.018   9.621  16.922  0.00  0.00    +0.000 NA
ATOM      6  C   UNL     1      -3.041  10.218  16.346  0.00  0.00    +0.000 A 
ATOM      7  C   UNL     1      -3.626   9.861  15.028  0.00  0.00    +0.000 C 
ATOM      8  N   UNL     1      -3.515  11.234  17.141  0.00  0.00    +0.000 N 
ATOM      9  C   UNL     1      -4.637  12.104  16.877  0.00  0.00    +0.000 C 
ATOM     10  C   UNL     1      -0.845  10.047  19.134  0.00  0.00    +0.000 A 
ATOM     11  C   UNL     1      -0.876  10.849  20.303  0.00  0.00    +0.000 A 
ATOM     12  C   UNL     1       0.144  10.605  21.387  0.00  0.00    +0.000 C 
ATOM     13  C   UNL     1       0.780   9.229  21.261  0.00  0.00    +0.000 C 
ATOM     14  C   UNL     1       1.203   9.018  19.811  0.00  0.00    +0.000 C 
ATOM     15  O   UNL     1       0.054   9.023  18.949  0.00  0.00    +0.000 OA
ENDROOT
BRANCH  14  16
ATOM     16  C   UNL     1       1.943   7.687  19.666  0.00  0.00    +0.000 A 
ATOM     17  C   UNL     1       1.794   6.704  20.666  0.00  0.00    +0.000 A 
ATOM     18  C   UNL     1       2.453   5.476  20.583  0.00  0.00    +0.000 A 
ATOM     19  C   UNL     1       3.284   5.214  19.501  0.00  0.00    +0.000 A 
ATOM     20 CL   UNL     1       4.088   3.697  19.384  0.00  0.00    +0.000 Cl
ATOM     21  C   UNL     1       3.464   6.173  18.506  0.00  0.00    +0.000 A 
ATOM     22  C   UNL     1       2.810   7.418  18.579  0.00  0.00    +0.000 A 
ATOM     23  C   UNL     1       3.018   8.392  17.451  0.00  0.00    +0.000 C 
ENDBRANCH  14  16
BRANCH   1  26
ATOM     24  C   UNL     1      -2.992  13.157  23.795  0.00  0.00    +0.000 C 
ATOM     25  N   UNL     1      -2.845  12.407  22.577  0.00  0.00    +0.000 N 
ATOM     26  C   UNL     1      -1.918  12.769  21.620  0.00  0.00    +0.000 C 
ATOM     27  O   UNL     1      -1.193  13.752  21.722  0.00  0.00    +0.000 OA
ATOM     28  H   UNL     1      -3.269  11.491  22.531  0.00  0.00    +0.000 HD
ENDBRANCH   1  26
TORSDOF 2
ENDMDL
MODEL 5
REMARK VINA RESULT:      -7.1      4.349      8.713
REMARK  Name = 
REMARK  6 active torsions:
REMARK  status: ('A' for Active; 'I' for Inactive)
REMARK    1  A    between atoms: C_1  and  N_2
REMARK    2  A    between atoms: C_3  and  C_5
REMARK    3  A    between atoms: C_10  and  C_11
REMARK    4  A    between atoms: N_12  and  C_13
REMARK    5  A    between atoms: C_18  and  C_19
REMARK    6  A    between atoms: C_25  and  C_26
REMARK                            x       y       z     vdW  Elec       q    Type
REMARK                         _______ _______ _______ _____ _____    ______ ____
ROOT
ATOM      1  C   UNL     1      -1.902  11.904  20.100  0.00  0.00    +0.000 A 
ATOM      2  C   UNL     1      -2.936  12.094  19.164  0.00  0.00    +0.000 A 
ATOM      3  C   UNL     1      -2.901  11.334  17.995  0.00  0.00    +0.000 A 
ATOM      4  C   UNL     1      -1.882  10.436  17.710  0.00  0.00    +0.000 A 
ATOM      5  N   UNL     1      -2.113   9.836  16.489  0.00  0.00    +0.000 NA
ATOM      6  C   UNL     1      -3.236  10.346  16.028  0.00  0.00    +0.000 A 
ATOM      7  C   UNL     1      -3.883   9.998  14.737  0.00  0.00    +0.000 C 
ATOM      8  N   UNL     1      -3.751  11.260  16.917  0.00  0.00    +0.000 N 
ATOM      9  C   UNL     1      -4.976  12.014  16.790  0.00  0.00    +0.000 C 
ATOM     10  C   UNL     1      -0.820  10.270  18.632  0.00  0.00    +0.000 A 
ATOM     11  C   UNL     1      -0.842  11.000  19.847  0.00  0.00    +0.000 A 
ATOM     12  C   UNL     1       0.280  10.813  20.837  0.00  0.00    +0.000 C 
ATOM     13  C   UNL     1       1.047   9.524  20.580  0.00  0.00    +0.000 C 
ATOM     14  C   UNL     1       1.373   9.438  19.092  0.00  0.00    +0.000 C 
ATOM     15  O   UNL     1       0.165   9.362  18.319  0.00  0.00    +0.000 OA
ENDROOT
BRANCH  14  16
ATOM     16  C   UNL     1       2.236   8.206  18.812  0.00  0.00    +0.000 A 
ATOM     17  C   UNL     1       3.070   8.194  17.675  0.00  0.00    +0.000 A 
ATOM     18  C   UNL     1       3.871   7.091  17.372  0.00  0.00    +0.000 A 
ATOM     19  C   UNL     1       3.843   5.975  18.198  0.00  0.00    +0.000 A 
ATOM     20 CL   UNL     1       4.839   4.618  17.840  0.00  0.00    +0.000 Cl
ATOM     21  C   UNL     1       3.017   5.952  19.318  0.00  0.00    +0.000 A 
ATOM     22  C   UNL     1       2.198   7.054  19.633  0.00  0.00    +0.000 A 
ATOM     23  C   UNL     1       1.359   6.978  20.881  0.00  0.00    +0.000 C 
ENDBRANCH  14  16
BRANCH   1  26
ATOM     24  C   UNL     1      -2.948  12.898  23.601  0.00  0.00    +0.000 C 
ATOM     25  N   UNL     1      -2.814  12.232  22.333  0.00  0.00    +0.000 N 
ATOM     26  C   UNL     1      -1.974  12.721  21.353  0.00  0.00    +0.000 C 
ATOM     27  O   UNL     1      -1.320  13.750  21.477  0.00  0.00    +0.000 OA
ATOM     28  H   UNL     1      -3.171  11.291  22.253  0.00  0.00    +0.000 HD
ENDBRANCH   1  26
TORSDOF 2
ENDMDL
MODEL 6
REMARK VINA RESULT:      -7.1      3.542      7.673
REMARK  Name = 
REMARK  6 active torsions:
REMARK  status: ('A' for Active; 'I' for Inactive)
REMARK    1  A    between atoms: C_1  and  N_2
REMARK    2  A    between atoms: C_3  and  C_5
REMARK    3  A    between atoms: C_10  and  C_11
REMARK    4  A    between atoms: N_12  and  C_13
REMARK    5  A    between atoms: C_18  and  C_19
REMARK    6  A    between atoms: C_25  and  C_26
REMARK                            x       y       z     vdW  Elec       q    Type
REMARK                         _______ _______ _______ _____ _____    ______ ____
ROOT
ATOM      1  C   UNL     1       2.332   5.021  20.561  0.00  0.00    +0.000 A 
ATOM      2  C   UNL     1       1.671   6.238  20.812  0.00  0.00    +0.000 A 
ATOM      3  C   UNL     1       1.849   7.275  19.896  0.00  0.00    +0.000 A 
ATOM      4  C   UNL     1       2.670   7.163  18.781  0.00  0.00    +0.000 A 
ATOM      5  N   UNL     1       2.653   8.342  18.066  0.00  0.00    +0.000 NA
ATOM      6  C   UNL     1       1.852   9.162  18.715  0.00  0.00    +0.000 A 
ATOM      7  C   UNL     1       1.524  10.555  18.315  0.00  0.00    +0.000 C 
ATOM      8  N   UNL     1       1.339   8.550  19.833  0.00  0.00    +0.000 N 
ATOM      9  C   UNL     1       0.407   9.102  20.788  0.00  0.00    +0.000 C 
ATOM     10  C   UNL     1       3.366   5.952  18.546  0.00  0.00    +0.000 A 
ATOM     11  C   UNL     1       3.179   4.866  19.438  0.00  0.00    +0.000 A 
ATOM     12  C   UNL     1       3.909   3.571  19.180  0.00  0.00    +0.000 C 
ATOM     13  C   UNL     1       4.395   3.477  17.741  0.00  0.00    +0.000 C 
ATOM     14  C   UNL     1       5.090   4.784  17.374  0.00  0.00    +0.000 C 
ATOM     15  O   UNL     1       4.160   5.877  17.425  0.00  0.00    +0.000 OA
ENDROOT
BRANCH  14  16
ATOM     16  C   UNL     1       5.686   4.687  15.968  0.00  0.00    +0.000 A 
ATOM     17  C   UNL     1       5.089   3.825  15.025  0.00  0.00    +0.000 A 
ATOM     18  C   UNL     1       5.598   3.698  13.732  0.00  0.00    +0.000 A 
ATOM     19  C   UNL     1       6.724   4.423  13.362  0.00  0.00    +0.000 A 
ATOM     20 CL   UNL     1       7.349   4.282  11.764  0.00  0.00    +0.000 Cl
ATOM     21  C   UNL     1       7.344   5.269  14.277  0.00  0.00    +0.000 A 
ATOM     22  C   UNL     1       6.846   5.405  15.587  0.00  0.00    +0.000 A 
ATOM     23  C   UNL     1       7.541   6.366  16.513  0.00  0.00    +0.000 C 
ENDBRANCH  14  16
BRANCH   1  26
ATOM     24  C   UNL     1       0.810   1.902  22.076  0.00  0.00    +0.000 C 
ATOM     25  N   UNL     1       1.104   3.029  21.232  0.00  0.00    +0.000 N 
ATOM     26  C   UNL     1       2.108   3.921  21.551  0.00  0.00    +0.000 C 
ATOM     27  O   UNL     1       2.785   3.838  22.570  0.00  0.00    +0.000 OA
ATOM     28  H   UNL     1       0.719   3.033  20.298  0.00  0.00    +0.000 HD
ENDBRANCH   1  26
TORSDOF 2
ENDMDL
MODEL 7
REMARK VINA RESULT:      -7.1      5.428      9.704
REMARK  Name = 
REMARK  6 active torsions:
REMARK  status: ('A' for Active; 'I' for Inactive)
REMARK    1  A    between atoms: C_1  and  N_2
REMARK    2  A    between atoms: C_3  and  C_5
REMARK    3  A    between atoms: C_10  and  C_11
REMARK    4  A    between atoms: N_12  and  C_13
REMARK    5  A    between atoms: C_18  and  C_19
REMARK    6  A    between atoms: C_25  and  C_26
REMARK                            x       y       z     vdW  Elec       q    Type
REMARK                         _______ _______ _______ _____ _____    ______ ____
ROOT
ATOM      1  C   UNL     1      -1.415  14.189  20.209  0.00  0.00    +0.000 A 
ATOM      2  C   UNL     1      -0.788  15.395  19.844  0.00  0.00    +0.000 A 
ATOM      3  C   UNL     1       0.482  15.319  19.272  0.00  0.00    +0.000 A 
ATOM      4  C   UNL     1       1.154  14.118  19.085  0.00  0.00    +0.000 A 
ATOM      5  N   UNL     1       2.383  14.354  18.506  0.00  0.00    +0.000 NA
ATOM      6  C   UNL     1       2.475  15.657  18.341  0.00  0.00    +0.000 A 
ATOM      7  C   UNL     1       3.631  16.379  17.749  0.00  0.00    +0.000 C 
ATOM      8  N   UNL     1       1.337  16.282  18.791  0.00  0.00    +0.000 N 
ATOM      9  C   UNL     1       1.040  17.694  18.762  0.00  0.00    +0.000 C 
ATOM     10  C   UNL     1       0.541  12.906  19.487  0.00  0.00    +0.000 A 
ATOM     11  C   UNL     1      -0.765  12.944  20.038  0.00  0.00    +0.000 A 
ATOM     12  C   UNL     1      -1.424  11.652  20.452  0.00  0.00    +0.000 C 
ATOM     13  C   UNL     1      -0.761  10.448  19.800  0.00  0.00    +0.000 C 
ATOM     14  C   UNL     1       0.750  10.574  19.965  0.00  0.00    +0.000 C 
ATOM     15  O   UNL     1       1.234  11.736  19.275  0.00  0.00    +0.000 OA
ENDROOT
BRANCH  14  16
ATOM     16  C   UNL     1       1.446   9.328  19.413  0.00  0.00    +0.000 A 
ATOM     17  C   UNL     1       1.894   9.324  18.076  0.00  0.00    +0.000 A 
ATOM     18  C   UNL     1       2.529   8.210  17.524  0.00  0.00    +0.000 A 
ATOM     19  C   UNL     1       2.717   7.073  18.299  0.00  0.00    +0.000 A 
ATOM     20 CL   UNL     1       3.512   5.701  17.630  0.00  0.00    +0.000 Cl
ATOM     21  C   UNL     1       2.270   7.041  19.617  0.00  0.00    +0.000 A 
ATOM     22  C   UNL     1       1.623   8.155  20.186  0.00  0.00    +0.000 A 
ATOM     23  C   UNL     1       1.201   8.067  21.628  0.00  0.00    +0.000 C 
ENDBRANCH  14  16
BRANCH   1  26
ATOM     24  C   UNL     1      -5.181  13.877  20.464  0.00  0.00    +0.000 C 
ATOM     25  N   UNL     1      -3.819  13.863  20.001  0.00  0.00    +0.000 N 
ATOM     26  C   UNL     1      -2.785  14.300  20.805  0.00  0.00    +0.000 C 
ATOM     27  O   UNL     1      -2.952  14.750  21.933  0.00  0.00    +0.000 OA
ATOM     28  H   UNL     1      -3.607  13.327  19.171  0.00  0.00    +0.000 HD
ENDBRANCH   1  26
TORSDOF 2
ENDMDL
MODEL 8
REMARK VINA RESULT:      -7.0      4.456      7.584
REMARK  Name = 
REMARK  6 active torsions:
REMARK  status: ('A' for Active; 'I' for Inactive)
REMARK    1  A    between atoms: C_1  and  N_2
REMARK    2  A    between atoms: C_3  and  C_5
REMARK    3  A    between atoms: C_10  and  C_11
REMARK    4  A    between atoms: N_12  and  C_13
REMARK    5  A    between atoms: C_18  and  C_19
REMARK    6  A    between atoms: C_25  and  C_26
REMARK                            x       y       z     vdW  Elec       q    Type
REMARK                         _______ _______ _______ _____ _____    ______ ____
ROOT
ATOM      1  C   UNL     1       0.001  10.237  18.457  0.00  0.00    +0.000 A 
ATOM      2  C   UNL     1      -0.986  10.021  17.477  0.00  0.00    +0.000 A 
ATOM      3  C   UNL     1      -2.212  10.667  17.637  0.00  0.00    +0.000 A 
ATOM      4  C   UNL     1      -2.502  11.475  18.728  0.00  0.00    +0.000 A 
ATOM      5  N   UNL     1      -3.783  11.972  18.617  0.00  0.00    +0.000 NA
ATOM      6  C   UNL     1      -4.276  11.488  17.496  0.00  0.00    +0.000 A 
ATOM      7  C   UNL     1      -5.636  11.752  16.959  0.00  0.00    +0.000 C 
ATOM      8  N   UNL     1      -3.350  10.691  16.867  0.00  0.00    +0.000 N 
ATOM      9  C   UNL     1      -3.497  10.000  15.607  0.00  0.00    +0.000 C 
ATOM     10  C   UNL     1      -1.524  11.664  19.735  0.00  0.00    +0.000 A 
ATOM     11  C   UNL     1      -0.254  11.051  19.586  0.00  0.00    +0.000 A 
ATOM     12  C   UNL     1       0.793  11.263  20.651  0.00  0.00    +0.000 C 
ATOM     13  C   UNL     1       0.479  12.477  21.514  0.00  0.00    +0.000 C 
ATOM     14  C   UNL     1      -0.984  12.406  21.942  0.00  0.00    +0.000 C 
ATOM     15  O   UNL     1      -1.844  12.480  20.795  0.00  0.00    +0.000 OA
ENDROOT
BRANCH  14  16
ATOM     16  C   UNL     1      -1.309  13.555  22.898  0.00  0.00    +0.000 A 
ATOM     17  C   UNL     1      -0.454  14.675  22.946  0.00  0.00    +0.000 A 
ATOM     18  C   UNL     1      -0.704  15.746  23.805  0.00  0.00    +0.000 A 
ATOM     19  C   UNL     1      -1.811  15.709  24.644  0.00  0.00    +0.000 A 
ATOM     20 CL   UNL     1      -2.134  17.032  25.696  0.00  0.00    +0.000 Cl
ATOM     21  C   UNL     1      -2.664  14.609  24.631  0.00  0.00    +0.000 A 
ATOM     22  C   UNL     1      -2.422  13.518  23.774  0.00  0.00    +0.000 A 
ATOM     23  C   UNL     1      -3.405  12.379  23.783  0.00  0.00    +0.000 C 
ENDBRANCH  14  16
BRANCH   1  26
ATOM     24  C   UNL     1       2.639   7.534  18.736  0.00  0.00    +0.000 C 
ATOM     25  N   UNL     1       1.445   8.324  18.882  0.00  0.00    +0.000 N 
ATOM     26  C   UNL     1       1.312   9.544  18.251  0.00  0.00    +0.000 C 
ATOM     27  O   UNL     1       2.193  10.047  17.562  0.00  0.00    +0.000 OA
ATOM     28  H   UNL     1       0.626   7.876  19.268  0.00  0.00    +0.000 HD
ENDBRANCH   1  26
TORSDOF 2
ENDMDL
MODEL 9
REMARK VINA RESULT:      -6.9      1.552      1.682
REMARK  Name = 
REMARK  6 active torsions:
REMARK  status: ('A' for Active; 'I' for Inactive)
REMARK    1  A    between atoms: C_1  and  N_2
REMARK    2  A    between atoms: C_3  and  C_5
REMARK    3  A    between atoms: C_10  and  C_11
REMARK    4  A    between atoms: N_12  and  C_13
REMARK    5  A    between atoms: C_18  and  C_19
REMARK    6  A    between atoms: C_25  and  C_26
REMARK                            x       y       z     vdW  Elec       q    Type
REMARK                         _______ _______ _______ _____ _____    ______ ____
ROOT
ATOM      1  C   UNL     1       4.678   6.104  17.398  0.00  0.00    +0.000 A 
ATOM      2  C   UNL     1       4.491   4.719  17.564  0.00  0.00    +0.000 A 
ATOM      3  C   UNL     1       3.257   4.283  18.048  0.00  0.00    +0.000 A 
ATOM      4  C   UNL     1       2.235   5.155  18.398  0.00  0.00    +0.000 A 
ATOM      5  N   UNL     1       1.142   4.441  18.844  0.00  0.00    +0.000 NA
ATOM      6  C   UNL     1       1.474   3.168  18.777  0.00  0.00    +0.000 A 
ATOM      7  C   UNL     1       0.607   2.023  19.157  0.00  0.00    +0.000 C 
ATOM      8  N   UNL     1       2.753   3.028  18.294  0.00  0.00    +0.000 N 
ATOM      9  C   UNL     1       3.470   1.799  18.050  0.00  0.00    +0.000 C 
ATOM     10  C   UNL     1       2.433   6.551  18.268  0.00  0.00    +0.000 A 
ATOM     11  C   UNL     1       3.663   7.027  17.745  0.00  0.00    +0.000 A 
ATOM     12  C   UNL     1       3.868   8.513  17.593  0.00  0.00    +0.000 C 
ATOM     13  C   UNL     1       2.548   9.268  17.604  0.00  0.00    +0.000 C 
ATOM     14  C   UNL     1       1.712   8.771  18.780  0.00  0.00    +0.000 C 
ATOM     15  O   UNL     1       1.392   7.382  18.614  0.00  0.00    +0.000 OA
ENDROOT
BRANCH  14  16
ATOM     16  C   UNL     1       0.419   9.582  18.887  0.00  0.00    +0.000 A 
ATOM     17  C   UNL     1      -0.419   9.695  17.758  0.00  0.00    +0.000 A 
ATOM     18  C   UNL     1      -1.606  10.429  17.804  0.00  0.00    +0.000 A 
ATOM     19  C   UNL     1      -1.970  11.074  18.979  0.00  0.00    +0.000 A 
ATOM     20 CL   UNL     1      -3.439  11.968  19.047  0.00  0.00    +0.000 Cl
ATOM     21  C   UNL     1      -1.154  10.994  20.104  0.00  0.00    +0.000 A 
ATOM     22  C   UNL     1       0.049  10.263  20.073  0.00  0.00    +0.000 A 
ATOM     23  C   UNL     1       0.863  10.185  21.336  0.00  0.00    +0.000 C 
ENDBRANCH  14  16
BRANCH   1  26
ATOM     24  C   UNL     1       8.094   7.736  17.356  0.00  0.00    +0.000 C 
ATOM     25  N   UNL     1       6.781   7.285  17.729  0.00  0.00    +0.000 N 
ATOM     26  C   UNL     1       6.006   6.541  16.862  0.00  0.00    +0.000 C 
ATOM     27  O   UNL     1       6.359   6.246  15.726  0.00  0.00    +0.000 OA
ATOM     28  H   UNL     1       6.525   7.329  18.706  0.00  0.00    +0.000 HD
ENDBRANCH   1  26
TORSDOF 2
ENDMDL
