MODEL 1
REMARK VINA RESULT:      -8.0      0.000      0.000
REMARK  Name = 
REMARK  6 active torsions:
REMARK  status: ('A' for Active; 'I' for Inactive)
REMARK    1  A    between atoms: C_1  and  O_2
REMARK    2  A    between atoms: O_2  and  C_3
REMARK    3  A    between atoms: C_6  and  C_7
REMARK    4  A    between atoms: C_9  and  N_10
REMARK    5  A    between atoms: C_11  and  C_13
REMARK    6  A    between atoms: C_13  and  N_14
REMARK                            x       y       z     vdW  Elec       q    Type
REMARK                         _______ _______ _______ _____ _____    ______ ____
ROOT
ATOM      1  N   UNL     1       0.494  10.754  22.145  0.00  0.00    +0.000 N 
ATOM      2  N   UNL     1       0.861  11.923  21.535  0.00  0.00    +0.000 NA
ATOM      3  C   UNL     1      -0.108  12.736  21.829  0.00  0.00    +0.000 A 
ATOM      4  C   UNL     1      -0.163  14.207  21.461  0.00  0.00    +0.000 A 
ATOM      5  N   UNL     1       0.927  14.810  20.832  0.00  0.00    +0.000 N 
ATOM      6  C   UNL     1       2.321  14.363  20.975  0.00  0.00    +0.000 C 
ATOM      7  C   UNL     1       2.927  13.935  19.646  0.00  0.00    +0.000 C 
ATOM      8  S   UNL     1       3.011  15.357  18.505  0.00  0.00    +0.000 S 
ATOM      9  C   UNL     1       1.269  15.904  18.652  0.00  0.00    +0.000 C 
ATOM     10  C   UNL     1       0.794  16.073  20.102  0.00  0.00    +0.000 C 
ATOM     11  N   UNL     1      -1.248  14.876  21.750  0.00  0.00    +0.000 NA
ATOM     12  C   UNL     1      -2.318  14.245  22.428  0.00  0.00    +0.000 A 
ATOM     13  C   UNL     1      -3.465  14.993  22.695  0.00  0.00    +0.000 A 
ATOM     14  C   UNL     1      -4.563  14.412  23.335  0.00  0.00    +0.000 A 
ATOM     15  C   UNL     1      -4.519  13.075  23.727  0.00  0.00    +0.000 A 
ATOM     16  C   UNL     1      -3.372  12.318  23.493  0.00  0.00    +0.000 A 
ATOM     17  C   UNL     1      -2.277  12.900  22.846  0.00  0.00    +0.000 A 
ATOM     18  N   UNL     1      -1.121  12.193  22.537  0.00  0.00    +0.000 N 
ATOM     19  C   UNL     1      -0.740  10.902  22.806  0.00  0.00    +0.000 A 
ATOM     20  O   UNL     1      -1.294  10.049  23.483  0.00  0.00    +0.000 OA
ENDROOT
BRANCH   1  21
ATOM     21  C   UNL     1       1.375   9.618  22.199  0.00  0.00    +0.000 C 
BRANCH  21  23
ATOM     22  N   UNL     1       2.055   7.562  20.981  0.00  0.00    +0.000 N 
ATOM     23  C   UNL     1       1.078   8.534  21.157  0.00  0.00    +0.000 C 
ATOM     24  O   UNL     1       0.026   8.614  20.519  0.00  0.00    +0.000 OA
ATOM     25  H   UNL     1       2.947   7.737  21.436  0.00  0.00    +0.000 HD
BRANCH  22  32
ATOM     26  C   UNL     1       2.450   6.594  18.752  0.00  0.00    +0.000 A 
ATOM     27  C   UNL     1       2.331   5.510  17.867  0.00  0.00    +0.000 A 
ATOM     28  C   UNL     1       1.825   4.288  18.301  0.00  0.00    +0.000 A 
ATOM     29  C   UNL     1       1.451   4.121  19.630  0.00  0.00    +0.000 A 
ATOM     30  C   UNL     1       0.947   2.804  20.135  0.00  0.00    +0.000 C 
ATOM     31  C   UNL     1       1.550   5.206  20.509  0.00  0.00    +0.000 A 
ATOM     32  C   UNL     1       2.016   6.456  20.089  0.00  0.00    +0.000 A 
BRANCH  26  34
ATOM     33  C   UNL     1       2.101   8.695  17.668  0.00  0.00    +0.000 C 
ATOM     34  O   UNL     1       2.982   7.810  18.371  0.00  0.00    +0.000 OA
ENDBRANCH  26  34
ENDBRANCH  22  32
ENDBRANCH  21  23
ENDBRANCH   1  21
TORSDOF 4
ENDMDL
MODEL 2
REMARK VINA RESULT:      -7.9      2.990      3.436
REMARK  Name = 
REMARK  6 active torsions:
REMARK  status: ('A' for Active; 'I' for Inactive)
REMARK    1  A    between atoms: C_1  and  O_2
REMARK    2  A    between atoms: O_2  and  C_3
REMARK    3  A    between atoms: C_6  and  C_7
REMARK    4  A    between atoms: C_9  and  N_10
REMARK    5  A    between atoms: C_11  and  C_13
REMARK    6  A    between atoms: C_13  and  N_14
REMARK                            x       y       z     vdW  Elec       q    Type
REMARK                         _______ _______ _______ _____ _____    ______ ____
ROOT
ATOM      1  N   UNL     1      -0.281  10.531  21.214  0.00  0.00    +0.000 N 
ATOM      2  N   UNL     1      -1.030  10.685  20.080  0.00  0.00    +0.000 NA
ATOM      3  C   UNL     1      -2.000  11.461  20.461  0.00  0.00    +0.000 A 
ATOM      4  C   UNL     1      -3.087  12.015  19.560  0.00  0.00    +0.000 A 
ATOM      5  N   UNL     1      -3.041  11.779  18.185  0.00  0.00    +0.000 N 
ATOM      6  C   UNL     1      -1.806  11.544  17.423  0.00  0.00    +0.000 C 
ATOM      7  C   UNL     1      -1.793  10.174  16.757  0.00  0.00    +0.000 C 
ATOM      8  S   UNL     1      -3.129  10.063  15.519  0.00  0.00    +0.000 S 
ATOM      9  C   UNL     1      -4.511  10.616  16.587  0.00  0.00    +0.000 C 
ATOM     10  C   UNL     1      -4.228  11.925  17.337  0.00  0.00    +0.000 C 
ATOM     11  N   UNL     1      -4.049  12.710  20.107  0.00  0.00    +0.000 NA
ATOM     12  C   UNL     1      -4.042  12.969  21.498  0.00  0.00    +0.000 A 
ATOM     13  C   UNL     1      -5.102  13.696  22.042  0.00  0.00    +0.000 A 
ATOM     14  C   UNL     1      -5.161  13.954  23.414  0.00  0.00    +0.000 A 
ATOM     15  C   UNL     1      -4.149  13.497  24.256  0.00  0.00    +0.000 A 
ATOM     16  C   UNL     1      -3.068  12.791  23.730  0.00  0.00    +0.000 A 
ATOM     17  C   UNL     1      -3.015  12.528  22.357  0.00  0.00    +0.000 A 
ATOM     18  N   UNL     1      -1.994  11.790  21.770  0.00  0.00    +0.000 N 
ATOM     19  C   UNL     1      -0.851  11.237  22.290  0.00  0.00    +0.000 A 
ATOM     20  O   UNL     1      -0.379  11.331  23.413  0.00  0.00    +0.000 OA
ENDROOT
BRANCH   1  21
ATOM     21  C   UNL     1       0.992   9.858  21.196  0.00  0.00    +0.000 C 
BRANCH  21  23
ATOM     22  N   UNL     1       1.982   7.763  20.300  0.00  0.00    +0.000 N 
ATOM     23  C   UNL     1       0.907   8.346  20.961  0.00  0.00    +0.000 C 
ATOM     24  O   UNL     1      -0.111   7.757  21.329  0.00  0.00    +0.000 OA
ATOM     25  H   UNL     1       2.654   8.404  19.888  0.00  0.00    +0.000 HD
BRANCH  22  32
ATOM     26  C   UNL     1       2.692   6.010  18.725  0.00  0.00    +0.000 A 
ATOM     27  C   UNL     1       2.773   4.649  18.389  0.00  0.00    +0.000 A 
ATOM     28  C   UNL     1       2.357   3.667  19.284  0.00  0.00    +0.000 A 
ATOM     29  C   UNL     1       1.873   4.026  20.537  0.00  0.00    +0.000 A 
ATOM     30  C   UNL     1       1.462   2.990  21.537  0.00  0.00    +0.000 C 
ATOM     31  C   UNL     1       1.772   5.383  20.866  0.00  0.00    +0.000 A 
ATOM     32  C   UNL     1       2.145   6.391  19.970  0.00  0.00    +0.000 A 
BRANCH  26  34
ATOM     33  C   UNL     1       4.299   6.721  17.105  0.00  0.00    +0.000 C 
ATOM     34  O   UNL     1       3.130   7.011  17.882  0.00  0.00    +0.000 OA
ENDBRANCH  26  34
ENDBRANCH  22  32
ENDBRANCH  21  23
ENDBRANCH   1  21
TORSDOF 4
ENDMDL
MODEL 3
REMARK VINA RESULT:      -7.9      3.335      4.904
REMARK  Name = 
REMARK  6 active torsions:
REMARK  status: ('A' for Active; 'I' for Inactive)
REMARK    1  A    between atoms: C_1  and  O_2
REMARK    2  A    between atoms: O_2  and  C_3
REMARK    3  A    between atoms: C_6  and  C_7
REMARK    4  A    between atoms: C_9  and  N_10
REMARK    5  A    between atoms: C_11  and  C_13
REMARK    6  A    between atoms: C_13  and  N_14
REMARK                            x       y       z     vdW  Elec       q    Type
REMARK                         _______ _______ _______ _____ _____    ______ ____
ROOT
ATOM      1  N   UNL     1      -1.396  13.044  19.348  0.00  0.00    +0.000 N 
ATOM      2  N   UNL     1      -1.701  13.405  20.632  0.00  0.00    +0.000 NA
ATOM      3  C   UNL     1      -2.918  12.980  20.786  0.00  0.00    +0.000 A 
ATOM      4  C   UNL     1      -3.718  13.055  22.073  0.00  0.00    +0.000 A 
ATOM      5  N   UNL     1      -3.120  13.529  23.241  0.00  0.00    +0.000 N 
ATOM      6  C   UNL     1      -1.680  13.445  23.530  0.00  0.00    +0.000 C 
ATOM      7  C   UNL     1      -1.048  14.818  23.708  0.00  0.00    +0.000 C 
ATOM      8  S   UNL     1      -1.764  15.658  25.162  0.00  0.00    +0.000 S 
ATOM      9  C   UNL     1      -3.532  15.446  24.732  0.00  0.00    +0.000 C 
ATOM     10  C   UNL     1      -3.914  14.002  24.378  0.00  0.00    +0.000 C 
ATOM     11  N   UNL     1      -4.966  12.665  22.049  0.00  0.00    +0.000 NA
ATOM     12  C   UNL     1      -5.530  12.148  20.859  0.00  0.00    +0.000 A 
ATOM     13  C   UNL     1      -6.872  11.766  20.874  0.00  0.00    +0.000 A 
ATOM     14  C   UNL     1      -7.488  11.276  19.719  0.00  0.00    +0.000 A 
ATOM     15  C   UNL     1      -6.761  11.152  18.537  0.00  0.00    +0.000 A 
ATOM     16  C   UNL     1      -5.412  11.503  18.507  0.00  0.00    +0.000 A 
ATOM     17  C   UNL     1      -4.800  11.999  19.663  0.00  0.00    +0.000 A 
ATOM     18  N   UNL     1      -3.474  12.414  19.694  0.00  0.00    +0.000 N 
ATOM     19  C   UNL     1      -2.487  12.394  18.740  0.00  0.00    +0.000 A 
ATOM     20  O   UNL     1      -2.495  11.910  17.619  0.00  0.00    +0.000 OA
ENDROOT
BRANCH   1  21
ATOM     21  C   UNL     1      -0.069  13.192  18.813  0.00  0.00    +0.000 C 
BRANCH  21  23
ATOM     22  N   UNL     1       0.341  10.751  19.025  0.00  0.00    +0.000 N 
ATOM     23  C   UNL     1       0.877  12.028  19.130  0.00  0.00    +0.000 C 
ATOM     24  O   UNL     1       2.025  12.295  19.494  0.00  0.00    +0.000 OA
ATOM     25  H   UNL     1      -0.667  10.697  18.905  0.00  0.00    +0.000 HD
BRANCH  22  32
ATOM     26  C   UNL     1       0.842   8.828  20.479  0.00  0.00    +0.000 A 
ATOM     27  C   UNL     1       1.570   7.651  20.717  0.00  0.00    +0.000 A 
ATOM     28  C   UNL     1       2.425   7.133  19.748  0.00  0.00    +0.000 A 
ATOM     29  C   UNL     1       2.551   7.769  18.518  0.00  0.00    +0.000 A 
ATOM     30  C   UNL     1       3.427   7.209  17.440  0.00  0.00    +0.000 C 
ATOM     31  C   UNL     1       1.842   8.954  18.286  0.00  0.00    +0.000 A 
ATOM     32  C   UNL     1       1.008   9.517  19.257  0.00  0.00    +0.000 A 
BRANCH  26  34
ATOM     33  C   UNL     1       0.377   9.335  22.767  0.00  0.00    +0.000 C 
ATOM     34  O   UNL     1      -0.044   9.353  21.398  0.00  0.00    +0.000 OA
ENDBRANCH  26  34
ENDBRANCH  22  32
ENDBRANCH  21  23
ENDBRANCH   1  21
TORSDOF 4
ENDMDL
MODEL 4
REMARK VINA RESULT:      -7.9      3.385      4.507
REMARK  Name = 
REMARK  6 active torsions:
REMARK  status: ('A' for Active; 'I' for Inactive)
REMARK    1  A    between atoms: C_1  and  O_2
REMARK    2  A    between atoms: O_2  and  C_3
REMARK    3  A    between atoms: C_6  and  C_7
REMARK    4  A    between atoms: C_9  and  N_10
REMARK    5  A    between atoms: C_11  and  C_13
REMARK    6  A    between atoms: C_13  and  N_14
REMARK                            x       y       z     vdW  Elec       q    Type
REMARK                         _______ _______ _______ _____ _____    ______ ____
ROOT
ATOM      1  N   UNL     1       0.244  10.475  19.956  0.00  0.00    +0.000 N 
ATOM      2  N   UNL     1      -0.611  11.292  20.644  0.00  0.00    +0.000 NA
ATOM      3  C   UNL     1      -1.632  11.401  19.848  0.00  0.00    +0.000 A 
ATOM      4  C   UNL     1      -2.916  12.144  20.164  0.00  0.00    +0.000 A 
ATOM      5  N   UNL     1      -3.108  12.700  21.429  0.00  0.00    +0.000 N 
ATOM      6  C   UNL     1      -2.484  12.195  22.662  0.00  0.00    +0.000 C 
ATOM      7  C   UNL     1      -1.586  13.234  23.320  0.00  0.00    +0.000 C 
ATOM      8  S   UNL     1      -2.574  14.672  23.855  0.00  0.00    +0.000 S 
ATOM      9  C   UNL     1      -3.437  14.992  22.272  0.00  0.00    +0.000 C 
ATOM     10  C   UNL     1      -4.104  13.747  21.669  0.00  0.00    +0.000 C 
ATOM     11  N   UNL     1      -3.820  12.242  19.225  0.00  0.00    +0.000 NA
ATOM     12  C   UNL     1      -3.614  11.628  17.967  0.00  0.00    +0.000 A 
ATOM     13  C   UNL     1      -4.597  11.778  16.988  0.00  0.00    +0.000 A 
ATOM     14  C   UNL     1      -4.431  11.219  15.718  0.00  0.00    +0.000 A 
ATOM     15  C   UNL     1      -3.282  10.490  15.419  0.00  0.00    +0.000 A 
ATOM     16  C   UNL     1      -2.300  10.306  16.391  0.00  0.00    +0.000 A 
ATOM     17  C   UNL     1      -2.465  10.873  17.659  0.00  0.00    +0.000 A 
ATOM     18  N   UNL     1      -1.507  10.771  18.660  0.00  0.00    +0.000 N 
ATOM     19  C   UNL     1      -0.305  10.110  18.712  0.00  0.00    +0.000 A 
ATOM     20  O   UNL     1       0.201   9.346  17.905  0.00  0.00    +0.000 OA
ENDROOT
BRANCH   1  21
ATOM     21  C   UNL     1       1.451   9.967  20.552  0.00  0.00    +0.000 C 
BRANCH  21  23
ATOM     22  N   UNL     1       2.213   7.780  19.650  0.00  0.00    +0.000 N 
ATOM     23  C   UNL     1       1.514   8.438  20.655  0.00  0.00    +0.000 C 
ATOM     24  O   UNL     1       0.914   7.893  21.584  0.00  0.00    +0.000 OA
ATOM     25  H   UNL     1       2.486   8.346  18.851  0.00  0.00    +0.000 HD
BRANCH  22  32
ATOM     26  C   UNL     1       3.195   5.861  18.463  0.00  0.00    +0.000 A 
ATOM     27  C   UNL     1       3.324   4.471  18.312  0.00  0.00    +0.000 A 
ATOM     28  C   UNL     1       2.728   3.597  19.218  0.00  0.00    +0.000 A 
ATOM     29  C   UNL     1       2.013   4.097  20.300  0.00  0.00    +0.000 A 
ATOM     30  C   UNL     1       1.401   3.182  21.315  0.00  0.00    +0.000 C 
ATOM     31  C   UNL     1       1.866   5.482  20.441  0.00  0.00    +0.000 A 
ATOM     32  C   UNL     1       2.420   6.380  19.523  0.00  0.00    +0.000 A 
BRANCH  26  34
ATOM     33  C   UNL     1       4.793   6.225  16.723  0.00  0.00    +0.000 C 
ATOM     34  O   UNL     1       3.802   6.760  17.610  0.00  0.00    +0.000 OA
ENDBRANCH  26  34
ENDBRANCH  22  32
ENDBRANCH  21  23
ENDBRANCH   1  21
TORSDOF 4
ENDMDL
MODEL 5
REMARK VINA RESULT:      -7.6      1.680      2.301
REMARK  Name = 
REMARK  6 active torsions:
REMARK  status: ('A' for Active; 'I' for Inactive)
REMARK    1  A    between atoms: C_1  and  O_2
REMARK    2  A    between atoms: O_2  and  C_3
REMARK    3  A    between atoms: C_6  and  C_7
REMARK    4  A    between atoms: C_9  and  N_10
REMARK    5  A    between atoms: C_11  and  C_13
REMARK    6  A    between atoms: C_13  and  N_14
REMARK                            x       y       z     vdW  Elec       q    Type
REMARK                         _______ _______ _______ _____ _____    ______ ____
ROOT
ATOM      1  N   UNL     1      -1.139  11.531  22.812  0.00  0.00    +0.000 N 
ATOM      2  N   UNL     1      -0.359  12.415  22.117  0.00  0.00    +0.000 NA
ATOM      3  C   UNL     1      -1.065  13.505  22.113  0.00  0.00    +0.000 A 
ATOM      4  C   UNL     1      -0.623  14.835  21.534  0.00  0.00    +0.000 A 
ATOM      5  N   UNL     1       0.670  14.983  21.032  0.00  0.00    +0.000 N 
ATOM      6  C   UNL     1       1.832  14.204  21.486  0.00  0.00    +0.000 C 
ATOM      7  C   UNL     1       2.447  13.381  20.363  0.00  0.00    +0.000 C 
ATOM      8  S   UNL     1       3.106  14.481  19.064  0.00  0.00    +0.000 S 
ATOM      9  C   UNL     1       1.608  15.505  18.815  0.00  0.00    +0.000 C 
ATOM     10  C   UNL     1       1.023  16.072  20.116  0.00  0.00    +0.000 C 
ATOM     11  N   UNL     1      -1.482  15.821  21.524  0.00  0.00    +0.000 NA
ATOM     12  C   UNL     1      -2.772  15.651  22.082  0.00  0.00    +0.000 A 
ATOM     13  C   UNL     1      -3.663  16.723  22.028  0.00  0.00    +0.000 A 
ATOM     14  C   UNL     1      -4.958  16.601  22.536  0.00  0.00    +0.000 A 
ATOM     15  C   UNL     1      -5.373  15.404  23.117  0.00  0.00    +0.000 A 
ATOM     16  C   UNL     1      -4.489  14.329  23.204  0.00  0.00    +0.000 A 
ATOM     17  C   UNL     1      -3.195  14.452  22.688  0.00  0.00    +0.000 A 
ATOM     18  N   UNL     1      -2.278  13.408  22.697  0.00  0.00    +0.000 N 
ATOM     19  C   UNL     1      -2.345  12.137  23.212  0.00  0.00    +0.000 A 
ATOM     20  O   UNL     1      -3.214  11.615  23.893  0.00  0.00    +0.000 OA
ENDROOT
BRANCH   1  21
ATOM     21  C   UNL     1      -0.658  10.227  23.186  0.00  0.00    +0.000 C 
BRANCH  21  23
ATOM     22  N   UNL     1       0.170   9.317  21.027  0.00  0.00    +0.000 N 
ATOM     23  C   UNL     1       0.495   9.704  22.322  0.00  0.00    +0.000 C 
ATOM     24  O   UNL     1       1.613   9.620  22.835  0.00  0.00    +0.000 OA
ATOM     25  H   UNL     1      -0.822   9.262  20.813  0.00  0.00    +0.000 HD
BRANCH  22  32
ATOM     26  C   UNL     1       1.235   9.498  18.816  0.00  0.00    +0.000 A 
ATOM     27  C   UNL     1       2.052   8.940  17.819  0.00  0.00    +0.000 A 
ATOM     28  C   UNL     1       2.714   7.735  18.032  0.00  0.00    +0.000 A 
ATOM     29  C   UNL     1       2.590   7.077  19.251  0.00  0.00    +0.000 A 
ATOM     30  C   UNL     1       3.327   5.802  19.524  0.00  0.00    +0.000 C 
ATOM     31  C   UNL     1       1.760   7.621  20.238  0.00  0.00    +0.000 A 
ATOM     32  C   UNL     1       1.052   8.810  20.036  0.00  0.00    +0.000 A 
BRANCH  26  34
ATOM     33  C   UNL     1      -0.752  10.656  18.168  0.00  0.00    +0.000 C 
ATOM     34  O   UNL     1       0.593  10.710  18.659  0.00  0.00    +0.000 OA
ENDBRANCH  26  34
ENDBRANCH  22  32
ENDBRANCH  21  23
ENDBRANCH   1  21
TORSDOF 4
ENDMDL
MODEL 6
REMARK VINA RESULT:      -7.6      3.417      4.609
REMARK  Name = 
REMARK  6 active torsions:
REMARK  status: ('A' for Active; 'I' for Inactive)
REMARK    1  A    between atoms: C_1  and  O_2
REMARK    2  A    between atoms: O_2  and  C_3
REMARK    3  A    between atoms: C_6  and  C_7
REMARK    4  A    between atoms: C_9  and  N_10
REMARK    5  A    between atoms: C_11  and  C_13
REMARK    6  A    between atoms: C_13  and  N_14
REMARK                            x       y       z     vdW  Elec       q    Type
REMARK                         _______ _______ _______ _____ _____    ______ ____
ROOT
ATOM      1  N   UNL     1       0.638   9.985  19.456  0.00  0.00    +0.000 N 
ATOM      2  N   UNL     1      -0.118  10.857  20.191  0.00  0.00    +0.000 NA
ATOM      3  C   UNL     1      -1.183  11.021  19.465  0.00  0.00    +0.000 A 
ATOM      4  C   UNL     1      -2.396  11.842  19.859  0.00  0.00    +0.000 A 
ATOM      5  N   UNL     1      -2.468  12.417  21.129  0.00  0.00    +0.000 N 
ATOM      6  C   UNL     1      -1.793  11.883  22.321  0.00  0.00    +0.000 C 
ATOM      7  C   UNL     1      -0.793  12.871  22.906  0.00  0.00    +0.000 C 
ATOM      8  S   UNL     1      -1.655  14.369  23.493  0.00  0.00    +0.000 S 
ATOM      9  C   UNL     1      -2.603  14.729  21.967  0.00  0.00    +0.000 C 
ATOM     10  C   UNL     1      -3.382  13.523  21.424  0.00  0.00    +0.000 C 
ATOM     11  N   UNL     1      -3.355  11.988  18.982  0.00  0.00    +0.000 NA
ATOM     12  C   UNL     1      -3.272  11.355  17.720  0.00  0.00    +0.000 A 
ATOM     13  C   UNL     1      -4.308  11.558  16.808  0.00  0.00    +0.000 A 
ATOM     14  C   UNL     1      -4.262  10.981  15.536  0.00  0.00    +0.000 A 
ATOM     15  C   UNL     1      -3.181  10.183  15.167  0.00  0.00    +0.000 A 
ATOM     16  C   UNL     1      -2.148   9.946  16.073  0.00  0.00    +0.000 A 
ATOM     17  C   UNL     1      -2.193  10.530  17.343  0.00  0.00    +0.000 A 
ATOM     18  N   UNL     1      -1.176  10.378  18.278  0.00  0.00    +0.000 N 
ATOM     19  C   UNL     1      -0.015   9.646  18.256  0.00  0.00    +0.000 A 
ATOM     20  O   UNL     1       0.389   8.848  17.424  0.00  0.00    +0.000 OA
ENDROOT
BRANCH   1  21
ATOM     21  C   UNL     1       1.850   9.410  19.975  0.00  0.00    +0.000 C 
BRANCH  21  23
ATOM     22  N   UNL     1       2.489   7.338  18.761  0.00  0.00    +0.000 N 
ATOM     23  C   UNL     1       1.908   7.879  19.901  0.00  0.00    +0.000 C 
ATOM     24  O   UNL     1       1.406   7.234  20.824  0.00  0.00    +0.000 OA
ATOM     25  H   UNL     1       2.680   7.988  18.004  0.00  0.00    +0.000 HD
BRANCH  22  32
ATOM     26  C   UNL     1       3.831   5.514  17.795  0.00  0.00    +0.000 A 
ATOM     27  C   UNL     1       3.952   4.162  17.438  0.00  0.00    +0.000 A 
ATOM     28  C   UNL     1       2.957   3.246  17.766  0.00  0.00    +0.000 A 
ATOM     29  C   UNL     1       1.834   3.661  18.474  0.00  0.00    +0.000 A 
ATOM     30  C   UNL     1       0.769   2.689  18.880  0.00  0.00    +0.000 C 
ATOM     31  C   UNL     1       1.701   5.013  18.812  0.00  0.00    +0.000 A 
ATOM     32  C   UNL     1       2.667   5.961  18.460  0.00  0.00    +0.000 A 
BRANCH  26  34
ATOM     33  C   UNL     1       5.129   6.648  16.139  0.00  0.00    +0.000 C 
ATOM     34  O   UNL     1       4.812   6.446  17.522  0.00  0.00    +0.000 OA
ENDBRANCH  26  34
ENDBRANCH  22  32
ENDBRANCH  21  23
ENDBRANCH   1  21
TORSDOF 4
ENDMDL
MODEL 7
REMARK VINA RESULT:      -7.6      1.065      2.021
REMARK  Name = 
REMARK  6 active torsions:
REMARK  status: ('A' for Active; 'I' for Inactive)
REMARK    1  A    between atoms: C_1  and  O_2
REMARK    2  A    between atoms: O_2  and  C_3
REMARK    3  A    between atoms: C_6  and  C_7
REMARK    4  A    between atoms: C_9  and  N_10
REMARK    5  A    between atoms: C_11  and  C_13
REMARK    6  A    between atoms: C_13  and  N_14
REMARK                            x       y       z     vdW  Elec       q    Type
REMARK                         _______ _______ _______ _____ _____    ______ ____
ROOT
ATOM      1  N   UNL     1       0.504  10.401  22.039  0.00  0.00    +0.000 N 
ATOM      2  N   UNL     1       0.912  11.551  21.419  0.00  0.00    +0.000 NA
ATOM      3  C   UNL     1      -0.011  12.409  21.734  0.00  0.00    +0.000 A 
ATOM      4  C   UNL     1      -0.005  13.880  21.365  0.00  0.00    +0.000 A 
ATOM      5  N   UNL     1       1.098  14.431  20.710  0.00  0.00    +0.000 N 
ATOM      6  C   UNL     1       2.472  13.919  20.823  0.00  0.00    +0.000 C 
ATOM      7  C   UNL     1       3.028  13.462  19.481  0.00  0.00    +0.000 C 
ATOM      8  S   UNL     1       3.153  14.878  18.336  0.00  0.00    +0.000 S 
ATOM      9  C   UNL     1       1.442  15.506  18.521  0.00  0.00    +0.000 C 
ATOM     10  C   UNL     1       1.008  15.699  19.981  0.00  0.00    +0.000 C 
ATOM     11  N   UNL     1      -1.050  14.600  21.676  0.00  0.00    +0.000 NA
ATOM     12  C   UNL     1      -2.133  14.021  22.379  0.00  0.00    +0.000 A 
ATOM     13  C   UNL     1      -3.238  14.822  22.670  0.00  0.00    +0.000 A 
ATOM     14  C   UNL     1      -4.347  14.294  23.335  0.00  0.00    +0.000 A 
ATOM     15  C   UNL     1      -4.357  12.957  23.728  0.00  0.00    +0.000 A 
ATOM     16  C   UNL     1      -3.253  12.146  23.470  0.00  0.00    +0.000 A 
ATOM     17  C   UNL     1      -2.146  12.676  22.798  0.00  0.00    +0.000 A 
ATOM     18  N   UNL     1      -1.032  11.915  22.465  0.00  0.00    +0.000 N 
ATOM     19  C   UNL     1      -0.706  10.607  22.727  0.00  0.00    +0.000 A 
ATOM     20  O   UNL     1      -1.285   9.782  23.417  0.00  0.00    +0.000 OA
ENDROOT
BRANCH   1  21
ATOM     21  C   UNL     1       1.332   9.225  22.075  0.00  0.00    +0.000 C 
BRANCH  21  23
ATOM     22  N   UNL     1       2.263   7.364  20.718  0.00  0.00    +0.000 N 
ATOM     23  C   UNL     1       1.497   8.523  20.722  0.00  0.00    +0.000 C 
ATOM     24  O   UNL     1       0.983   9.045  19.731  0.00  0.00    +0.000 OA
ATOM     25  H   UNL     1       2.780   7.166  21.570  0.00  0.00    +0.000 HD
BRANCH  22  32
ATOM     26  C   UNL     1       2.010   5.234  19.510  0.00  0.00    +0.000 A 
ATOM     27  C   UNL     1       2.375   4.402  18.439  0.00  0.00    +0.000 A 
ATOM     28  C   UNL     1       3.239   4.854  17.446  0.00  0.00    +0.000 A 
ATOM     29  C   UNL     1       3.737   6.151  17.494  0.00  0.00    +0.000 A 
ATOM     30  C   UNL     1       4.632   6.680  16.416  0.00  0.00    +0.000 C 
ATOM     31  C   UNL     1       3.391   6.976  18.572  0.00  0.00    +0.000 A 
ATOM     32  C   UNL     1       2.557   6.533  19.603  0.00  0.00    +0.000 A 
BRANCH  26  34
ATOM     33  C   UNL     1       1.161   3.451  20.855  0.00  0.00    +0.000 C 
ATOM     34  O   UNL     1       1.126   4.837  20.493  0.00  0.00    +0.000 OA
ENDBRANCH  26  34
ENDBRANCH  22  32
ENDBRANCH  21  23
ENDBRANCH   1  21
TORSDOF 4
ENDMDL
MODEL 8
REMARK VINA RESULT:      -7.5      2.866      4.247
REMARK  Name = 
REMARK  6 active torsions:
REMARK  status: ('A' for Active; 'I' for Inactive)
REMARK    1  A    between atoms: C_1  and  O_2
REMARK    2  A    between atoms: O_2  and  C_3
REMARK    3  A    between atoms: C_6  and  C_7
REMARK    4  A    between atoms: C_9  and  N_10
REMARK    5  A    between atoms: C_11  and  C_13
REMARK    6  A    between atoms: C_13  and  N_14
REMARK                            x       y       z     vdW  Elec       q    Type
REMARK                         _______ _______ _______ _____ _____    ______ ____
ROOT
ATOM      1  N   UNL     1      -2.769  12.397  18.978  0.00  0.00    +0.000 N 
ATOM      2  N   UNL     1      -2.206  13.097  20.009  0.00  0.00    +0.000 NA
ATOM      3  C   UNL     1      -3.148  13.130  20.904  0.00  0.00    +0.000 A 
ATOM      4  C   UNL     1      -3.019  13.726  22.292  0.00  0.00    +0.000 A 
ATOM      5  N   UNL     1      -1.788  14.215  22.732  0.00  0.00    +0.000 N 
ATOM      6  C   UNL     1      -0.484  13.732  22.252  0.00  0.00    +0.000 C 
ATOM      7  C   UNL     1       0.325  14.833  21.580  0.00  0.00    +0.000 C 
ATOM      8  S   UNL     1       0.729  16.143  22.785  0.00  0.00    +0.000 S 
ATOM      9  C   UNL     1      -0.962  16.429  23.427  0.00  0.00    +0.000 C 
ATOM     10  C   UNL     1      -1.685  15.145  23.859  0.00  0.00    +0.000 C 
ATOM     11  N   UNL     1      -4.084  13.765  23.049  0.00  0.00    +0.000 NA
ATOM     12  C   UNL     1      -5.307  13.220  22.591  0.00  0.00    +0.000 A 
ATOM     13  C   UNL     1      -6.423  13.304  23.424  0.00  0.00    +0.000 A 
ATOM     14  C   UNL     1      -7.663  12.810  23.009  0.00  0.00    +0.000 A 
ATOM     15  C   UNL     1      -7.795  12.213  21.757  0.00  0.00    +0.000 A 
ATOM     16  C   UNL     1      -6.687  12.096  20.920  0.00  0.00    +0.000 A 
ATOM     17  C   UNL     1      -5.449  12.598  21.335  0.00  0.00    +0.000 A 
ATOM     18  N   UNL     1      -4.314  12.559  20.534  0.00  0.00    +0.000 N 
ATOM     19  C   UNL     1      -4.090  12.022  19.290  0.00  0.00    +0.000 A 
ATOM     20  O   UNL     1      -4.824  11.343  18.589  0.00  0.00    +0.000 OA
ENDROOT
BRANCH   1  21
ATOM     21  C   UNL     1      -2.003  11.993  17.828  0.00  0.00    +0.000 C 
BRANCH  21  23
ATOM     22  N   UNL     1      -0.207  10.649  18.896  0.00  0.00    +0.000 N 
ATOM     23  C   UNL     1      -1.264  10.660  17.994  0.00  0.00    +0.000 C 
ATOM     24  O   UNL     1      -1.621   9.708  17.297  0.00  0.00    +0.000 OA
ATOM     25  H   UNL     1       0.090  11.555  19.248  0.00  0.00    +0.000 HD
BRANCH  22  32
ATOM     26  C   UNL     1       0.590   8.987  20.528  0.00  0.00    +0.000 A 
ATOM     27  C   UNL     1       1.474   7.948  20.860  0.00  0.00    +0.000 A 
ATOM     28  C   UNL     1       2.358   7.434  19.916  0.00  0.00    +0.000 A 
ATOM     29  C   UNL     1       2.360   7.935  18.619  0.00  0.00    +0.000 A 
ATOM     30  C   UNL     1       3.268   7.371  17.570  0.00  0.00    +0.000 C 
ATOM     31  C   UNL     1       1.494   8.985  18.290  0.00  0.00    +0.000 A 
ATOM     32  C   UNL     1       0.624   9.546  19.231  0.00  0.00    +0.000 A 
BRANCH  26  34
ATOM     33  C   UNL     1      -0.160   9.113  22.793  0.00  0.00    +0.000 C 
ATOM     34  O   UNL     1      -0.329   9.497  21.423  0.00  0.00    +0.000 OA
ENDBRANCH  26  34
ENDBRANCH  22  32
ENDBRANCH  21  23
ENDBRANCH   1  21
TORSDOF 4
ENDMDL
MODEL 9
REMARK VINA RESULT:      -7.4      3.080      3.564
REMARK  Name = 
REMARK  6 active torsions:
REMARK  status: ('A' for Active; 'I' for Inactive)
REMARK    1  A    between atoms: C_1  and  O_2
REMARK    2  A    between atoms: O_2  and  C_3
REMARK    3  A    between atoms: C_6  and  C_7
REMARK    4  A    between atoms: C_9  and  N_10
REMARK    5  A    between atoms: C_11  and  C_13
REMARK    6  A    between atoms: C_13  and  N_14
REMARK                            x       y       z     vdW  Elec       q    Type
REMARK                         _______ _______ _______ _____ _____    ______ ____
ROOT
ATOM      1  N   UNL     1       0.093  11.025  18.492  0.00  0.00    +0.000 N 
ATOM      2  N   UNL     1      -0.024  12.028  19.415  0.00  0.00    +0.000 NA
ATOM      3  C   UNL     1      -1.308  12.174  19.544  0.00  0.00    +0.000 A 
ATOM      4  C   UNL     1      -1.992  13.116  20.517  0.00  0.00    +0.000 A 
ATOM      5  N   UNL     1      -1.232  13.845  21.433  0.00  0.00    +0.000 N 
ATOM      6  C   UNL     1       0.074  13.416  21.957  0.00  0.00    +0.000 C 
ATOM      7  C   UNL     1       1.184  14.398  21.608  0.00  0.00    +0.000 C 
ATOM      8  S   UNL     1       0.872  16.011  22.404  0.00  0.00    +0.000 S 
ATOM      9  C   UNL     1      -0.853  16.246  21.834  0.00  0.00    +0.000 C 
ATOM     10  C   UNL     1      -1.762  15.037  22.099  0.00  0.00    +0.000 C 
ATOM     11  N   UNL     1      -3.294  13.218  20.467  0.00  0.00    +0.000 NA
ATOM     12  C   UNL     1      -4.038  12.432  19.556  0.00  0.00    +0.000 A 
ATOM     13  C   UNL     1      -5.424  12.591  19.523  0.00  0.00    +0.000 A 
ATOM     14  C   UNL     1      -6.205  11.862  18.622  0.00  0.00    +0.000 A 
ATOM     15  C   UNL     1      -5.605  10.954  17.751  0.00  0.00    +0.000 A 
ATOM     16  C   UNL     1      -4.225  10.761  17.786  0.00  0.00    +0.000 A 
ATOM     17  C   UNL     1      -3.445  11.497  18.685  0.00  0.00    +0.000 A 
ATOM     18  N   UNL     1      -2.061  11.392  18.741  0.00  0.00    +0.000 N 
ATOM     19  C   UNL     1      -1.176  10.586  18.068  0.00  0.00    +0.000 A 
ATOM     20  O   UNL     1      -1.392   9.668  17.292  0.00  0.00    +0.000 OA
ENDROOT
BRANCH   1  21
ATOM     21  C   UNL     1       1.365  10.437  18.168  0.00  0.00    +0.000 C 
BRANCH  21  23
ATOM     22  N   UNL     1       2.275   8.125  18.115  0.00  0.00    +0.000 N 
ATOM     23  C   UNL     1       1.647   9.106  18.874  0.00  0.00    +0.000 C 
ATOM     24  O   UNL     1       1.268   8.975  20.040  0.00  0.00    +0.000 OA
ATOM     25  H   UNL     1       2.351   8.311  17.119  0.00  0.00    +0.000 HD
BRANCH  22  32
ATOM     26  C   UNL     1       3.872   6.252  18.118  0.00  0.00    +0.000 A 
ATOM     27  C   UNL     1       4.186   4.933  18.483  0.00  0.00    +0.000 A 
ATOM     28  C   UNL     1       3.325   4.191  19.287  0.00  0.00    +0.000 A 
ATOM     29  C   UNL     1       2.147   4.761  19.757  0.00  0.00    +0.000 A 
ATOM     30  C   UNL     1       1.224   4.003  20.661  0.00  0.00    +0.000 C 
ATOM     31  C   UNL     1       1.821   6.068  19.377  0.00  0.00    +0.000 A 
ATOM     32  C   UNL     1       2.649   6.821  18.537  0.00  0.00    +0.000 A 
BRANCH  26  34
ATOM     33  C   UNL     1       5.149   6.470  16.110  0.00  0.00    +0.000 C 
ATOM     34  O   UNL     1       4.716   7.033  17.355  0.00  0.00    +0.000 OA
ENDBRANCH  26  34
ENDBRANCH  22  32
ENDBRANCH  21  23
ENDBRANCH   1  21
TORSDOF 4
ENDMDL
