MODEL 1
REMARK VINA RESULT:      -8.7      0.000      0.000
REMARK  Name = 
REMARK  5 active torsions:
REMARK  status: ('A' for Active; 'I' for Inactive)
REMARK    1  A    between atoms: C_1  and  O_2
REMARK    2  A    between atoms: O_2  and  C_3
REMARK    3  A    between atoms: C_9  and  S_10
REMARK    4  A    between atoms: S_10  and  N_13
REMARK    5  A    between atoms: C_15  and  C_16
REMARK                            x       y       z     vdW  Elec       q    Type
REMARK                         _______ _______ _______ _____ _____    ______ ____
ROOT
ATOM      1  N   UNL     1       4.655   4.163  17.544  0.00  0.00    +0.000 N 
ATOM      2  C   UNL     1       4.807   3.908  16.205  0.00  0.00    +0.000 A 
ATOM      3  C   UNL     1       5.992   4.486  15.792  0.00  0.00    +0.000 A 
ATOM      4  C   UNL     1       6.587   5.080  16.959  0.00  0.00    +0.000 A 
ATOM      5  C   UNL     1       7.759   5.836  17.178  0.00  0.00    +0.000 A 
ATOM      6  C   UNL     1       8.087   6.261  18.469  0.00  0.00    +0.000 A 
ATOM      7  C   UNL     1       7.287   5.911  19.551  0.00  0.00    +0.000 A 
ATOM      8  C   UNL     1       6.118   5.168  19.370  0.00  0.00    +0.000 A 
ATOM      9  C   UNL     1       5.763   4.796  18.061  0.00  0.00    +0.000 A 
ENDROOT
BRANCH   3  10
ATOM     10  C   UNL     1       6.469   4.446  14.410  0.00  0.00    +0.000 A 
ATOM     11  C   UNL     1       5.961   3.538  13.506  0.00  0.00    +0.000 A 
ATOM     12  C   UNL     1       6.474   3.612  12.235  0.00  0.00    +0.000 A 
ATOM     13  N   UNL     1       7.417   4.492  11.869  0.00  0.00    +0.000 NA
ATOM     14  C   UNL     1       7.848   5.330  12.814  0.00  0.00    +0.000 A 
ATOM     15  N   UNL     1       8.839   6.221  12.457  0.00  0.00    +0.000 N 
ATOM     16  N   UNL     1       7.421   5.343  14.079  0.00  0.00    +0.000 NA
ATOM     17  H   UNL     1       9.327   5.862  11.647  0.00  0.00    +0.000 HD
ATOM     18  H   UNL     1       9.400   6.444  13.267  0.00  0.00    +0.000 HD
ENDBRANCH   3  10
BRANCH   1  19
ATOM     19  S   UNL     1       3.309   3.635  18.432  0.00  0.00    +0.000 S 
ATOM     20  O   UNL     1       3.877   2.757  19.443  0.00  0.00    +0.000 OA
ATOM     21  O   UNL     1       2.344   3.149  17.467  0.00  0.00    +0.000 OA
BRANCH  19  28
ATOM     22  C   UNL     1       2.094   4.955  20.581  0.00  0.00    +0.000 A 
ATOM     23  C   UNL     1       1.566   6.126  21.148  0.00  0.00    +0.000 A 
ATOM     24  C   UNL     1       1.491   7.315  20.414  0.00  0.00    +0.000 A 
ATOM     25  C   UNL     1       1.965   7.351  19.109  0.00  0.00    +0.000 A 
ATOM     26 BR   UNL     1       1.879   8.956  18.120  0.00  0.00    +0.000 Br
ATOM     27  C   UNL     1       2.510   6.210  18.533  0.00  0.00    +0.000 A 
ATOM     28  C   UNL     1       2.572   5.011  19.267  0.00  0.00    +0.000 A 
BRANCH  22  30
ATOM     29  C   UNL     1       1.067   2.922  21.238  0.00  0.00    +0.000 C 
ATOM     30  O   UNL     1       2.207   3.783  21.276  0.00  0.00    +0.000 OA
ENDBRANCH  22  30
ENDBRANCH  19  28
ENDBRANCH   1  19
TORSDOF 4
ENDMDL
MODEL 2
REMARK VINA RESULT:      -8.4      0.779      1.316
REMARK  Name = 
REMARK  5 active torsions:
REMARK  status: ('A' for Active; 'I' for Inactive)
REMARK    1  A    between atoms: C_1  and  O_2
REMARK    2  A    between atoms: O_2  and  C_3
REMARK    3  A    between atoms: C_9  and  S_10
REMARK    4  A    between atoms: S_10  and  N_13
REMARK    5  A    between atoms: C_15  and  C_16
REMARK                            x       y       z     vdW  Elec       q    Type
REMARK                         _______ _______ _______ _____ _____    ______ ____
ROOT
ATOM      1  N   UNL     1       4.519   4.087  17.408  0.00  0.00    +0.000 N 
ATOM      2  C   UNL     1       4.691   3.820  16.074  0.00  0.00    +0.000 A 
ATOM      3  C   UNL     1       5.899   4.366  15.683  0.00  0.00    +0.000 A 
ATOM      4  C   UNL     1       6.484   4.953  16.859  0.00  0.00    +0.000 A 
ATOM      5  C   UNL     1       7.670   5.681  17.098  0.00  0.00    +0.000 A 
ATOM      6  C   UNL     1       7.982   6.105  18.393  0.00  0.00    +0.000 A 
ATOM      7  C   UNL     1       7.151   5.783  19.459  0.00  0.00    +0.000 A 
ATOM      8  C   UNL     1       5.968   5.067  19.259  0.00  0.00    +0.000 A 
ATOM      9  C   UNL     1       5.631   4.696  17.945  0.00  0.00    +0.000 A 
ENDROOT
BRANCH   3  10
ATOM     10  C   UNL     1       6.404   4.305  14.312  0.00  0.00    +0.000 A 
ATOM     11  C   UNL     1       7.296   5.242  13.837  0.00  0.00    +0.000 A 
ATOM     12  C   UNL     1       7.712   5.066  12.541  0.00  0.00    +0.000 A 
ATOM     13  N   UNL     1       7.286   4.064  11.758  0.00  0.00    +0.000 NA
ATOM     14  C   UNL     1       6.421   3.207  12.306  0.00  0.00    +0.000 A 
ATOM     15  N   UNL     1       5.954   2.189  11.501  0.00  0.00    +0.000 N 
ATOM     16  N   UNL     1       5.950   3.285  13.552  0.00  0.00    +0.000 NA
ATOM     17  H   UNL     1       6.063   2.459  10.532  0.00  0.00    +0.000 HD
ATOM     18  H   UNL     1       5.027   1.922  11.799  0.00  0.00    +0.000 HD
ENDBRANCH   3  10
BRANCH   1  19
ATOM     19  S   UNL     1       3.141   3.598  18.272  0.00  0.00    +0.000 S 
ATOM     20  O   UNL     1       3.650   2.622  19.222  0.00  0.00    +0.000 OA
ATOM     21  O   UNL     1       2.143   3.241  17.285  0.00  0.00    +0.000 OA
BRANCH  19  28
ATOM     22  C   UNL     1       2.134   4.888  20.543  0.00  0.00    +0.000 A 
ATOM     23  C   UNL     1       1.678   6.054  21.177  0.00  0.00    +0.000 A 
ATOM     24  C   UNL     1       1.567   7.261  20.480  0.00  0.00    +0.000 A 
ATOM     25  C   UNL     1       1.932   7.320  19.141  0.00  0.00    +0.000 A 
ATOM     26 BR   UNL     1       1.797   8.951  18.199  0.00  0.00    +0.000 Br
ATOM     27  C   UNL     1       2.405   6.184  18.496  0.00  0.00    +0.000 A 
ATOM     28  C   UNL     1       2.503   4.967  19.195  0.00  0.00    +0.000 A 
BRANCH  22  30
ATOM     29  C   UNL     1       1.084   2.941  21.397  0.00  0.00    +0.000 C 
ATOM     30  O   UNL     1       2.281   3.698  21.199  0.00  0.00    +0.000 OA
ENDBRANCH  22  30
ENDBRANCH  19  28
ENDBRANCH   1  19
TORSDOF 4
ENDMDL
MODEL 3
REMARK VINA RESULT:      -8.3      6.335      9.113
REMARK  Name = 
REMARK  5 active torsions:
REMARK  status: ('A' for Active; 'I' for Inactive)
REMARK    1  A    between atoms: C_1  and  O_2
REMARK    2  A    between atoms: O_2  and  C_3
REMARK    3  A    between atoms: C_9  and  S_10
REMARK    4  A    between atoms: S_10  and  N_13
REMARK    5  A    between atoms: C_15  and  C_16
REMARK                            x       y       z     vdW  Elec       q    Type
REMARK                         _______ _______ _______ _____ _____    ______ ____
ROOT
ATOM      1  N   UNL     1      -0.405  11.216  19.590  0.00  0.00    +0.000 N 
ATOM      2  C   UNL     1       0.374  10.413  18.798  0.00  0.00    +0.000 A 
ATOM      3  C   UNL     1       0.941   9.442  19.602  0.00  0.00    +0.000 A 
ATOM      4  C   UNL     1       0.438   9.665  20.931  0.00  0.00    +0.000 A 
ATOM      5  C   UNL     1       0.671   9.044  22.177  0.00  0.00    +0.000 A 
ATOM      6  C   UNL     1      -0.009   9.486  23.316  0.00  0.00    +0.000 A 
ATOM      7  C   UNL     1      -0.945  10.509  23.226  0.00  0.00    +0.000 A 
ATOM      8  C   UNL     1      -1.197  11.149  22.010  0.00  0.00    +0.000 A 
ATOM      9  C   UNL     1      -0.466  10.739  20.881  0.00  0.00    +0.000 A 
ENDROOT
BRANCH   3  10
ATOM     10  C   UNL     1       1.863   8.422  19.103  0.00  0.00    +0.000 A 
ATOM     11  C   UNL     1       2.484   8.557  17.880  0.00  0.00    +0.000 A 
ATOM     12  C   UNL     1       3.342   7.545  17.531  0.00  0.00    +0.000 A 
ATOM     13  N   UNL     1       3.573   6.474  18.305  0.00  0.00    +0.000 NA
ATOM     14  C   UNL     1       2.925   6.431  19.471  0.00  0.00    +0.000 A 
ATOM     15  N   UNL     1       3.133   5.320  20.262  0.00  0.00    +0.000 N 
ATOM     16  N   UNL     1       2.068   7.357  19.906  0.00  0.00    +0.000 NA
ATOM     17  H   UNL     1       3.459   4.559  19.681  0.00  0.00    +0.000 HD
ATOM     18  H   UNL     1       2.311   5.147  20.823  0.00  0.00    +0.000 HD
ENDBRANCH   3  10
BRANCH   1  19
ATOM     19  S   UNL     1      -1.265  12.548  18.984  0.00  0.00    +0.000 S 
ATOM     20  O   UNL     1      -0.623  12.831  17.710  0.00  0.00    +0.000 OA
ATOM     21  O   UNL     1      -1.301  13.533  20.046  0.00  0.00    +0.000 OA
BRANCH  19  28
ATOM     22  C   UNL     1      -3.337  11.407  17.486  0.00  0.00    +0.000 A 
ATOM     23  C   UNL     1      -4.687  11.048  17.354  0.00  0.00    +0.000 A 
ATOM     24  C   UNL     1      -5.621  11.367  18.346  0.00  0.00    +0.000 A 
ATOM     25  C   UNL     1      -5.208  12.033  19.493  0.00  0.00    +0.000 A 
ATOM     26 BR   UNL     1      -6.462  12.453  20.840  0.00  0.00    +0.000 Br
ATOM     27  C   UNL     1      -3.874  12.382  19.654  0.00  0.00    +0.000 A 
ATOM     28  C   UNL     1      -2.937  12.073  18.651  0.00  0.00    +0.000 A 
BRANCH  22  30
ATOM     29  C   UNL     1      -2.887  10.575  15.311  0.00  0.00    +0.000 C 
ATOM     30  O   UNL     1      -2.392  11.088  16.550  0.00  0.00    +0.000 OA
ENDBRANCH  22  30
ENDBRANCH  19  28
ENDBRANCH   1  19
TORSDOF 4
ENDMDL
MODEL 4
REMARK VINA RESULT:      -7.9      8.325     12.263
REMARK  Name = 
REMARK  5 active torsions:
REMARK  status: ('A' for Active; 'I' for Inactive)
REMARK    1  A    between atoms: C_1  and  O_2
REMARK    2  A    between atoms: O_2  and  C_3
REMARK    3  A    between atoms: C_9  and  S_10
REMARK    4  A    between atoms: S_10  and  N_13
REMARK    5  A    between atoms: C_15  and  C_16
REMARK                            x       y       z     vdW  Elec       q    Type
REMARK                         _______ _______ _______ _____ _____    ______ ____
ROOT
ATOM      1  N   UNL     1      -1.544  12.322  19.756  0.00  0.00    +0.000 N 
ATOM      2  C   UNL     1      -2.352  12.898  20.702  0.00  0.00    +0.000 A 
ATOM      3  C   UNL     1      -3.664  12.739  20.297  0.00  0.00    +0.000 A 
ATOM      4  C   UNL     1      -3.625  11.996  19.066  0.00  0.00    +0.000 A 
ATOM      5  C   UNL     1      -4.616  11.559  18.160  0.00  0.00    +0.000 A 
ATOM      6  C   UNL     1      -4.255  10.812  17.035  0.00  0.00    +0.000 A 
ATOM      7  C   UNL     1      -2.928  10.461  16.818  0.00  0.00    +0.000 A 
ATOM      8  C   UNL     1      -1.921  10.878  17.692  0.00  0.00    +0.000 A 
ATOM      9  C   UNL     1      -2.284  11.680  18.789  0.00  0.00    +0.000 A 
ENDROOT
BRANCH   3  10
ATOM     10  C   UNL     1      -4.807  13.259  21.047  0.00  0.00    +0.000 A 
ATOM     11  C   UNL     1      -5.244  14.554  20.874  0.00  0.00    +0.000 A 
ATOM     12  C   UNL     1      -6.338  14.919  21.618  0.00  0.00    +0.000 A 
ATOM     13  N   UNL     1      -6.956  14.093  22.476  0.00  0.00    +0.000 NA
ATOM     14  C   UNL     1      -6.459  12.859  22.577  0.00  0.00    +0.000 A 
ATOM     15  N   UNL     1      -7.069  12.010  23.477  0.00  0.00    +0.000 N 
ATOM     16  N   UNL     1      -5.401  12.401  21.903  0.00  0.00    +0.000 NA
ATOM     17  H   UNL     1      -7.560  12.561  24.167  0.00  0.00    +0.000 HD
ATOM     18  H   UNL     1      -6.393  11.342  23.822  0.00  0.00    +0.000 HD
ENDBRANCH   3  10
BRANCH   1  19
ATOM     19  S   UNL     1       0.149  12.320  19.873  0.00  0.00    +0.000 S 
ATOM     20  O   UNL     1       0.425  13.190  21.006  0.00  0.00    +0.000 OA
ATOM     21  O   UNL     1       0.653  12.622  18.549  0.00  0.00    +0.000 OA
BRANCH  19  28
ATOM     22  C   UNL     1       0.648  10.161  21.585  0.00  0.00    +0.000 A 
ATOM     23  C   UNL     1       1.091   8.844  21.784  0.00  0.00    +0.000 A 
ATOM     24  C   UNL     1       1.611   8.088  20.728  0.00  0.00    +0.000 A 
ATOM     25  C   UNL     1       1.674   8.636  19.453  0.00  0.00    +0.000 A 
ATOM     26 BR   UNL     1       2.362   7.614  18.023  0.00  0.00    +0.000 Br
ATOM     27  C   UNL     1       1.223   9.930  19.227  0.00  0.00    +0.000 A 
ATOM     28  C   UNL     1       0.713  10.695  20.293  0.00  0.00    +0.000 A 
BRANCH  22  30
ATOM     29  C   UNL     1      -1.080  10.406  23.190  0.00  0.00    +0.000 C 
ATOM     30  O   UNL     1       0.110  10.920  22.587  0.00  0.00    +0.000 OA
ENDBRANCH  22  30
ENDBRANCH  19  28
ENDBRANCH   1  19
TORSDOF 4
ENDMDL
MODEL 5
REMARK VINA RESULT:      -7.9      6.209      8.929
REMARK  Name = 
REMARK  5 active torsions:
REMARK  status: ('A' for Active; 'I' for Inactive)
REMARK    1  A    between atoms: C_1  and  O_2
REMARK    2  A    between atoms: O_2  and  C_3
REMARK    3  A    between atoms: C_9  and  S_10
REMARK    4  A    between atoms: S_10  and  N_13
REMARK    5  A    between atoms: C_15  and  C_16
REMARK                            x       y       z     vdW  Elec       q    Type
REMARK                         _______ _______ _______ _____ _____    ______ ____
ROOT
ATOM      1  N   UNL     1      -0.231  11.111  19.563  0.00  0.00    +0.000 N 
ATOM      2  C   UNL     1       0.533  10.281  18.783  0.00  0.00    +0.000 A 
ATOM      3  C   UNL     1       1.076   9.308  19.601  0.00  0.00    +0.000 A 
ATOM      4  C   UNL     1       0.574   9.559  20.925  0.00  0.00    +0.000 A 
ATOM      5  C   UNL     1       0.789   8.949  22.181  0.00  0.00    +0.000 A 
ATOM      6  C   UNL     1       0.116   9.420  23.312  0.00  0.00    +0.000 A 
ATOM      7  C   UNL     1      -0.797  10.463  23.205  0.00  0.00    +0.000 A 
ATOM      8  C   UNL     1      -1.032  11.092  21.980  0.00  0.00    +0.000 A 
ATOM      9  C   UNL     1      -0.306  10.652  20.859  0.00  0.00    +0.000 A 
ENDROOT
BRANCH   3  10
ATOM     10  C   UNL     1       1.976   8.261  19.119  0.00  0.00    +0.000 A 
ATOM     11  C   UNL     1       2.612   8.372  17.901  0.00  0.00    +0.000 A 
ATOM     12  C   UNL     1       3.448   7.335  17.568  0.00  0.00    +0.000 A 
ATOM     13  N   UNL     1       3.644   6.264  18.351  0.00  0.00    +0.000 NA
ATOM     14  C   UNL     1       2.983   6.246  19.511  0.00  0.00    +0.000 A 
ATOM     15  N   UNL     1       3.155   5.135  20.311  0.00  0.00    +0.000 N 
ATOM     16  N   UNL     1       2.146   7.197  19.931  0.00  0.00    +0.000 NA
ATOM     17  H   UNL     1       3.467   4.363  19.739  0.00  0.00    +0.000 HD
ATOM     18  H   UNL     1       2.323   4.987  20.865  0.00  0.00    +0.000 HD
ENDBRANCH   3  10
BRANCH   1  19
ATOM     19  S   UNL     1      -1.059  12.453  18.936  0.00  0.00    +0.000 S 
ATOM     20  O   UNL     1      -0.192  12.937  17.873  0.00  0.00    +0.000 OA
ATOM     21  O   UNL     1      -1.404  13.289  20.068  0.00  0.00    +0.000 OA
BRANCH  19  28
ATOM     22  C   UNL     1      -3.829  12.069  18.799  0.00  0.00    +0.000 A 
ATOM     23  C   UNL     1      -4.964  11.642  18.092  0.00  0.00    +0.000 A 
ATOM     24  C   UNL     1      -4.851  11.061  16.825  0.00  0.00    +0.000 A 
ATOM     25  C   UNL     1      -3.599  10.917  16.241  0.00  0.00    +0.000 A 
ATOM     26 BR   UNL     1      -3.443  10.145  14.526  0.00  0.00    +0.000 Br
ATOM     27  C   UNL     1      -2.463  11.349  16.913  0.00  0.00    +0.000 A 
ATOM     28  C   UNL     1      -2.576  11.922  18.194  0.00  0.00    +0.000 A 
BRANCH  22  30
ATOM     29  C   UNL     1      -5.133  12.491  20.734  0.00  0.00    +0.000 C 
ATOM     30  O   UNL     1      -3.903  12.666  20.027  0.00  0.00    +0.000 OA
ENDBRANCH  22  30
ENDBRANCH  19  28
ENDBRANCH   1  19
TORSDOF 4
ENDMDL
MODEL 6
REMARK VINA RESULT:      -7.9      6.523      9.340
REMARK  Name = 
REMARK  5 active torsions:
REMARK  status: ('A' for Active; 'I' for Inactive)
REMARK    1  A    between atoms: C_1  and  O_2
REMARK    2  A    between atoms: O_2  and  C_3
REMARK    3  A    between atoms: C_9  and  S_10
REMARK    4  A    between atoms: S_10  and  N_13
REMARK    5  A    between atoms: C_15  and  C_16
REMARK                            x       y       z     vdW  Elec       q    Type
REMARK                         _______ _______ _______ _____ _____    ______ ____
ROOT
ATOM      1  N   UNL     1       0.205  11.837  19.798  0.00  0.00    +0.000 N 
ATOM      2  C   UNL     1       1.210  10.907  19.872  0.00  0.00    +0.000 A 
ATOM      3  C   UNL     1       0.890   9.864  19.024  0.00  0.00    +0.000 A 
ATOM      4  C   UNL     1      -0.351  10.218  18.390  0.00  0.00    +0.000 A 
ATOM      5  C   UNL     1      -1.197   9.562  17.468  0.00  0.00    +0.000 A 
ATOM      6  C   UNL     1      -2.354  10.196  17.007  0.00  0.00    +0.000 A 
ATOM      7  C   UNL     1      -2.662  11.487  17.418  0.00  0.00    +0.000 A 
ATOM      8  C   UNL     1      -1.851  12.165  18.331  0.00  0.00    +0.000 A 
ATOM      9  C   UNL     1      -0.721  11.498  18.837  0.00  0.00    +0.000 A 
ENDROOT
BRANCH   3  10
ATOM     10  C   UNL     1       1.721   8.671  18.866  0.00  0.00    +0.000 A 
ATOM     11  C   UNL     1       2.489   8.480  17.738  0.00  0.00    +0.000 A 
ATOM     12  C   UNL     1       3.241   7.332  17.716  0.00  0.00    +0.000 A 
ATOM     13  N   UNL     1       3.240   6.429  18.707  0.00  0.00    +0.000 NA
ATOM     14  C   UNL     1       2.462   6.700  19.758  0.00  0.00    +0.000 A 
ATOM     15  N   UNL     1       2.431   5.764  20.771  0.00  0.00    +0.000 N 
ATOM     16  N   UNL     1       1.691   7.782  19.882  0.00  0.00    +0.000 NA
ATOM     17  H   UNL     1       2.718   4.868  20.400  0.00  0.00    +0.000 HD
ATOM     18  H   UNL     1       1.534   5.800  21.235  0.00  0.00    +0.000 HD
ENDBRANCH   3  10
BRANCH   1  19
ATOM     19  S   UNL     1       0.211  13.270  20.708  0.00  0.00    +0.000 S 
ATOM     20  O   UNL     1       0.014  14.316  19.717  0.00  0.00    +0.000 OA
ATOM     21  O   UNL     1       1.400  13.227  21.535  0.00  0.00    +0.000 OA
BRANCH  19  28
ATOM     22  C   UNL     1      -1.354  12.391  22.857  0.00  0.00    +0.000 A 
ATOM     23  C   UNL     1      -2.487  12.532  23.674  0.00  0.00    +0.000 A 
ATOM     24  C   UNL     1      -3.440  13.524  23.424  0.00  0.00    +0.000 A 
ATOM     25  C   UNL     1      -3.261  14.401  22.362  0.00  0.00    +0.000 A 
ATOM     26 BR   UNL     1      -4.539  15.750  22.030  0.00  0.00    +0.000 Br
ATOM     27  C   UNL     1      -2.138  14.295  21.551  0.00  0.00    +0.000 A 
ATOM     28  C   UNL     1      -1.186  13.288  21.795  0.00  0.00    +0.000 A 
BRANCH  22  30
ATOM     29  C   UNL     1      -0.827  10.091  23.089  0.00  0.00    +0.000 C 
ATOM     30  O   UNL     1      -0.388  11.451  23.086  0.00  0.00    +0.000 OA
ENDBRANCH  22  30
ENDBRANCH  19  28
ENDBRANCH   1  19
TORSDOF 4
ENDMDL
MODEL 7
REMARK VINA RESULT:      -7.6      3.399      7.294
REMARK  Name = 
REMARK  5 active torsions:
REMARK  status: ('A' for Active; 'I' for Inactive)
REMARK    1  A    between atoms: C_1  and  O_2
REMARK    2  A    between atoms: O_2  and  C_3
REMARK    3  A    between atoms: C_9  and  S_10
REMARK    4  A    between atoms: S_10  and  N_13
REMARK    5  A    between atoms: C_15  and  C_16
REMARK                            x       y       z     vdW  Elec       q    Type
REMARK                         _______ _______ _______ _____ _____    ______ ____
ROOT
ATOM      1  N   UNL     1       4.288   5.055  19.219  0.00  0.00    +0.000 N 
ATOM      2  C   UNL     1       3.974   6.377  19.031  0.00  0.00    +0.000 A 
ATOM      3  C   UNL     1       2.656   6.559  19.404  0.00  0.00    +0.000 A 
ATOM      4  C   UNL     1       2.182   5.284  19.872  0.00  0.00    +0.000 A 
ATOM      5  C   UNL     1       0.934   4.821  20.342  0.00  0.00    +0.000 A 
ATOM      6  C   UNL     1       0.791   3.494  20.758  0.00  0.00    +0.000 A 
ATOM      7  C   UNL     1       1.882   2.632  20.752  0.00  0.00    +0.000 A 
ATOM      8  C   UNL     1       3.131   3.056  20.290  0.00  0.00    +0.000 A 
ATOM      9  C   UNL     1       3.251   4.374  19.816  0.00  0.00    +0.000 A 
ENDROOT
BRANCH   3  10
ATOM     10  C   UNL     1       1.963   7.844  19.310  0.00  0.00    +0.000 A 
ATOM     11  C   UNL     1       1.854   8.509  18.108  0.00  0.00    +0.000 A 
ATOM     12  C   UNL     1       1.163   9.695  18.143  0.00  0.00    +0.000 A 
ATOM     13  N   UNL     1       0.627  10.204  19.262  0.00  0.00    +0.000 NA
ATOM     14  C   UNL     1       0.786   9.488  20.378  0.00  0.00    +0.000 A 
ATOM     15  N   UNL     1       0.264  10.017  21.540  0.00  0.00    +0.000 N 
ATOM     16  N   UNL     1       1.440   8.327  20.456  0.00  0.00    +0.000 NA
ATOM     17  H   UNL     1       0.160  11.016  21.429  0.00  0.00    +0.000 HD
ATOM     18  H   UNL     1       0.809   9.698  22.329  0.00  0.00    +0.000 HD
ENDBRANCH   3  10
BRANCH   1  19
ATOM     19  S   UNL     1       5.818   4.415  18.858  0.00  0.00    +0.000 S 
ATOM     20  O   UNL     1       5.599   2.977  18.826  0.00  0.00    +0.000 OA
ATOM     21  O   UNL     1       6.746   5.016  19.795  0.00  0.00    +0.000 OA
BRANCH  19  28
ATOM     22  C   UNL     1       7.156   6.006  16.983  0.00  0.00    +0.000 A 
ATOM     23  C   UNL     1       7.502   6.286  15.652  0.00  0.00    +0.000 A 
ATOM     24  C   UNL     1       6.994   5.521  14.596  0.00  0.00    +0.000 A 
ATOM     25  C   UNL     1       6.147   4.453  14.863  0.00  0.00    +0.000 A 
ATOM     26 BR   UNL     1       5.470   3.410  13.443  0.00  0.00    +0.000 Br
ATOM     27  C   UNL     1       5.806   4.144  16.174  0.00  0.00    +0.000 A 
ATOM     28  C   UNL     1       6.306   4.922  17.234  0.00  0.00    +0.000 A 
BRANCH  22  30
ATOM     29  C   UNL     1       7.893   8.104  17.806  0.00  0.00    +0.000 C 
ATOM     30  O   UNL     1       7.654   6.714  18.041  0.00  0.00    +0.000 OA
ENDBRANCH  22  30
ENDBRANCH  19  28
ENDBRANCH   1  19
TORSDOF 4
ENDMDL
MODEL 8
REMARK VINA RESULT:      -7.5      3.405      7.236
REMARK  Name = 
REMARK  5 active torsions:
REMARK  status: ('A' for Active; 'I' for Inactive)
REMARK    1  A    between atoms: C_1  and  O_2
REMARK    2  A    between atoms: O_2  and  C_3
REMARK    3  A    between atoms: C_9  and  S_10
REMARK    4  A    between atoms: S_10  and  N_13
REMARK    5  A    between atoms: C_15  and  C_16
REMARK                            x       y       z     vdW  Elec       q    Type
REMARK                         _______ _______ _______ _____ _____    ______ ____
ROOT
ATOM      1  N   UNL     1       4.237   4.970  19.380  0.00  0.00    +0.000 N 
ATOM      2  C   UNL     1       3.927   6.304  19.431  0.00  0.00    +0.000 A 
ATOM      3  C   UNL     1       2.591   6.419  19.764  0.00  0.00    +0.000 A 
ATOM      4  C   UNL     1       2.099   5.081  19.954  0.00  0.00    +0.000 A 
ATOM      5  C   UNL     1       0.830   4.543  20.262  0.00  0.00    +0.000 A 
ATOM      6  C   UNL     1       0.673   3.162  20.411  0.00  0.00    +0.000 A 
ATOM      7  C   UNL     1       1.766   2.312  20.297  0.00  0.00    +0.000 A 
ATOM      8  C   UNL     1       3.036   2.808  19.989  0.00  0.00    +0.000 A 
ATOM      9  C   UNL     1       3.174   4.192  19.782  0.00  0.00    +0.000 A 
ENDROOT
BRANCH   3  10
ATOM     10  C   UNL     1       1.897   7.702  19.880  0.00  0.00    +0.000 A 
ATOM     11  C   UNL     1       1.277   8.074  21.053  0.00  0.00    +0.000 A 
ATOM     12  C   UNL     1       0.678   9.308  21.045  0.00  0.00    +0.000 A 
ATOM     13  N   UNL     1       0.670  10.119  19.976  0.00  0.00    +0.000 NA
ATOM     14  C   UNL     1       1.296   9.671  18.885  0.00  0.00    +0.000 A 
ATOM     15  N   UNL     1       1.270  10.484  17.771  0.00  0.00    +0.000 N 
ATOM     16  N   UNL     1       1.907   8.488  18.784  0.00  0.00    +0.000 NA
ATOM     17  H   UNL     1       0.487  11.119  17.845  0.00  0.00    +0.000 HD
ATOM     18  H   UNL     1       1.319   9.914  16.938  0.00  0.00    +0.000 HD
ENDBRANCH   3  10
BRANCH   1  19
ATOM     19  S   UNL     1       5.787   4.402  18.984  0.00  0.00    +0.000 S 
ATOM     20  O   UNL     1       5.638   2.955  18.968  0.00  0.00    +0.000 OA
ATOM     21  O   UNL     1       6.709   5.056  19.890  0.00  0.00    +0.000 OA
BRANCH  19  28
ATOM     22  C   UNL     1       7.045   6.003  17.063  0.00  0.00    +0.000 A 
ATOM     23  C   UNL     1       7.335   6.290  15.720  0.00  0.00    +0.000 A 
ATOM     24  C   UNL     1       6.784   5.530  14.682  0.00  0.00    +0.000 A 
ATOM     25  C   UNL     1       5.950   4.460  14.979  0.00  0.00    +0.000 A 
ATOM     26 BR   UNL     1       5.216   3.423  13.582  0.00  0.00    +0.000 Br
ATOM     27  C   UNL     1       5.664   4.144  16.301  0.00  0.00    +0.000 A 
ATOM     28  C   UNL     1       6.207   4.917  17.344  0.00  0.00    +0.000 A 
BRANCH  22  30
ATOM     29  C   UNL     1       7.861   8.086  17.848  0.00  0.00    +0.000 C 
ATOM     30  O   UNL     1       7.585   6.706  18.103  0.00  0.00    +0.000 OA
ENDBRANCH  22  30
ENDBRANCH  19  28
ENDBRANCH   1  19
TORSDOF 4
ENDMDL
MODEL 9
REMARK VINA RESULT:      -7.5      6.690      9.629
REMARK  Name = 
REMARK  5 active torsions:
REMARK  status: ('A' for Active; 'I' for Inactive)
REMARK    1  A    between atoms: C_1  and  O_2
REMARK    2  A    between atoms: O_2  and  C_3
REMARK    3  A    between atoms: C_9  and  S_10
REMARK    4  A    between atoms: S_10  and  N_13
REMARK    5  A    between atoms: C_15  and  C_16
REMARK                            x       y       z     vdW  Elec       q    Type
REMARK                         _______ _______ _______ _____ _____    ______ ____
ROOT
ATOM      1  N   UNL     1      -0.678  11.155  20.740  0.00  0.00    +0.000 N 
ATOM      2  C   UNL     1       0.427  10.345  20.687  0.00  0.00    +0.000 A 
ATOM      3  C   UNL     1       0.433   9.711  19.458  0.00  0.00    +0.000 A 
ATOM      4  C   UNL     1      -0.710  10.204  18.738  0.00  0.00    +0.000 A 
ATOM      5  C   UNL     1      -1.261   9.917  17.469  0.00  0.00    +0.000 A 
ATOM      6  C   UNL     1      -2.397  10.602  17.029  0.00  0.00    +0.000 A 
ATOM      7  C   UNL     1      -2.971  11.595  17.814  0.00  0.00    +0.000 A 
ATOM      8  C   UNL     1      -2.455  11.902  19.076  0.00  0.00    +0.000 A 
ATOM      9  C   UNL     1      -1.348  11.168  19.537  0.00  0.00    +0.000 A 
ENDROOT
BRANCH   3  10
ATOM     10  C   UNL     1       1.452   8.742  19.057  0.00  0.00    +0.000 A 
ATOM     11  C   UNL     1       2.139   8.879  17.870  0.00  0.00    +0.000 A 
ATOM     12  C   UNL     1       3.084   7.918  17.614  0.00  0.00    +0.000 A 
ATOM     13  N   UNL     1       3.339   6.893  18.441  0.00  0.00    +0.000 NA
ATOM     14  C   UNL     1       2.621   6.844  19.566  0.00  0.00    +0.000 A 
ATOM     15  N   UNL     1       2.854   5.778  20.411  0.00  0.00    +0.000 N 
ATOM     16  N   UNL     1       1.677   7.723  19.912  0.00  0.00    +0.000 NA
ATOM     17  H   UNL     1       3.267   5.023  19.881  0.00  0.00    +0.000 HD
ATOM     18  H   UNL     1       2.011   5.567  20.926  0.00  0.00    +0.000 HD
ENDBRANCH   3  10
BRANCH   1  19
ATOM     19  S   UNL     1      -1.061  12.098  22.099  0.00  0.00    +0.000 S 
ATOM     20  O   UNL     1      -0.381  11.426  23.196  0.00  0.00    +0.000 OA
ATOM     21  O   UNL     1      -2.500  12.264  22.092  0.00  0.00    +0.000 OA
BRANCH  19  28
ATOM     22  C   UNL     1      -0.377  14.683  22.928  0.00  0.00    +0.000 A 
ATOM     23  C   UNL     1       0.262  15.909  22.686  0.00  0.00    +0.000 A 
ATOM     24  C   UNL     1       0.896  16.165  21.465  0.00  0.00    +0.000 A 
ATOM     25  C   UNL     1       0.915  15.188  20.479  0.00  0.00    +0.000 A 
ATOM     26 BR   UNL     1       1.781  15.524  18.836  0.00  0.00    +0.000 Br
ATOM     27  C   UNL     1       0.306  13.959  20.703  0.00  0.00    +0.000 A 
ATOM     28  C   UNL     1      -0.344  13.707  21.925  0.00  0.00    +0.000 A 
BRANCH  22  30
ATOM     29  C   UNL     1      -2.227  15.046  24.366  0.00  0.00    +0.000 C 
ATOM     30  O   UNL     1      -0.983  14.387  24.118  0.00  0.00    +0.000 OA
ENDBRANCH  22  30
ENDBRANCH  19  28
ENDBRANCH   1  19
TORSDOF 4
ENDMDL
