MODEL 1
REMARK VINA RESULT:      -9.4      0.000      0.000
REMARK  Name = 
REMARK  8 active torsions:
REMARK  status: ('A' for Active; 'I' for Inactive)
REMARK    1  A    between atoms: C_2  and  C_3
REMARK    2  A    between atoms: C_3  and  C_4
REMARK    3  A    between atoms: C_4  and  N_5
REMARK    4  A    between atoms: C_7  and  C_8
REMARK    5  A    between atoms: N_12  and  C_13
REMARK    6  A    between atoms: C_23  and  N_24
REMARK    7  A    between atoms: N_24  and  C_25
REMARK    8  A    between atoms: C_25  and  C_26
REMARK                            x       y       z     vdW  Elec       q    Type
REMARK                         _______ _______ _______ _____ _____    ______ ____
ROOT
ATOM      1  N   UNL     1       4.764   4.950  17.990  0.00  0.00    +0.000 N 
ATOM      2  C   UNL     1       4.591   4.021  18.964  0.00  0.00    +0.000 A 
ATOM      3  C   UNL     1       3.487   4.420  19.701  0.00  0.00    +0.000 A 
ATOM      4  C   UNL     1       3.069   5.628  19.084  0.00  0.00    +0.000 A 
ATOM      5  N   UNL     1       2.067   6.418  19.567  0.00  0.00    +0.000 N 
ATOM      6  N   UNL     1       3.821   5.899  18.016  0.00  0.00    +0.000 NA
ATOM      7  H   UNL     1       1.491   6.025  20.311  0.00  0.00    +0.000 HD
ENDROOT
BRANCH   5   8
ATOM      8  C   UNL     1       1.875   7.810  19.390  0.00  0.00    +0.000 A 
ATOM      9  C   UNL     1       1.279   8.633  20.358  0.00  0.00    +0.000 A 
ATOM     10  C   UNL     1       0.979   9.974  20.096  0.00  0.00    +0.000 A 
ATOM     11  C   UNL     1       1.282  10.507  18.855  0.00  0.00    +0.000 A 
ATOM     12  F   UNL     1       0.973  11.783  18.591  0.00  0.00    +0.000 F 
ATOM     13  C   UNL     1       1.893   9.729  17.881  0.00  0.00    +0.000 A 
ATOM     14  C   UNL     1       2.191   8.387  18.149  0.00  0.00    +0.000 A 
ENDBRANCH   5   8
BRANCH   1  15
ATOM     15  C   UNL     1       5.746   4.973  16.891  0.00  0.00    +0.000 C 
ATOM     16  C   UNL     1       5.823   6.401  16.253  0.00  0.00    +0.000 C 
ATOM     17  C   UNL     1       6.418   7.452  17.202  0.00  0.00    +0.000 C 
ATOM     18  C   UNL     1       7.824   7.051  17.671  0.00  0.00    +0.000 C 
ATOM     19  C   UNL     1       7.801   5.644  18.282  0.00  0.00    +0.000 C 
ATOM     20  C   UNL     1       7.179   4.611  17.353  0.00  0.00    +0.000 C 
BRANCH  18  21
ATOM     21  N   UNL     1       8.316   8.038  18.634  0.00  0.00    +0.000 NA
ATOM     22  H   UNL     1       7.772   7.984  19.497  0.00  0.00    +0.000 HD
BRANCH  21  23
ATOM     23  C   UNL     1       8.243   9.413  18.129  0.00  0.00    +0.000 C 
BRANCH  23  24
ATOM     24  C   UNL     1       9.288  10.320  18.726  0.00  0.00    +0.000 A 
ATOM     25  C   UNL     1      10.285  10.922  17.945  0.00  0.00    +0.000 A 
ATOM     26  C   UNL     1      11.233  11.759  18.532  0.00  0.00    +0.000 A 
ATOM     27  C   UNL     1      11.175  12.026  19.898  0.00  0.00    +0.000 A 
ATOM     28  C   UNL     1      10.157  11.479  20.674  0.00  0.00    +0.000 A 
ATOM     29  C   UNL     1       9.213  10.637  20.090  0.00  0.00    +0.000 A 
ENDBRANCH  23  24
ENDBRANCH  21  23
ENDBRANCH  18  21
BRANCH  15  30
ATOM     30  C   UNL     1       5.280   3.962  15.810  0.00  0.00    +0.000 C 
BRANCH  30  32
ATOM     31  N   UNL     1       6.662   4.195  13.579  0.00  0.00    +0.000 NA
ATOM     32  C   UNL     1       6.068   4.064  14.566  0.00  0.00    +0.000 C 
ENDBRANCH  30  32
ENDBRANCH  15  30
ENDBRANCH   1  15
BRANCH   3  33
ATOM     33  C   UNL     1       2.919   3.735  20.843  0.00  0.00    +0.000 C 
ATOM     34  N   UNL     1       3.344   2.447  21.019  0.00  0.00    +0.000 N 
ATOM     35  O   UNL     1       2.142   4.262  21.629  0.00  0.00    +0.000 OA
ATOM     36  H   UNL     1       4.170   2.099  20.549  0.00  0.00    +0.000 HD
ATOM     37  H   UNL     1       3.025   1.962  21.844  0.00  0.00    +0.000 HD
ENDBRANCH   3  33
TORSDOF 8
ENDMDL
MODEL 2
REMARK VINA RESULT:      -9.1      3.930      7.729
REMARK  Name = 
REMARK  8 active torsions:
REMARK  status: ('A' for Active; 'I' for Inactive)
REMARK    1  A    between atoms: C_2  and  C_3
REMARK    2  A    between atoms: C_3  and  C_4
REMARK    3  A    between atoms: C_4  and  N_5
REMARK    4  A    between atoms: C_7  and  C_8
REMARK    5  A    between atoms: N_12  and  C_13
REMARK    6  A    between atoms: C_23  and  N_24
REMARK    7  A    between atoms: N_24  and  C_25
REMARK    8  A    between atoms: C_25  and  C_26
REMARK                            x       y       z     vdW  Elec       q    Type
REMARK                         _______ _______ _______ _____ _____    ______ ____
ROOT
ATOM      1  N   UNL     1       4.439   4.746  18.163  0.00  0.00    +0.000 N 
ATOM      2  C   UNL     1       5.327   5.121  19.118  0.00  0.00    +0.000 A 
ATOM      3  C   UNL     1       6.468   5.544  18.453  0.00  0.00    +0.000 A 
ATOM      4  C   UNL     1       6.160   5.370  17.078  0.00  0.00    +0.000 A 
ATOM      5  N   UNL     1       7.057   5.568  16.070  0.00  0.00    +0.000 N 
ATOM      6  N   UNL     1       4.906   4.941  16.925  0.00  0.00    +0.000 NA
ATOM      7  H   UNL     1       7.935   6.022  16.320  0.00  0.00    +0.000 HD
ENDROOT
BRANCH   5   8
ATOM      8  C   UNL     1       7.077   4.989  14.778  0.00  0.00    +0.000 A 
ATOM      9  C   UNL     1       7.823   5.514  13.711  0.00  0.00    +0.000 A 
ATOM     10  C   UNL     1       7.711   5.001  12.415  0.00  0.00    +0.000 A 
ATOM     11  C   UNL     1       6.849   3.945  12.176  0.00  0.00    +0.000 A 
ATOM     12  F   UNL     1       6.719   3.467  10.931  0.00  0.00    +0.000 F 
ATOM     13  C   UNL     1       6.111   3.385  13.211  0.00  0.00    +0.000 A 
ATOM     14  C   UNL     1       6.228   3.904  14.506  0.00  0.00    +0.000 A 
ENDBRANCH   5   8
BRANCH   1  15
ATOM     15  C   UNL     1       3.047   4.286  18.319  0.00  0.00    +0.000 C 
ATOM     16  C   UNL     1       2.745   3.949  19.819  0.00  0.00    +0.000 C 
ATOM     17  C   UNL     1       2.749   5.189  20.726  0.00  0.00    +0.000 C 
ATOM     18  C   UNL     1       1.733   6.236  20.247  0.00  0.00    +0.000 C 
ATOM     19  C   UNL     1       1.976   6.579  18.771  0.00  0.00    +0.000 C 
ATOM     20  C   UNL     1       2.006   5.345  17.880  0.00  0.00    +0.000 C 
BRANCH  18  21
ATOM     21  N   UNL     1       1.830   7.429  21.090  0.00  0.00    +0.000 NA
ATOM     22  H   UNL     1       1.243   7.318  21.919  0.00  0.00    +0.000 HD
BRANCH  21  23
ATOM     23  C   UNL     1       1.420   8.653  20.394  0.00  0.00    +0.000 C 
BRANCH  23  24
ATOM     24  C   UNL     1       0.524   9.536  21.225  0.00  0.00    +0.000 A 
ATOM     25  C   UNL     1       0.171   9.208  22.542  0.00  0.00    +0.000 A 
ATOM     26  C   UNL     1      -0.657  10.051  23.282  0.00  0.00    +0.000 A 
ATOM     27  C   UNL     1      -1.115  11.243  22.724  0.00  0.00    +0.000 A 
ATOM     28  C   UNL     1      -0.727  11.606  21.438  0.00  0.00    +0.000 A 
ATOM     29  C   UNL     1       0.096  10.761  20.694  0.00  0.00    +0.000 A 
ENDBRANCH  23  24
ENDBRANCH  21  23
ENDBRANCH  18  21
BRANCH  15  30
ATOM     30  C   UNL     1       2.868   3.000  17.468  0.00  0.00    +0.000 C 
BRANCH  30  32
ATOM     31  N   UNL     1       3.933   0.905  18.659  0.00  0.00    +0.000 NA
ATOM     32  C   UNL     1       3.442   1.808  18.123  0.00  0.00    +0.000 C 
ENDBRANCH  30  32
ENDBRANCH  15  30
ENDBRANCH   1  15
BRANCH   3  33
ATOM     33  C   UNL     1       7.685   6.040  19.059  0.00  0.00    +0.000 C 
ATOM     34  N   UNL     1       8.152   5.304  20.113  0.00  0.00    +0.000 N 
ATOM     35  O   UNL     1       8.291   7.023  18.651  0.00  0.00    +0.000 OA
ATOM     36  H   UNL     1       7.822   4.363  20.282  0.00  0.00    +0.000 HD
ATOM     37  H   UNL     1       9.036   5.578  20.515  0.00  0.00    +0.000 HD
ENDBRANCH   3  33
TORSDOF 8
ENDMDL
MODEL 3
REMARK VINA RESULT:      -9.1      3.974      7.681
REMARK  Name = 
REMARK  8 active torsions:
REMARK  status: ('A' for Active; 'I' for Inactive)
REMARK    1  A    between atoms: C_2  and  C_3
REMARK    2  A    between atoms: C_3  and  C_4
REMARK    3  A    between atoms: C_4  and  N_5
REMARK    4  A    between atoms: C_7  and  C_8
REMARK    5  A    between atoms: N_12  and  C_13
REMARK    6  A    between atoms: C_23  and  N_24
REMARK    7  A    between atoms: N_24  and  C_25
REMARK    8  A    between atoms: C_25  and  C_26
REMARK                            x       y       z     vdW  Elec       q    Type
REMARK                         _______ _______ _______ _____ _____    ______ ____
ROOT
ATOM      1  N   UNL     1       4.354   4.680  18.202  0.00  0.00    +0.000 N 
ATOM      2  C   UNL     1       5.273   5.038  19.134  0.00  0.00    +0.000 A 
ATOM      3  C   UNL     1       6.377   5.511  18.442  0.00  0.00    +0.000 A 
ATOM      4  C   UNL     1       6.016   5.384  17.074  0.00  0.00    +0.000 A 
ATOM      5  N   UNL     1       6.868   5.640  16.039  0.00  0.00    +0.000 N 
ATOM      6  N   UNL     1       4.767   4.932  16.954  0.00  0.00    +0.000 NA
ATOM      7  H   UNL     1       7.746   6.104  16.272  0.00  0.00    +0.000 HD
ENDROOT
BRANCH   5   8
ATOM      8  C   UNL     1       6.847   5.112  14.726  0.00  0.00    +0.000 A 
ATOM      9  C   UNL     1       6.035   4.032  14.345  0.00  0.00    +0.000 A 
ATOM     10  C   UNL     1       6.140   3.446  13.080  0.00  0.00    +0.000 A 
ATOM     11  C   UNL     1       7.062   3.945  12.176  0.00  0.00    +0.000 A 
ATOM     12  F   UNL     1       7.185   3.371  10.972  0.00  0.00    +0.000 F 
ATOM     13  C   UNL     1       7.867   5.027  12.510  0.00  0.00    +0.000 A 
ATOM     14  C   UNL     1       7.757   5.608  13.778  0.00  0.00    +0.000 A 
ENDBRANCH   5   8
BRANCH   1  15
ATOM     15  C   UNL     1       2.980   4.182  18.395  0.00  0.00    +0.000 C 
ATOM     16  C   UNL     1       2.726   3.844  19.903  0.00  0.00    +0.000 C 
ATOM     17  C   UNL     1       2.719   5.088  20.805  0.00  0.00    +0.000 C 
ATOM     18  C   UNL     1       1.663   6.104  20.348  0.00  0.00    +0.000 C 
ATOM     19  C   UNL     1       1.859   6.447  18.865  0.00  0.00    +0.000 C 
ATOM     20  C   UNL     1       1.900   5.211  17.978  0.00  0.00    +0.000 C 
BRANCH  18  21
ATOM     21  N   UNL     1       1.749   7.303  21.184  0.00  0.00    +0.000 NA
ATOM     22  H   UNL     1       1.074   7.243  21.949  0.00  0.00    +0.000 HD
BRANCH  21  23
ATOM     23  C   UNL     1       1.490   8.538  20.437  0.00  0.00    +0.000 C 
BRANCH  23  24
ATOM     24  C   UNL     1       0.596   9.501  21.175  0.00  0.00    +0.000 A 
ATOM     25  C   UNL     1       0.028  10.619  20.547  0.00  0.00    +0.000 A 
ATOM     26  C   UNL     1      -0.798  11.486  21.260  0.00  0.00    +0.000 A 
ATOM     27  C   UNL     1      -1.089  11.228  22.598  0.00  0.00    +0.000 A 
ATOM     28  C   UNL     1      -0.577  10.091  23.217  0.00  0.00    +0.000 A 
ATOM     29  C   UNL     1       0.254   9.227  22.507  0.00  0.00    +0.000 A 
ENDBRANCH  23  24
ENDBRANCH  21  23
ENDBRANCH  18  21
BRANCH  15  30
ATOM     30  C   UNL     1       2.815   2.889  17.553  0.00  0.00    +0.000 C 
BRANCH  30  32
ATOM     31  N   UNL     1       3.990   0.785  18.617  0.00  0.00    +0.000 NA
ATOM     32  C   UNL     1       3.471   1.724  18.178  0.00  0.00    +0.000 C 
ENDBRANCH  30  32
ENDBRANCH  15  30
ENDBRANCH   1  15
BRANCH   3  33
ATOM     33  C   UNL     1       7.607   6.012  19.017  0.00  0.00    +0.000 C 
ATOM     34  N   UNL     1       8.088   5.292  20.076  0.00  0.00    +0.000 N 
ATOM     35  O   UNL     1       8.210   6.983  18.582  0.00  0.00    +0.000 OA
ATOM     36  H   UNL     1       7.756   4.356  20.268  0.00  0.00    +0.000 HD
ATOM     37  H   UNL     1       8.980   5.568  20.458  0.00  0.00    +0.000 HD
ENDBRANCH   3  33
TORSDOF 8
ENDMDL
MODEL 4
REMARK VINA RESULT:      -9.0      0.193      1.197
REMARK  Name = 
REMARK  8 active torsions:
REMARK  status: ('A' for Active; 'I' for Inactive)
REMARK    1  A    between atoms: C_2  and  C_3
REMARK    2  A    between atoms: C_3  and  C_4
REMARK    3  A    between atoms: C_4  and  N_5
REMARK    4  A    between atoms: C_7  and  C_8
REMARK    5  A    between atoms: N_12  and  C_13
REMARK    6  A    between atoms: C_23  and  N_24
REMARK    7  A    between atoms: N_24  and  C_25
REMARK    8  A    between atoms: C_25  and  C_26
REMARK                            x       y       z     vdW  Elec       q    Type
REMARK                         _______ _______ _______ _____ _____    ______ ____
ROOT
ATOM      1  N   UNL     1       4.810   4.900  17.997  0.00  0.00    +0.000 N 
ATOM      2  C   UNL     1       4.638   4.009  19.007  0.00  0.00    +0.000 A 
ATOM      3  C   UNL     1       3.500   4.401  19.693  0.00  0.00    +0.000 A 
ATOM      4  C   UNL     1       3.061   5.566  19.010  0.00  0.00    +0.000 A 
ATOM      5  N   UNL     1       2.019   6.342  19.429  0.00  0.00    +0.000 N 
ATOM      6  N   UNL     1       3.835   5.816  17.953  0.00  0.00    +0.000 NA
ATOM      7  H   UNL     1       1.434   5.962  20.173  0.00  0.00    +0.000 HD
ENDROOT
BRANCH   5   8
ATOM      8  C   UNL     1       1.787   7.716  19.183  0.00  0.00    +0.000 A 
ATOM      9  C   UNL     1       2.170   8.361  17.996  0.00  0.00    +0.000 A 
ATOM     10  C   UNL     1       2.052   9.746  17.843  0.00  0.00    +0.000 A 
ATOM     11  C   UNL     1       1.538  10.502  18.882  0.00  0.00    +0.000 A 
ATOM     12  F   UNL     1       1.448  11.832  18.750  0.00  0.00    +0.000 F 
ATOM     13  C   UNL     1       1.128   9.897  20.063  0.00  0.00    +0.000 A 
ATOM     14  C   UNL     1       1.249   8.510  20.210  0.00  0.00    +0.000 A 
ENDBRANCH   5   8
BRANCH   1  15
ATOM     15  C   UNL     1       5.824   4.908  16.927  0.00  0.00    +0.000 C 
ATOM     16  C   UNL     1       5.854   6.301  16.210  0.00  0.00    +0.000 C 
ATOM     17  C   UNL     1       6.371   7.430  17.115  0.00  0.00    +0.000 C 
ATOM     18  C   UNL     1       7.778   7.122  17.645  0.00  0.00    +0.000 C 
ATOM     19  C   UNL     1       7.802   5.752  18.335  0.00  0.00    +0.000 C 
ATOM     20  C   UNL     1       7.256   4.640  17.449  0.00  0.00    +0.000 C 
BRANCH  18  21
ATOM     21  N   UNL     1       8.195   8.184  18.563  0.00  0.00    +0.000 NA
ATOM     22  H   UNL     1       7.532   8.254  19.338  0.00  0.00    +0.000 HD
BRANCH  21  23
ATOM     23  C   UNL     1       8.286   9.496  17.915  0.00  0.00    +0.000 C 
BRANCH  23  24
ATOM     24  C   UNL     1       9.209  10.448  18.631  0.00  0.00    +0.000 A 
ATOM     25  C   UNL     1       9.252  10.532  20.029  0.00  0.00    +0.000 A 
ATOM     26  C   UNL     1      10.121  11.423  20.657  0.00  0.00    +0.000 A 
ATOM     27  C   UNL     1      10.977  12.216  19.895  0.00  0.00    +0.000 A 
ATOM     28  C   UNL     1      10.983  12.102  18.508  0.00  0.00    +0.000 A 
ATOM     29  C   UNL     1      10.110  11.216  17.878  0.00  0.00    +0.000 A 
ENDBRANCH  23  24
ENDBRANCH  21  23
ENDBRANCH  18  21
BRANCH  15  30
ATOM     30  C   UNL     1       5.438   3.817  15.892  0.00  0.00    +0.000 C 
BRANCH  30  32
ATOM     31  N   UNL     1       6.676   4.166  13.594  0.00  0.00    +0.000 NA
ATOM     32  C   UNL     1       6.145   3.984  14.608  0.00  0.00    +0.000 C 
ENDBRANCH  30  32
ENDBRANCH  15  30
ENDBRANCH   1  15
BRANCH   3  33
ATOM     33  C   UNL     1       2.921   3.749  20.848  0.00  0.00    +0.000 C 
ATOM     34  N   UNL     1       3.331   2.460  21.053  0.00  0.00    +0.000 N 
ATOM     35  O   UNL     1       2.149   4.302  21.620  0.00  0.00    +0.000 OA
ATOM     36  H   UNL     1       4.153   2.092  20.594  0.00  0.00    +0.000 HD
ATOM     37  H   UNL     1       3.004   1.996  21.888  0.00  0.00    +0.000 HD
ENDBRANCH   3  33
TORSDOF 8
ENDMDL
MODEL 5
REMARK VINA RESULT:      -8.9      3.941      7.712
REMARK  Name = 
REMARK  8 active torsions:
REMARK  status: ('A' for Active; 'I' for Inactive)
REMARK    1  A    between atoms: C_2  and  C_3
REMARK    2  A    between atoms: C_3  and  C_4
REMARK    3  A    between atoms: C_4  and  N_5
REMARK    4  A    between atoms: C_7  and  C_8
REMARK    5  A    between atoms: N_12  and  C_13
REMARK    6  A    between atoms: C_23  and  N_24
REMARK    7  A    between atoms: N_24  and  C_25
REMARK    8  A    between atoms: C_25  and  C_26
REMARK                            x       y       z     vdW  Elec       q    Type
REMARK                         _______ _______ _______ _____ _____    ______ ____
ROOT
ATOM      1  N   UNL     1       4.374   4.704  18.205  0.00  0.00    +0.000 N 
ATOM      2  C   UNL     1       5.312   4.963  19.151  0.00  0.00    +0.000 A 
ATOM      3  C   UNL     1       6.451   5.376  18.478  0.00  0.00    +0.000 A 
ATOM      4  C   UNL     1       6.090   5.319  17.106  0.00  0.00    +0.000 A 
ATOM      5  N   UNL     1       6.964   5.545  16.082  0.00  0.00    +0.000 N 
ATOM      6  N   UNL     1       4.811   4.965  16.967  0.00  0.00    +0.000 NA
ATOM      7  H   UNL     1       7.872   5.935  16.332  0.00  0.00    +0.000 HD
ENDROOT
BRANCH   5   8
ATOM      8  C   UNL     1       6.911   5.062  14.753  0.00  0.00    +0.000 A 
ATOM      9  C   UNL     1       6.076   4.007  14.351  0.00  0.00    +0.000 A 
ATOM     10  C   UNL     1       6.150   3.463  13.065  0.00  0.00    +0.000 A 
ATOM     11  C   UNL     1       7.063   3.979  12.161  0.00  0.00    +0.000 A 
ATOM     12  F   UNL     1       7.156   3.444  10.937  0.00  0.00    +0.000 F 
ATOM     13  C   UNL     1       7.890   5.037  12.516  0.00  0.00    +0.000 A 
ATOM     14  C   UNL     1       7.811   5.577  13.806  0.00  0.00    +0.000 A 
ENDBRANCH   5   8
BRANCH   1  15
ATOM     15  C   UNL     1       2.966   4.303  18.377  0.00  0.00    +0.000 C 
ATOM     16  C   UNL     1       2.652   4.040  19.890  0.00  0.00    +0.000 C 
ATOM     17  C   UNL     1       2.703   5.315  20.744  0.00  0.00    +0.000 C 
ATOM     18  C   UNL     1       1.727   6.378  20.220  0.00  0.00    +0.000 C 
ATOM     19  C   UNL     1       1.982   6.651  18.732  0.00  0.00    +0.000 C 
ATOM     20  C   UNL     1       1.966   5.381  17.893  0.00  0.00    +0.000 C 
BRANCH  18  21
ATOM     21  N   UNL     1       1.868   7.601  21.013  0.00  0.00    +0.000 NA
ATOM     22  H   UNL     1       1.374   7.499  21.902  0.00  0.00    +0.000 HD
BRANCH  21  23
ATOM     23  C   UNL     1       1.346   8.788  20.329  0.00  0.00    +0.000 C 
BRANCH  23  24
ATOM     24  C   UNL     1       0.514   9.671  21.224  0.00  0.00    +0.000 A 
ATOM     25  C   UNL     1      -0.069   9.193  22.406  0.00  0.00    +0.000 A 
ATOM     26  C   UNL     1      -0.829  10.040  23.212  0.00  0.00    +0.000 A 
ATOM     27  C   UNL     1      -0.987  11.379  22.860  0.00  0.00    +0.000 A 
ATOM     28  C   UNL     1      -0.367  11.879  21.718  0.00  0.00    +0.000 A 
ATOM     29  C   UNL     1       0.387  11.031  20.909  0.00  0.00    +0.000 A 
ENDBRANCH  23  24
ENDBRANCH  21  23
ENDBRANCH  18  21
BRANCH  15  30
ATOM     30  C   UNL     1       2.739   2.991  17.580  0.00  0.00    +0.000 C 
BRANCH  30  32
ATOM     31  N   UNL     1       3.952   0.926  18.678  0.00  0.00    +0.000 NA
ATOM     32  C   UNL     1       3.392   1.828  18.212  0.00  0.00    +0.000 C 
ENDBRANCH  30  32
ENDBRANCH  15  30
ENDBRANCH   1  15
BRANCH   3  33
ATOM     33  C   UNL     1       7.711   5.767  19.073  0.00  0.00    +0.000 C 
ATOM     34  N   UNL     1       8.180   6.993  18.689  0.00  0.00    +0.000 N 
ATOM     35  O   UNL     1       8.312   5.083  19.891  0.00  0.00    +0.000 OA
ATOM     36  H   UNL     1       7.576   7.667  18.238  0.00  0.00    +0.000 HD
ATOM     37  H   UNL     1       9.019   7.330  19.137  0.00  0.00    +0.000 HD
ENDBRANCH   3  33
TORSDOF 8
ENDMDL
MODEL 6
REMARK VINA RESULT:      -8.6      3.895      7.784
REMARK  Name = 
REMARK  8 active torsions:
REMARK  status: ('A' for Active; 'I' for Inactive)
REMARK    1  A    between atoms: C_2  and  C_3
REMARK    2  A    between atoms: C_3  and  C_4
REMARK    3  A    between atoms: C_4  and  N_5
REMARK    4  A    between atoms: C_7  and  C_8
REMARK    5  A    between atoms: N_12  and  C_13
REMARK    6  A    between atoms: C_23  and  N_24
REMARK    7  A    between atoms: N_24  and  C_25
REMARK    8  A    between atoms: C_25  and  C_26
REMARK                            x       y       z     vdW  Elec       q    Type
REMARK                         _______ _______ _______ _____ _____    ______ ____
ROOT
ATOM      1  N   UNL     1       4.465   4.786  18.324  0.00  0.00    +0.000 N 
ATOM      2  C   UNL     1       5.396   5.063  19.272  0.00  0.00    +0.000 A 
ATOM      3  C   UNL     1       6.556   5.412  18.599  0.00  0.00    +0.000 A 
ATOM      4  C   UNL     1       6.213   5.302  17.225  0.00  0.00    +0.000 A 
ATOM      5  N   UNL     1       7.108   5.455  16.206  0.00  0.00    +0.000 N 
ATOM      6  N   UNL     1       4.927   4.978  17.083  0.00  0.00    +0.000 NA
ATOM      7  H   UNL     1       8.023   5.831  16.452  0.00  0.00    +0.000 HD
ENDROOT
BRANCH   5   8
ATOM      8  C   UNL     1       7.060   4.913  14.900  0.00  0.00    +0.000 A 
ATOM      9  C   UNL     1       7.804   5.428  13.826  0.00  0.00    +0.000 A 
ATOM     10  C   UNL     1       7.628   4.958  12.521  0.00  0.00    +0.000 A 
ATOM     11  C   UNL     1       6.705   3.955  12.278  0.00  0.00    +0.000 A 
ATOM     12  F   UNL     1       6.515   3.520  11.026  0.00  0.00    +0.000 F 
ATOM     13  C   UNL     1       5.968   3.406  13.320  0.00  0.00    +0.000 A 
ATOM     14  C   UNL     1       6.148   3.881  14.624  0.00  0.00    +0.000 A 
ENDBRANCH   5   8
BRANCH   1  15
ATOM     15  C   UNL     1       3.043   4.434  18.493  0.00  0.00    +0.000 C 
ATOM     16  C   UNL     1       2.678   4.340  20.014  0.00  0.00    +0.000 C 
ATOM     17  C   UNL     1       2.733   5.698  20.730  0.00  0.00    +0.000 C 
ATOM     18  C   UNL     1       1.798   6.718  20.066  0.00  0.00    +0.000 C 
ATOM     19  C   UNL     1       2.104   6.826  18.566  0.00  0.00    +0.000 C 
ATOM     20  C   UNL     1       2.084   5.474  17.865  0.00  0.00    +0.000 C 
BRANCH  18  21
ATOM     21  N   UNL     1       1.944   8.016  20.729  0.00  0.00    +0.000 NA
ATOM     22  H   UNL     1       1.652   7.942  21.705  0.00  0.00    +0.000 HD
BRANCH  21  23
ATOM     23  C   UNL     1       1.156   9.074  20.090  0.00  0.00    +0.000 C 
BRANCH  23  24
ATOM     24  C   UNL     1       0.319   9.861  21.066  0.00  0.00    +0.000 A 
ATOM     25  C   UNL     1      -0.262  11.091  20.725  0.00  0.00    +0.000 A 
ATOM     26  C   UNL     1      -1.034  11.789  21.652  0.00  0.00    +0.000 A 
ATOM     27  C   UNL     1      -1.257  11.251  22.918  0.00  0.00    +0.000 A 
ATOM     28  C   UNL     1      -0.732  10.005  23.250  0.00  0.00    +0.000 A 
ATOM     29  C   UNL     1       0.045   9.309  22.326  0.00  0.00    +0.000 A 
ENDBRANCH  23  24
ENDBRANCH  21  23
ENDBRANCH  18  21
BRANCH  15  30
ATOM     30  C   UNL     1       2.811   3.049  17.833  0.00  0.00    +0.000 C 
BRANCH  30  32
ATOM     31  N   UNL     1       0.476   2.025  18.495  0.00  0.00    +0.000 NA
ATOM     32  C   UNL     1       1.518   2.452  18.218  0.00  0.00    +0.000 C 
ENDBRANCH  30  32
ENDBRANCH  15  30
ENDBRANCH   1  15
BRANCH   3  33
ATOM     33  C   UNL     1       7.819   5.793  19.195  0.00  0.00    +0.000 C 
ATOM     34  N   UNL     1       8.277   7.032  18.841  0.00  0.00    +0.000 N 
ATOM     35  O   UNL     1       8.430   5.091  19.990  0.00  0.00    +0.000 OA
ATOM     36  H   UNL     1       7.667   7.715  18.413  0.00  0.00    +0.000 HD
ATOM     37  H   UNL     1       9.118   7.362  19.291  0.00  0.00    +0.000 HD
ENDBRANCH   3  33
TORSDOF 8
ENDMDL
MODEL 7
REMARK VINA RESULT:      -8.6      3.951      7.542
REMARK  Name = 
REMARK  8 active torsions:
REMARK  status: ('A' for Active; 'I' for Inactive)
REMARK    1  A    between atoms: C_2  and  C_3
REMARK    2  A    between atoms: C_3  and  C_4
REMARK    3  A    between atoms: C_4  and  N_5
REMARK    4  A    between atoms: C_7  and  C_8
REMARK    5  A    between atoms: N_12  and  C_13
REMARK    6  A    between atoms: C_23  and  N_24
REMARK    7  A    between atoms: N_24  and  C_25
REMARK    8  A    between atoms: C_25  and  C_26
REMARK                            x       y       z     vdW  Elec       q    Type
REMARK                         _______ _______ _______ _____ _____    ______ ____
ROOT
ATOM      1  N   UNL     1       4.341   4.987  18.184  0.00  0.00    +0.000 N 
ATOM      2  C   UNL     1       5.270   5.279  19.129  0.00  0.00    +0.000 A 
ATOM      3  C   UNL     1       6.424   5.640  18.452  0.00  0.00    +0.000 A 
ATOM      4  C   UNL     1       6.080   5.520  17.080  0.00  0.00    +0.000 A 
ATOM      5  N   UNL     1       6.971   5.682  16.059  0.00  0.00    +0.000 N 
ATOM      6  N   UNL     1       4.798   5.179  16.941  0.00  0.00    +0.000 NA
ATOM      7  H   UNL     1       7.881   6.070  16.302  0.00  0.00    +0.000 HD
ENDROOT
BRANCH   5   8
ATOM      8  C   UNL     1       6.928   5.134  14.754  0.00  0.00    +0.000 A 
ATOM      9  C   UNL     1       6.098   4.059  14.399  0.00  0.00    +0.000 A 
ATOM     10  C   UNL     1       6.181   3.453  13.141  0.00  0.00    +0.000 A 
ATOM     11  C   UNL     1       7.099   3.926  12.219  0.00  0.00    +0.000 A 
ATOM     12  F   UNL     1       7.200   3.332  11.023  0.00  0.00    +0.000 F 
ATOM     13  C   UNL     1       7.921   5.002  12.527  0.00  0.00    +0.000 A 
ATOM     14  C   UNL     1       7.833   5.604  13.788  0.00  0.00    +0.000 A 
ENDBRANCH   5   8
BRANCH   1  15
ATOM     15  C   UNL     1       2.924   4.617  18.357  0.00  0.00    +0.000 C 
ATOM     16  C   UNL     1       2.609   4.344  19.867  0.00  0.00    +0.000 C 
ATOM     17  C   UNL     1       2.692   5.608  20.736  0.00  0.00    +0.000 C 
ATOM     18  C   UNL     1       1.739   6.699  20.227  0.00  0.00    +0.000 C 
ATOM     19  C   UNL     1       1.996   6.983  18.741  0.00  0.00    +0.000 C 
ATOM     20  C   UNL     1       1.948   5.723  17.888  0.00  0.00    +0.000 C 
BRANCH  18  21
ATOM     21  N   UNL     1       1.911   7.910  21.034  0.00  0.00    +0.000 NA
ATOM     22  H   UNL     1       2.415   7.686  21.895  0.00  0.00    +0.000 HD
BRANCH  21  23
ATOM     23  C   UNL     1       0.638   8.540  21.395  0.00  0.00    +0.000 C 
BRANCH  23  24
ATOM     24  C   UNL     1       0.359   9.801  20.618  0.00  0.00    +0.000 A 
ATOM     25  C   UNL     1      -0.640   9.865  19.637  0.00  0.00    +0.000 A 
ATOM     26  C   UNL     1      -0.872  11.050  18.940  0.00  0.00    +0.000 A 
ATOM     27  C   UNL     1      -0.129  12.190  19.240  0.00  0.00    +0.000 A 
ATOM     28  C   UNL     1       0.827  12.156  20.250  0.00  0.00    +0.000 A 
ATOM     29  C   UNL     1       1.065  10.969  20.942  0.00  0.00    +0.000 A 
ENDBRANCH  23  24
ENDBRANCH  21  23
ENDBRANCH  18  21
BRANCH  15  30
ATOM     30  C   UNL     1       2.665   3.319  17.546  0.00  0.00    +0.000 C 
BRANCH  30  32
ATOM     31  N   UNL     1       3.762   1.172  18.606  0.00  0.00    +0.000 NA
ATOM     32  C   UNL     1       3.290   2.134  18.164  0.00  0.00    +0.000 C 
ENDBRANCH  30  32
ENDBRANCH  15  30
ENDBRANCH   1  15
BRANCH   3  33
ATOM     33  C   UNL     1       7.683   6.040  19.045  0.00  0.00    +0.000 C 
ATOM     34  N   UNL     1       8.121   5.246  20.069  0.00  0.00    +0.000 N 
ATOM     35  O   UNL     1       8.343   6.992  18.650  0.00  0.00    +0.000 OA
ATOM     36  H   UNL     1       7.733   4.324  20.220  0.00  0.00    +0.000 HD
ATOM     37  H   UNL     1       9.028   5.451  20.459  0.00  0.00    +0.000 HD
ENDBRANCH   3  33
TORSDOF 8
ENDMDL
MODEL 8
REMARK VINA RESULT:      -8.5      3.928      7.850
REMARK  Name = 
REMARK  8 active torsions:
REMARK  status: ('A' for Active; 'I' for Inactive)
REMARK    1  A    between atoms: C_2  and  C_3
REMARK    2  A    between atoms: C_3  and  C_4
REMARK    3  A    between atoms: C_4  and  N_5
REMARK    4  A    between atoms: C_7  and  C_8
REMARK    5  A    between atoms: N_12  and  C_13
REMARK    6  A    between atoms: C_23  and  N_24
REMARK    7  A    between atoms: N_24  and  C_25
REMARK    8  A    between atoms: C_25  and  C_26
REMARK                            x       y       z     vdW  Elec       q    Type
REMARK                         _______ _______ _______ _____ _____    ______ ____
ROOT
ATOM      1  N   UNL     1       4.406   5.053  18.313  0.00  0.00    +0.000 N 
ATOM      2  C   UNL     1       5.368   5.376  19.215  0.00  0.00    +0.000 A 
ATOM      3  C   UNL     1       6.501   5.702  18.486  0.00  0.00    +0.000 A 
ATOM      4  C   UNL     1       6.112   5.529  17.132  0.00  0.00    +0.000 A 
ATOM      5  N   UNL     1       6.969   5.643  16.077  0.00  0.00    +0.000 N 
ATOM      6  N   UNL     1       4.823   5.192  17.049  0.00  0.00    +0.000 NA
ATOM      7  H   UNL     1       7.890   6.034  16.274  0.00  0.00    +0.000 HD
ENDROOT
BRANCH   5   8
ATOM      8  C   UNL     1       6.880   5.043  14.797  0.00  0.00    +0.000 A 
ATOM      9  C   UNL     1       6.114   3.896  14.538  0.00  0.00    +0.000 A 
ATOM     10  C   UNL     1       6.158   3.249  13.299  0.00  0.00    +0.000 A 
ATOM     11  C   UNL     1       6.971   3.754  12.299  0.00  0.00    +0.000 A 
ATOM     12  F   UNL     1       7.037   3.124  11.119  0.00  0.00    +0.000 F 
ATOM     13  C   UNL     1       7.726   4.900  12.512  0.00  0.00    +0.000 A 
ATOM     14  C   UNL     1       7.678   5.543  13.755  0.00  0.00    +0.000 A 
ENDBRANCH   5   8
BRANCH   1  15
ATOM     15  C   UNL     1       2.994   4.701  18.547  0.00  0.00    +0.000 C 
ATOM     16  C   UNL     1       2.640   4.833  20.067  0.00  0.00    +0.000 C 
ATOM     17  C   UNL     1       2.668   6.286  20.565  0.00  0.00    +0.000 C 
ATOM     18  C   UNL     1       1.707   7.172  19.761  0.00  0.00    +0.000 C 
ATOM     19  C   UNL     1       2.001   7.054  18.259  0.00  0.00    +0.000 C 
ATOM     20  C   UNL     1       2.008   5.611  17.775  0.00  0.00    +0.000 C 
BRANCH  18  21
ATOM     21  N   UNL     1       1.827   8.559  20.216  0.00  0.00    +0.000 NA
ATOM     22  H   UNL     1       1.877   8.587  21.236  0.00  0.00    +0.000 HD
BRANCH  21  23
ATOM     23  C   UNL     1       0.705   9.399  19.786  0.00  0.00    +0.000 C 
BRANCH  23  24
ATOM     24  C   UNL     1       0.022  10.107  20.928  0.00  0.00    +0.000 A 
ATOM     25  C   UNL     1      -0.529  11.389  20.786  0.00  0.00    +0.000 A 
ATOM     26  C   UNL     1      -1.156  12.011  21.864  0.00  0.00    +0.000 A 
ATOM     27  C   UNL     1      -1.266  11.347  23.084  0.00  0.00    +0.000 A 
ATOM     28  C   UNL     1      -0.773  10.053  23.222  0.00  0.00    +0.000 A 
ATOM     29  C   UNL     1      -0.139   9.432  22.146  0.00  0.00    +0.000 A 
ENDBRANCH  23  24
ENDBRANCH  21  23
ENDBRANCH  18  21
BRANCH  15  30
ATOM     30  C   UNL     1       2.789   3.226  18.108  0.00  0.00    +0.000 C 
BRANCH  30  32
ATOM     31  N   UNL     1       0.350   2.379  18.632  0.00  0.00    +0.000 NA
ATOM     32  C   UNL     1       1.435   2.729  18.421  0.00  0.00    +0.000 C 
ENDBRANCH  30  32
ENDBRANCH  15  30
ENDBRANCH   1  15
BRANCH   3  33
ATOM     33  C   UNL     1       7.781   6.116  19.021  0.00  0.00    +0.000 C 
ATOM     34  N   UNL     1       8.305   5.291  19.979  0.00  0.00    +0.000 N 
ATOM     35  O   UNL     1       8.387   7.106  18.633  0.00  0.00    +0.000 OA
ATOM     36  H   UNL     1       7.955   4.352  20.109  0.00  0.00    +0.000 HD
ATOM     37  H   UNL     1       9.228   5.508  20.324  0.00  0.00    +0.000 HD
ENDBRANCH   3  33
TORSDOF 8
ENDMDL
MODEL 9
REMARK VINA RESULT:      -8.5      3.851      7.857
REMARK  Name = 
REMARK  8 active torsions:
REMARK  status: ('A' for Active; 'I' for Inactive)
REMARK    1  A    between atoms: C_2  and  C_3
REMARK    2  A    between atoms: C_3  and  C_4
REMARK    3  A    between atoms: C_4  and  N_5
REMARK    4  A    between atoms: C_7  and  C_8
REMARK    5  A    between atoms: N_12  and  C_13
REMARK    6  A    between atoms: C_23  and  N_24
REMARK    7  A    between atoms: N_24  and  C_25
REMARK    8  A    between atoms: C_25  and  C_26
REMARK                            x       y       z     vdW  Elec       q    Type
REMARK                         _______ _______ _______ _____ _____    ______ ____
ROOT
ATOM      1  N   UNL     1       4.533   5.011  18.455  0.00  0.00    +0.000 N 
ATOM      2  C   UNL     1       5.520   5.352  19.323  0.00  0.00    +0.000 A 
ATOM      3  C   UNL     1       6.617   5.710  18.555  0.00  0.00    +0.000 A 
ATOM      4  C   UNL     1       6.181   5.536  17.215  0.00  0.00    +0.000 A 
ATOM      5  N   UNL     1       6.996   5.677  16.129  0.00  0.00    +0.000 N 
ATOM      6  N   UNL     1       4.899   5.168  17.177  0.00  0.00    +0.000 NA
ATOM      7  H   UNL     1       7.914   6.090  16.295  0.00  0.00    +0.000 HD
ENDROOT
BRANCH   5   8
ATOM      8  C   UNL     1       6.874   5.084  14.850  0.00  0.00    +0.000 A 
ATOM      9  C   UNL     1       6.024   3.999  14.584  0.00  0.00    +0.000 A 
ATOM     10  C   UNL     1       6.031   3.349  13.346  0.00  0.00    +0.000 A 
ATOM     11  C   UNL     1       6.891   3.787  12.354  0.00  0.00    +0.000 A 
ATOM     12  F   UNL     1       6.919   3.151  11.175  0.00  0.00    +0.000 F 
ATOM     13  C   UNL     1       7.730   4.872  12.573  0.00  0.00    +0.000 A 
ATOM     14  C   UNL     1       7.719   5.518  13.815  0.00  0.00    +0.000 A 
ENDBRANCH   5   8
BRANCH   1  15
ATOM     15  C   UNL     1       3.140   4.622  18.738  0.00  0.00    +0.000 C 
ATOM     16  C   UNL     1       2.738   5.042  20.193  0.00  0.00    +0.000 C 
ATOM     17  C   UNL     1       2.664   6.565  20.379  0.00  0.00    +0.000 C 
ATOM     18  C   UNL     1       1.671   7.201  19.396  0.00  0.00    +0.000 C 
ATOM     19  C   UNL     1       2.012   6.796  17.956  0.00  0.00    +0.000 C 
ATOM     20  C   UNL     1       2.120   5.287  17.782  0.00  0.00    +0.000 C 
BRANCH  18  21
ATOM     21  N   UNL     1       1.694   8.657  19.555  0.00  0.00    +0.000 NA
ATOM     22  H   UNL     1       1.025   8.939  20.274  0.00  0.00    +0.000 HD
BRANCH  21  23
ATOM     23  C   UNL     1       1.369   9.371  18.316  0.00  0.00    +0.000 C 
BRANCH  23  24
ATOM     24  C   UNL     1       0.025  10.052  18.359  0.00  0.00    +0.000 A 
ATOM     25  C   UNL     1      -1.040   9.647  17.542  0.00  0.00    +0.000 A 
ATOM     26  C   UNL     1      -2.271  10.298  17.612  0.00  0.00    +0.000 A 
ATOM     27  C   UNL     1      -2.458  11.339  18.520  0.00  0.00    +0.000 A 
ATOM     28  C   UNL     1      -1.425  11.714  19.375  0.00  0.00    +0.000 A 
ATOM     29  C   UNL     1      -0.192  11.067  19.301  0.00  0.00    +0.000 A 
ENDBRANCH  23  24
ENDBRANCH  21  23
ENDBRANCH  18  21
BRANCH  15  30
ATOM     30  C   UNL     1       3.037   3.079  18.613  0.00  0.00    +0.000 C 
BRANCH  30  32
ATOM     31  N   UNL     1       4.759   1.878  20.204  0.00  0.00    +0.000 NA
ATOM     32  C   UNL     1       3.992   2.378  19.492  0.00  0.00    +0.000 C 
ENDBRANCH  30  32
ENDBRANCH  15  30
ENDBRANCH   1  15
BRANCH   3  33
ATOM     33  C   UNL     1       7.905   6.152  19.045  0.00  0.00    +0.000 C 
ATOM     34  N   UNL     1       8.492   5.325  19.963  0.00  0.00    +0.000 N 
ATOM     35  O   UNL     1       8.465   7.167  18.653  0.00  0.00    +0.000 OA
ATOM     36  H   UNL     1       8.176   4.373  20.089  0.00  0.00    +0.000 HD
ATOM     37  H   UNL     1       9.422   5.563  20.274  0.00  0.00    +0.000 HD
ENDBRANCH   3  33
TORSDOF 8
ENDMDL
