MODEL 1
REMARK VINA RESULT:      -5.6      0.000      0.000
REMARK  Name = 
REMARK  20 active torsions:
REMARK  status: ('A' for Active; 'I' for Inactive)
REMARK    1  A    between atoms: C_1  and  C_2
REMARK    2  A    between atoms: C_4  and  C_5
REMARK    3  A    between atoms: C_6  and  C_7
REMARK    4  A    between atoms: C_8  and  O_9
REMARK    5  A    between atoms: O_9  and  C_10
REMARK    6  A    between atoms: C_10  and  C_12
REMARK    7  A    between atoms: C_12  and  C_13
REMARK    8  A    between atoms: C_13  and  C_14
REMARK    9  A    between atoms: C_13  and  C_15
REMARK   10  A    between atoms: C_13  and  C_16
REMARK   11  A    between atoms: C_17  and  C_18
REMARK   12  A    between atoms: C_17  and  C_19
REMARK   13  A    between atoms: N_20  and  O_21
REMARK   14  A    between atoms: O_21  and  C_22
REMARK   15  A    between atoms: C_22  and  C_24
REMARK   16  A    between atoms: C_24  and  C_25
REMARK   17  A    between atoms: C_25  and  C_26
REMARK   18  A    between atoms: C_25  and  C_27
REMARK   19  A    between atoms: C_25  and  C_28
REMARK   20  A    between atoms: C_31  and  C_32
REMARK                            x       y       z     vdW  Elec       q    Type
REMARK                         _______ _______ _______ _____ _____    ______ ____
ROOT
ATOM      1  C   UNL     1       0.817  11.324  19.767  0.00  0.00    +0.000 C 
ATOM      2  C   UNL     1       0.164  10.614  20.703  0.00  0.00    +0.000 C 
ATOM      3  C   UNL     1       0.650   9.185  20.823  0.00  0.00    +0.000 C 
ATOM      4  C   UNL     1      -0.510   8.183  20.751  0.00  0.00    +0.000 C 
ATOM      5  C   UNL     1       1.539   9.009  22.067  0.00  0.00    +0.000 C 
ATOM      6  N   UNL     1       1.560   9.123  19.673  0.00  0.00    +0.000 N 
ATOM      7  C   UNL     1       1.665  10.346  19.023  0.00  0.00    +0.000 C 
ATOM      8  O   UNL     1       2.225  10.580  17.963  0.00  0.00    +0.000 OA
ENDROOT
BRANCH   1  14
ATOM      9  C   UNL     1       0.070  16.922  18.406  0.00  0.00    +0.000 C 
ATOM     10  C   UNL     1       0.255  15.479  18.790  0.00  0.00    +0.000 A 
ATOM     11  C   UNL     1       1.300  15.076  19.608  0.00  0.00    +0.000 A 
ATOM     12  C   UNL     1       1.487  13.715  19.934  0.00  0.00    +0.000 A 
ATOM     13  C   UNL     1       2.645  13.359  20.830  0.00  0.00    +0.000 C 
ATOM     14  C   UNL     1       0.600  12.730  19.419  0.00  0.00    +0.000 A 
ATOM     15  C   UNL     1      -0.483  13.149  18.613  0.00  0.00    +0.000 A 
ATOM     16  C   UNL     1      -1.487  12.197  18.016  0.00  0.00    +0.000 C 
ATOM     17  C   UNL     1      -0.633  14.513  18.301  0.00  0.00    +0.000 A 
ENDBRANCH   1  14
BRANCH   2  18
ATOM     18  O   UNL     1      -1.003  11.086  21.358  0.00  0.00    +0.000 OA
BRANCH  18  19
ATOM     19  C   UNL     1      -0.922  11.548  22.644  0.00  0.00    +0.000 C 
ATOM     20  O   UNL     1      -0.961  10.862  23.656  0.00  0.00    +0.000 OA
BRANCH  19  21
ATOM     21  C   UNL     1      -0.715  13.040  22.697  0.00  0.00    +0.000 C 
BRANCH  21  22
ATOM     22  C   UNL     1      -2.030  13.822  22.484  0.00  0.00    +0.000 C 
ATOM     23  C   UNL     1      -2.786  13.932  23.816  0.00  0.00    +0.000 C 
ATOM     24  C   UNL     1      -1.705  15.240  21.981  0.00  0.00    +0.000 C 
ATOM     25  C   UNL     1      -2.926  13.142  21.431  0.00  0.00    +0.000 C 
ENDBRANCH  21  22
ENDBRANCH  19  21
ENDBRANCH  18  19
ENDBRANCH   2  18
BRANCH   6  26
ATOM     26  O   UNL     1       1.423   8.003  18.801  0.00  0.00    +0.000 OA
BRANCH  26  27
ATOM     27  C   UNL     1       2.528   7.187  18.769  0.00  0.00    +0.000 C 
ATOM     28  O   UNL     1       3.493   7.310  18.027  0.00  0.00    +0.000 OA
BRANCH  27  29
ATOM     29  C   UNL     1       2.484   6.149  19.866  0.00  0.00    +0.000 C 
BRANCH  29  30
ATOM     30  C   UNL     1       2.175   4.725  19.362  0.00  0.00    +0.000 C 
ATOM     31  C   UNL     1       1.719   4.713  17.890  0.00  0.00    +0.000 C 
ATOM     32  C   UNL     1       3.463   3.887  19.462  0.00  0.00    +0.000 C 
ATOM     33  C   UNL     1       1.090   4.090  20.242  0.00  0.00    +0.000 C 
ENDBRANCH  29  30
ENDBRANCH  27  29
ENDBRANCH  26  27
ENDBRANCH   6  26
TORSDOF 9
ENDMDL
MODEL 2
REMARK VINA RESULT:      -5.5      0.406      1.581
REMARK  Name = 
REMARK  20 active torsions:
REMARK  status: ('A' for Active; 'I' for Inactive)
REMARK    1  A    between atoms: C_1  and  C_2
REMARK    2  A    between atoms: C_4  and  C_5
REMARK    3  A    between atoms: C_6  and  C_7
REMARK    4  A    between atoms: C_8  and  O_9
REMARK    5  A    between atoms: O_9  and  C_10
REMARK    6  A    between atoms: C_10  and  C_12
REMARK    7  A    between atoms: C_12  and  C_13
REMARK    8  A    between atoms: C_13  and  C_14
REMARK    9  A    between atoms: C_13  and  C_15
REMARK   10  A    between atoms: C_13  and  C_16
REMARK   11  A    between atoms: C_17  and  C_18
REMARK   12  A    between atoms: C_17  and  C_19
REMARK   13  A    between atoms: N_20  and  O_21
REMARK   14  A    between atoms: O_21  and  C_22
REMARK   15  A    between atoms: C_22  and  C_24
REMARK   16  A    between atoms: C_24  and  C_25
REMARK   17  A    between atoms: C_25  and  C_26
REMARK   18  A    between atoms: C_25  and  C_27
REMARK   19  A    between atoms: C_25  and  C_28
REMARK   20  A    between atoms: C_31  and  C_32
REMARK                            x       y       z     vdW  Elec       q    Type
REMARK                         _______ _______ _______ _____ _____    ______ ____
ROOT
ATOM      1  C   UNL     1       0.842  11.389  19.782  0.00  0.00    +0.000 C 
ATOM      2  C   UNL     1       0.179  10.656  20.694  0.00  0.00    +0.000 C 
ATOM      3  C   UNL     1       0.652   9.219  20.771  0.00  0.00    +0.000 C 
ATOM      4  C   UNL     1      -0.517   8.231  20.664  0.00  0.00    +0.000 C 
ATOM      5  C   UNL     1       1.535   8.997  22.011  0.00  0.00    +0.000 C 
ATOM      6  N   UNL     1       1.564   9.185  19.622  0.00  0.00    +0.000 N 
ATOM      7  C   UNL     1       1.682  10.427  19.009  0.00  0.00    +0.000 C 
ATOM      8  O   UNL     1       2.248  10.688  17.959  0.00  0.00    +0.000 OA
ENDROOT
BRANCH   1  14
ATOM      9  C   UNL     1      -0.074  16.993  18.556  0.00  0.00    +0.000 C 
ATOM     10  C   UNL     1       0.172  15.536  18.842  0.00  0.00    +0.000 A 
ATOM     11  C   UNL     1      -0.659  14.549  18.335  0.00  0.00    +0.000 A 
ATOM     12  C   UNL     1      -0.442  13.187  18.637  0.00  0.00    +0.000 A 
ATOM     13  C   UNL     1      -1.389  12.176  18.044  0.00  0.00    +0.000 C 
ATOM     14  C   UNL     1       0.639  12.807  19.478  0.00  0.00    +0.000 A 
ATOM     15  C   UNL     1       1.504  13.814  19.966  0.00  0.00    +0.000 A 
ATOM     16  C   UNL     1       2.683  13.530  20.861  0.00  0.00    +0.000 C 
ATOM     17  C   UNL     1       1.251  15.162  19.652  0.00  0.00    +0.000 A 
ENDBRANCH   1  14
BRANCH   2  18
ATOM     18  O   UNL     1      -0.985  11.119  21.361  0.00  0.00    +0.000 OA
BRANCH  18  19
ATOM     19  C   UNL     1      -0.917  11.479  22.679  0.00  0.00    +0.000 C 
ATOM     20  O   UNL     1      -0.889  10.712  23.631  0.00  0.00    +0.000 OA
BRANCH  19  21
ATOM     21  C   UNL     1      -0.818  12.973  22.853  0.00  0.00    +0.000 C 
BRANCH  21  22
ATOM     22  C   UNL     1      -2.207  13.648  22.914  0.00  0.00    +0.000 C 
ATOM     23  C   UNL     1      -2.232  14.674  24.056  0.00  0.00    +0.000 C 
ATOM     24  C   UNL     1      -2.478  14.379  21.586  0.00  0.00    +0.000 C 
ATOM     25  C   UNL     1      -3.329  12.612  23.119  0.00  0.00    +0.000 C 
ENDBRANCH  21  22
ENDBRANCH  19  21
ENDBRANCH  18  19
ENDBRANCH   2  18
BRANCH   6  26
ATOM     26  O   UNL     1       1.419   8.094  18.714  0.00  0.00    +0.000 OA
BRANCH  26  27
ATOM     27  C   UNL     1       2.525   7.282  18.643  0.00  0.00    +0.000 C 
ATOM     28  O   UNL     1       3.445   7.386  17.844  0.00  0.00    +0.000 OA
BRANCH  27  29
ATOM     29  C   UNL     1       2.549   6.277  19.771  0.00  0.00    +0.000 C 
BRANCH  29  30
ATOM     30  C   UNL     1       2.221   4.837  19.327  0.00  0.00    +0.000 C 
ATOM     31  C   UNL     1       1.708   4.776  17.876  0.00  0.00    +0.000 C 
ATOM     32  C   UNL     1       3.512   4.001  19.406  0.00  0.00    +0.000 C 
ATOM     33  C   UNL     1       1.171   4.233  20.270  0.00  0.00    +0.000 C 
ENDBRANCH  29  30
ENDBRANCH  27  29
ENDBRANCH  26  27
ENDBRANCH   6  26
TORSDOF 9
ENDMDL
MODEL 3
REMARK VINA RESULT:      -5.5      0.428      1.928
REMARK  Name = 
REMARK  20 active torsions:
REMARK  status: ('A' for Active; 'I' for Inactive)
REMARK    1  A    between atoms: C_1  and  C_2
REMARK    2  A    between atoms: C_4  and  C_5
REMARK    3  A    between atoms: C_6  and  C_7
REMARK    4  A    between atoms: C_8  and  O_9
REMARK    5  A    between atoms: O_9  and  C_10
REMARK    6  A    between atoms: C_10  and  C_12
REMARK    7  A    between atoms: C_12  and  C_13
REMARK    8  A    between atoms: C_13  and  C_14
REMARK    9  A    between atoms: C_13  and  C_15
REMARK   10  A    between atoms: C_13  and  C_16
REMARK   11  A    between atoms: C_17  and  C_18
REMARK   12  A    between atoms: C_17  and  C_19
REMARK   13  A    between atoms: N_20  and  O_21
REMARK   14  A    between atoms: O_21  and  C_22
REMARK   15  A    between atoms: C_22  and  C_24
REMARK   16  A    between atoms: C_24  and  C_25
REMARK   17  A    between atoms: C_25  and  C_26
REMARK   18  A    between atoms: C_25  and  C_27
REMARK   19  A    between atoms: C_25  and  C_28
REMARK   20  A    between atoms: C_31  and  C_32
REMARK                            x       y       z     vdW  Elec       q    Type
REMARK                         _______ _______ _______ _____ _____    ______ ____
ROOT
ATOM      1  C   UNL     1       0.834  11.204  19.798  0.00  0.00    +0.000 C 
ATOM      2  C   UNL     1       0.204  10.476  20.737  0.00  0.00    +0.000 C 
ATOM      3  C   UNL     1       0.703   9.050  20.830  0.00  0.00    +0.000 C 
ATOM      4  C   UNL     1      -0.451   8.040  20.767  0.00  0.00    +0.000 C 
ATOM      5  C   UNL     1       1.616   8.865  22.055  0.00  0.00    +0.000 C 
ATOM      6  N   UNL     1       1.591   9.009  19.663  0.00  0.00    +0.000 N 
ATOM      7  C   UNL     1       1.675  10.241  19.025  0.00  0.00    +0.000 C 
ATOM      8  O   UNL     1       2.213  10.492  17.959  0.00  0.00    +0.000 OA
ENDROOT
BRANCH   1  14
ATOM      9  C   UNL     1      -0.204  16.766  18.485  0.00  0.00    +0.000 C 
ATOM     10  C   UNL     1       0.074  15.320  18.794  0.00  0.00    +0.000 A 
ATOM     11  C   UNL     1      -0.732  14.306  18.298  0.00  0.00    +0.000 A 
ATOM     12  C   UNL     1      -0.486  12.955  18.621  0.00  0.00    +0.000 A 
ATOM     13  C   UNL     1      -1.406  11.913  18.040  0.00  0.00    +0.000 C 
ATOM     14  C   UNL     1       0.601  12.612  19.472  0.00  0.00    +0.000 A 
ATOM     15  C   UNL     1       1.439  13.645  19.949  0.00  0.00    +0.000 A 
ATOM     16  C   UNL     1       2.621  13.401  20.853  0.00  0.00    +0.000 C 
ATOM     17  C   UNL     1       1.157  14.982  19.613  0.00  0.00    +0.000 A 
ENDBRANCH   1  14
BRANCH   2  18
ATOM     18  O   UNL     1      -0.954  10.932  21.420  0.00  0.00    +0.000 OA
BRANCH  18  19
ATOM     19  C   UNL     1      -0.861  11.335  22.724  0.00  0.00    +0.000 C 
ATOM     20  O   UNL     1      -0.722  10.602  23.693  0.00  0.00    +0.000 OA
BRANCH  19  21
ATOM     21  C   UNL     1      -0.890  12.836  22.856  0.00  0.00    +0.000 C 
BRANCH  21  22
ATOM     22  C   UNL     1      -2.330  13.397  22.845  0.00  0.00    +0.000 C 
ATOM     23  C   UNL     1      -2.771  13.657  21.397  0.00  0.00    +0.000 C 
ATOM     24  C   UNL     1      -3.283  12.366  23.475  0.00  0.00    +0.000 C 
ATOM     25  C   UNL     1      -2.435  14.698  23.663  0.00  0.00    +0.000 C 
ENDBRANCH  21  22
ENDBRANCH  19  21
ENDBRANCH  18  19
ENDBRANCH   2  18
BRANCH   6  26
ATOM     26  O   UNL     1       1.446   7.899  18.779  0.00  0.00    +0.000 OA
BRANCH  26  27
ATOM     27  C   UNL     1       2.558   7.095  18.712  0.00  0.00    +0.000 C 
ATOM     28  O   UNL     1       3.498   7.229  17.941  0.00  0.00    +0.000 OA
BRANCH  27  29
ATOM     29  C   UNL     1       2.558   6.055  19.808  0.00  0.00    +0.000 C 
BRANCH  29  30
ATOM     30  C   UNL     1       2.205   4.636  19.318  0.00  0.00    +0.000 C 
ATOM     31  C   UNL     1       3.405   3.674  19.407  0.00  0.00    +0.000 C 
ATOM     32  C   UNL     1       1.087   4.078  20.219  0.00  0.00    +0.000 C 
ATOM     33  C   UNL     1       1.702   4.700  17.870  0.00  0.00    +0.000 C 
ENDBRANCH  29  30
ENDBRANCH  27  29
ENDBRANCH  26  27
ENDBRANCH   6  26
TORSDOF 9
ENDMDL
MODEL 4
REMARK VINA RESULT:      -5.4      0.088      1.070
REMARK  Name = 
REMARK  20 active torsions:
REMARK  status: ('A' for Active; 'I' for Inactive)
REMARK    1  A    between atoms: C_1  and  C_2
REMARK    2  A    between atoms: C_4  and  C_5
REMARK    3  A    between atoms: C_6  and  C_7
REMARK    4  A    between atoms: C_8  and  O_9
REMARK    5  A    between atoms: O_9  and  C_10
REMARK    6  A    between atoms: C_10  and  C_12
REMARK    7  A    between atoms: C_12  and  C_13
REMARK    8  A    between atoms: C_13  and  C_14
REMARK    9  A    between atoms: C_13  and  C_15
REMARK   10  A    between atoms: C_13  and  C_16
REMARK   11  A    between atoms: C_17  and  C_18
REMARK   12  A    between atoms: C_17  and  C_19
REMARK   13  A    between atoms: N_20  and  O_21
REMARK   14  A    between atoms: O_21  and  C_22
REMARK   15  A    between atoms: C_22  and  C_24
REMARK   16  A    between atoms: C_24  and  C_25
REMARK   17  A    between atoms: C_25  and  C_26
REMARK   18  A    between atoms: C_25  and  C_27
REMARK   19  A    between atoms: C_25  and  C_28
REMARK   20  A    between atoms: C_31  and  C_32
REMARK                            x       y       z     vdW  Elec       q    Type
REMARK                         _______ _______ _______ _____ _____    ______ ____
ROOT
ATOM      1  C   UNL     1       0.824  11.375  19.758  0.00  0.00    +0.000 C 
ATOM      2  C   UNL     1       0.159  10.673  20.693  0.00  0.00    +0.000 C 
ATOM      3  C   UNL     1       0.631   9.240  20.821  0.00  0.00    +0.000 C 
ATOM      4  C   UNL     1      -0.538   8.249  20.744  0.00  0.00    +0.000 C 
ATOM      5  C   UNL     1       1.510   9.061  22.071  0.00  0.00    +0.000 C 
ATOM      6  N   UNL     1       1.547   9.166  19.677  0.00  0.00    +0.000 N 
ATOM      7  C   UNL     1       1.668  10.386  19.023  0.00  0.00    +0.000 C 
ATOM      8  O   UNL     1       2.237  10.612  17.966  0.00  0.00    +0.000 OA
ENDROOT
BRANCH   1  14
ATOM      9  C   UNL     1       0.139  16.975  18.373  0.00  0.00    +0.000 C 
ATOM     10  C   UNL     1       0.307  15.531  18.763  0.00  0.00    +0.000 A 
ATOM     11  C   UNL     1       1.351  15.119  19.579  0.00  0.00    +0.000 A 
ATOM     12  C   UNL     1       1.523  13.758  19.911  0.00  0.00    +0.000 A 
ATOM     13  C   UNL     1       2.680  13.393  20.805  0.00  0.00    +0.000 C 
ATOM     14  C   UNL     1       0.623  12.781  19.405  0.00  0.00    +0.000 A 
ATOM     15  C   UNL     1      -0.458  13.209  18.601  0.00  0.00    +0.000 A 
ATOM     16  C   UNL     1      -1.476  12.266  18.012  0.00  0.00    +0.000 C 
ATOM     17  C   UNL     1      -0.593  14.573  18.283  0.00  0.00    +0.000 A 
ENDBRANCH   1  14
BRANCH   2  18
ATOM     18  O   UNL     1      -1.008  11.158  21.339  0.00  0.00    +0.000 OA
BRANCH  18  19
ATOM     19  C   UNL     1      -0.931  11.625  22.623  0.00  0.00    +0.000 C 
ATOM     20  O   UNL     1      -1.021  10.949  23.638  0.00  0.00    +0.000 OA
BRANCH  19  21
ATOM     21  C   UNL     1      -0.658  13.106  22.671  0.00  0.00    +0.000 C 
BRANCH  21  22
ATOM     22  C   UNL     1      -1.946  13.945  22.510  0.00  0.00    +0.000 C 
ATOM     23  C   UNL     1      -1.587  15.350  22.007  0.00  0.00    +0.000 C 
ATOM     24  C   UNL     1      -2.868  13.271  21.478  0.00  0.00    +0.000 C 
ATOM     25  C   UNL     1      -2.721  14.049  23.838  0.00  0.00    +0.000 C 
ENDBRANCH  21  22
ENDBRANCH  19  21
ENDBRANCH  18  19
ENDBRANCH   2  18
BRANCH   6  26
ATOM     26  O   UNL     1       1.406   8.044  18.807  0.00  0.00    +0.000 OA
BRANCH  26  27
ATOM     27  C   UNL     1       2.489   7.199  18.812  0.00  0.00    +0.000 C 
ATOM     28  O   UNL     1       3.483   7.299  18.107  0.00  0.00    +0.000 OA
BRANCH  27  29
ATOM     29  C   UNL     1       2.376   6.159  19.902  0.00  0.00    +0.000 C 
BRANCH  29  30
ATOM     30  C   UNL     1       2.176   4.724  19.373  0.00  0.00    +0.000 C 
ATOM     31  C   UNL     1       1.084   3.964  20.150  0.00  0.00    +0.000 C 
ATOM     32  C   UNL     1       1.733   4.810  17.901  0.00  0.00    +0.000 C 
ATOM     33  C   UNL     1       3.500   3.953  19.458  0.00  0.00    +0.000 C 
ENDBRANCH  29  30
ENDBRANCH  27  29
ENDBRANCH  26  27
ENDBRANCH   6  26
TORSDOF 9
ENDMDL
MODEL 5
REMARK VINA RESULT:      -5.2      3.579      5.855
REMARK  Name = 
REMARK  20 active torsions:
REMARK  status: ('A' for Active; 'I' for Inactive)
REMARK    1  A    between atoms: C_1  and  C_2
REMARK    2  A    between atoms: C_4  and  C_5
REMARK    3  A    between atoms: C_6  and  C_7
REMARK    4  A    between atoms: C_8  and  O_9
REMARK    5  A    between atoms: O_9  and  C_10
REMARK    6  A    between atoms: C_10  and  C_12
REMARK    7  A    between atoms: C_12  and  C_13
REMARK    8  A    between atoms: C_13  and  C_14
REMARK    9  A    between atoms: C_13  and  C_15
REMARK   10  A    between atoms: C_13  and  C_16
REMARK   11  A    between atoms: C_17  and  C_18
REMARK   12  A    between atoms: C_17  and  C_19
REMARK   13  A    between atoms: N_20  and  O_21
REMARK   14  A    between atoms: O_21  and  C_22
REMARK   15  A    between atoms: C_22  and  C_24
REMARK   16  A    between atoms: C_24  and  C_25
REMARK   17  A    between atoms: C_25  and  C_26
REMARK   18  A    between atoms: C_25  and  C_27
REMARK   19  A    between atoms: C_25  and  C_28
REMARK   20  A    between atoms: C_31  and  C_32
REMARK                            x       y       z     vdW  Elec       q    Type
REMARK                         _______ _______ _______ _____ _____    ______ ____
ROOT
ATOM      1  C   UNL     1      -1.998  13.837  21.240  0.00  0.00    +0.000 C 
ATOM      2  C   UNL     1      -0.666  13.683  21.343  0.00  0.00    +0.000 C 
ATOM      3  C   UNL     1      -0.073  12.817  20.253  0.00  0.00    +0.000 C 
ATOM      4  C   UNL     1       0.806  11.699  20.830  0.00  0.00    +0.000 C 
ATOM      5  C   UNL     1       0.642  13.677  19.195  0.00  0.00    +0.000 C 
ATOM      6  N   UNL     1      -1.300  12.334  19.608  0.00  0.00    +0.000 N 
ATOM      7  C   UNL     1      -2.441  12.892  20.172  0.00  0.00    +0.000 C 
ATOM      8  O   UNL     1      -3.604  12.589  19.954  0.00  0.00    +0.000 OA
ENDROOT
BRANCH   1  14
ATOM      9  C   UNL     1      -5.463  17.027  24.640  0.00  0.00    +0.000 C 
ATOM     10  C   UNL     1      -4.540  16.220  23.768  0.00  0.00    +0.000 A 
ATOM     11  C   UNL     1      -4.013  16.741  22.595  0.00  0.00    +0.000 A 
ATOM     12  C   UNL     1      -3.177  15.965  21.764  0.00  0.00    +0.000 A 
ATOM     13  C   UNL     1      -2.643  16.605  20.508  0.00  0.00    +0.000 C 
ATOM     14  C   UNL     1      -2.864  14.625  22.120  0.00  0.00    +0.000 A 
ATOM     15  C   UNL     1      -3.376  14.109  23.332  0.00  0.00    +0.000 A 
ATOM     16  C   UNL     1      -3.108  12.705  23.813  0.00  0.00    +0.000 C 
ATOM     17  C   UNL     1      -4.214  14.908  24.131  0.00  0.00    +0.000 A 
ENDBRANCH   1  14
BRANCH   2  18
ATOM     18  O   UNL     1       0.075  14.106  22.477  0.00  0.00    +0.000 OA
BRANCH  18  19
ATOM     19  C   UNL     1       1.051  15.056  22.337  0.00  0.00    +0.000 C 
ATOM     20  O   UNL     1       2.256  14.856  22.372  0.00  0.00    +0.000 OA
BRANCH  19  21
ATOM     21  C   UNL     1       0.475  16.423  22.068  0.00  0.00    +0.000 C 
BRANCH  21  22
ATOM     22  C   UNL     1       0.206  17.211  23.369  0.00  0.00    +0.000 C 
ATOM     23  C   UNL     1      -0.502  16.303  24.385  0.00  0.00    +0.000 C 
ATOM     24  C   UNL     1       1.545  17.675  23.971  0.00  0.00    +0.000 C 
ATOM     25  C   UNL     1      -0.651  18.463  23.103  0.00  0.00    +0.000 C 
ENDBRANCH  21  22
ENDBRANCH  19  21
ENDBRANCH  18  19
ENDBRANCH   2  18
BRANCH   6  26
ATOM     26  O   UNL     1      -1.392  10.932  19.362  0.00  0.00    +0.000 OA
BRANCH  26  27
ATOM     27  C   UNL     1      -1.105  10.577  18.066  0.00  0.00    +0.000 C 
ATOM     28  O   UNL     1      -0.314   9.713  17.714  0.00  0.00    +0.000 OA
BRANCH  27  29
ATOM     29  C   UNL     1      -1.986  11.311  17.082  0.00  0.00    +0.000 C 
BRANCH  29  30
ATOM     30  C   UNL     1      -3.253  10.529  16.680  0.00  0.00    +0.000 C 
ATOM     31  C   UNL     1      -3.594   9.415  17.688  0.00  0.00    +0.000 C 
ATOM     32  C   UNL     1      -4.438  11.513  16.648  0.00  0.00    +0.000 C 
ATOM     33  C   UNL     1      -3.064   9.920  15.285  0.00  0.00    +0.000 C 
ENDBRANCH  29  30
ENDBRANCH  27  29
ENDBRANCH  26  27
ENDBRANCH   6  26
TORSDOF 9
ENDMDL
MODEL 6
REMARK VINA RESULT:      -5.1      0.632      1.950
REMARK  Name = 
REMARK  20 active torsions:
REMARK  status: ('A' for Active; 'I' for Inactive)
REMARK    1  A    between atoms: C_1  and  C_2
REMARK    2  A    between atoms: C_4  and  C_5
REMARK    3  A    between atoms: C_6  and  C_7
REMARK    4  A    between atoms: C_8  and  O_9
REMARK    5  A    between atoms: O_9  and  C_10
REMARK    6  A    between atoms: C_10  and  C_12
REMARK    7  A    between atoms: C_12  and  C_13
REMARK    8  A    between atoms: C_13  and  C_14
REMARK    9  A    between atoms: C_13  and  C_15
REMARK   10  A    between atoms: C_13  and  C_16
REMARK   11  A    between atoms: C_17  and  C_18
REMARK   12  A    between atoms: C_17  and  C_19
REMARK   13  A    between atoms: N_20  and  O_21
REMARK   14  A    between atoms: O_21  and  C_22
REMARK   15  A    between atoms: C_22  and  C_24
REMARK   16  A    between atoms: C_24  and  C_25
REMARK   17  A    between atoms: C_25  and  C_26
REMARK   18  A    between atoms: C_25  and  C_27
REMARK   19  A    between atoms: C_25  and  C_28
REMARK   20  A    between atoms: C_31  and  C_32
REMARK                            x       y       z     vdW  Elec       q    Type
REMARK                         _______ _______ _______ _____ _____    ______ ____
ROOT
ATOM      1  C   UNL     1       0.684  11.311  19.942  0.00  0.00    +0.000 C 
ATOM      2  C   UNL     1       0.013  10.624  20.883  0.00  0.00    +0.000 C 
ATOM      3  C   UNL     1       0.495   9.198  21.047  0.00  0.00    +0.000 C 
ATOM      4  C   UNL     1      -0.665   8.196  20.978  0.00  0.00    +0.000 C 
ATOM      5  C   UNL     1       1.361   9.052  22.310  0.00  0.00    +0.000 C 
ATOM      6  N   UNL     1       1.425   9.107  19.915  0.00  0.00    +0.000 N 
ATOM      7  C   UNL     1       1.543  10.315  19.236  0.00  0.00    +0.000 C 
ATOM      8  O   UNL     1       2.122  10.522  18.181  0.00  0.00    +0.000 OA
ENDROOT
BRANCH   1  14
ATOM      9  C   UNL     1      -0.256  16.831  18.395  0.00  0.00    +0.000 C 
ATOM     10  C   UNL     1      -0.004  15.394  18.765  0.00  0.00    +0.000 A 
ATOM     11  C   UNL     1      -0.830  14.376  18.314  0.00  0.00    +0.000 A 
ATOM     12  C   UNL     1      -0.607  13.035  18.694  0.00  0.00    +0.000 A 
ATOM     13  C   UNL     1      -1.548  11.986  18.159  0.00  0.00    +0.000 C 
ATOM     14  C   UNL     1       0.475  12.708  19.557  0.00  0.00    +0.000 A 
ATOM     15  C   UNL     1       1.334  13.745  19.987  0.00  0.00    +0.000 A 
ATOM     16  C   UNL     1       2.513  13.519  20.898  0.00  0.00    +0.000 C 
ATOM     17  C   UNL     1       1.076  15.072  19.595  0.00  0.00    +0.000 A 
ENDBRANCH   1  14
BRANCH   2  18
ATOM     18  O   UNL     1      -1.165  11.113  21.506  0.00  0.00    +0.000 OA
BRANCH  18  19
ATOM     19  C   UNL     1      -1.067  11.980  22.560  0.00  0.00    +0.000 C 
ATOM     20  O   UNL     1      -0.031  12.445  23.013  0.00  0.00    +0.000 OA
BRANCH  19  21
ATOM     21  C   UNL     1      -2.420  12.371  23.098  0.00  0.00    +0.000 C 
BRANCH  21  22
ATOM     22  C   UNL     1      -3.056  13.531  22.298  0.00  0.00    +0.000 C 
ATOM     23  C   UNL     1      -1.965  14.529  21.884  0.00  0.00    +0.000 C 
ATOM     24  C   UNL     1      -3.721  12.970  21.028  0.00  0.00    +0.000 C 
ATOM     25  C   UNL     1      -4.140  14.255  23.119  0.00  0.00    +0.000 C 
ENDBRANCH  21  22
ENDBRANCH  19  21
ENDBRANCH  18  19
ENDBRANCH   2  18
BRANCH   6  26
ATOM     26  O   UNL     1       1.302   7.967  19.067  0.00  0.00    +0.000 OA
BRANCH  26  27
ATOM     27  C   UNL     1       2.397   7.138  19.091  0.00  0.00    +0.000 C 
ATOM     28  O   UNL     1       3.423   7.282  18.442  0.00  0.00    +0.000 OA
BRANCH  27  29
ATOM     29  C   UNL     1       2.247   6.050  20.130  0.00  0.00    +0.000 C 
BRANCH  29  30
ATOM     30  C   UNL     1       2.126   4.633  19.532  0.00  0.00    +0.000 C 
ATOM     31  C   UNL     1       1.046   3.793  20.240  0.00  0.00    +0.000 C 
ATOM     32  C   UNL     1       1.723   4.766  18.052  0.00  0.00    +0.000 C 
ATOM     33  C   UNL     1       3.479   3.917  19.625  0.00  0.00    +0.000 C 
ENDBRANCH  29  30
ENDBRANCH  27  29
ENDBRANCH  26  27
ENDBRANCH   6  26
TORSDOF 9
ENDMDL
MODEL 7
REMARK VINA RESULT:      -5.1      0.680      1.193
REMARK  Name = 
REMARK  20 active torsions:
REMARK  status: ('A' for Active; 'I' for Inactive)
REMARK    1  A    between atoms: C_1  and  C_2
REMARK    2  A    between atoms: C_4  and  C_5
REMARK    3  A    between atoms: C_6  and  C_7
REMARK    4  A    between atoms: C_8  and  O_9
REMARK    5  A    between atoms: O_9  and  C_10
REMARK    6  A    between atoms: C_10  and  C_12
REMARK    7  A    between atoms: C_12  and  C_13
REMARK    8  A    between atoms: C_13  and  C_14
REMARK    9  A    between atoms: C_13  and  C_15
REMARK   10  A    between atoms: C_13  and  C_16
REMARK   11  A    between atoms: C_17  and  C_18
REMARK   12  A    between atoms: C_17  and  C_19
REMARK   13  A    between atoms: N_20  and  O_21
REMARK   14  A    between atoms: O_21  and  C_22
REMARK   15  A    between atoms: C_22  and  C_24
REMARK   16  A    between atoms: C_24  and  C_25
REMARK   17  A    between atoms: C_25  and  C_26
REMARK   18  A    between atoms: C_25  and  C_27
REMARK   19  A    between atoms: C_25  and  C_28
REMARK   20  A    between atoms: C_31  and  C_32
REMARK                            x       y       z     vdW  Elec       q    Type
REMARK                         _______ _______ _______ _____ _____    ______ ____
ROOT
ATOM      1  C   UNL     1       0.684  11.296  19.928  0.00  0.00    +0.000 C 
ATOM      2  C   UNL     1       0.034  10.614  20.888  0.00  0.00    +0.000 C 
ATOM      3  C   UNL     1       0.536   9.197  21.066  0.00  0.00    +0.000 C 
ATOM      4  C   UNL     1      -0.612   8.179  21.027  0.00  0.00    +0.000 C 
ATOM      5  C   UNL     1       1.420   9.080  22.320  0.00  0.00    +0.000 C 
ATOM      6  N   UNL     1       1.453   9.101  19.924  0.00  0.00    +0.000 N 
ATOM      7  C   UNL     1       1.547  10.299  19.226  0.00  0.00    +0.000 C 
ATOM      8  O   UNL     1       2.110  10.499  18.161  0.00  0.00    +0.000 OA
ENDROOT
BRANCH   1  14
ATOM      9  C   UNL     1      -0.118  16.827  18.346  0.00  0.00    +0.000 C 
ATOM     10  C   UNL     1       0.081  15.402  18.787  0.00  0.00    +0.000 A 
ATOM     11  C   UNL     1       1.135  15.041  19.612  0.00  0.00    +0.000 A 
ATOM     12  C   UNL     1       1.336  13.696  19.992  0.00  0.00    +0.000 A 
ATOM     13  C   UNL     1       2.504  13.386  20.892  0.00  0.00    +0.000 C 
ATOM     14  C   UNL     1       0.453  12.684  19.525  0.00  0.00    +0.000 A 
ATOM     15  C   UNL     1      -0.639  13.062  18.711  0.00  0.00    +0.000 A 
ATOM     16  C   UNL     1      -1.641  12.078  18.162  0.00  0.00    +0.000 C 
ATOM     17  C   UNL     1      -0.803  14.410  18.345  0.00  0.00    +0.000 A 
ENDBRANCH   1  14
BRANCH   2  18
ATOM     18  O   UNL     1      -1.141  11.098  21.519  0.00  0.00    +0.000 OA
BRANCH  18  19
ATOM     19  C   UNL     1      -1.041  11.890  22.630  0.00  0.00    +0.000 C 
ATOM     20  O   UNL     1      -0.034  12.471  23.008  0.00  0.00    +0.000 OA
BRANCH  19  21
ATOM     21  C   UNL     1      -2.361  12.031  23.345  0.00  0.00    +0.000 C 
BRANCH  21  22
ATOM     22  C   UNL     1      -3.158  13.265  22.864  0.00  0.00    +0.000 C 
ATOM     23  C   UNL     1      -4.523  12.817  22.324  0.00  0.00    +0.000 C 
ATOM     24  C   UNL     1      -3.384  14.220  24.049  0.00  0.00    +0.000 C 
ATOM     25  C   UNL     1      -2.394  14.039  21.773  0.00  0.00    +0.000 C 
ENDBRANCH  21  22
ENDBRANCH  19  21
ENDBRANCH  18  19
ENDBRANCH   2  18
BRANCH   6  26
ATOM     26  O   UNL     1       1.333   7.946  19.094  0.00  0.00    +0.000 OA
BRANCH  26  27
ATOM     27  C   UNL     1       2.389   7.074  19.203  0.00  0.00    +0.000 C 
ATOM     28  O   UNL     1       3.473   7.183  18.648  0.00  0.00    +0.000 OA
BRANCH  27  29
ATOM     29  C   UNL     1       2.107   5.985  20.212  0.00  0.00    +0.000 C 
BRANCH  29  30
ATOM     30  C   UNL     1       2.066   4.569  19.601  0.00  0.00    +0.000 C 
ATOM     31  C   UNL     1       1.057   3.653  20.320  0.00  0.00    +0.000 C 
ATOM     32  C   UNL     1       1.626   4.690  18.130  0.00  0.00    +0.000 C 
ATOM     33  C   UNL     1       3.464   3.941  19.660  0.00  0.00    +0.000 C 
ENDBRANCH  29  30
ENDBRANCH  27  29
ENDBRANCH  26  27
ENDBRANCH   6  26
TORSDOF 9
ENDMDL
MODEL 8
REMARK VINA RESULT:      -5.0      2.472      7.423
REMARK  Name = 
REMARK  20 active torsions:
REMARK  status: ('A' for Active; 'I' for Inactive)
REMARK    1  A    between atoms: C_1  and  C_2
REMARK    2  A    between atoms: C_4  and  C_5
REMARK    3  A    between atoms: C_6  and  C_7
REMARK    4  A    between atoms: C_8  and  O_9
REMARK    5  A    between atoms: O_9  and  C_10
REMARK    6  A    between atoms: C_10  and  C_12
REMARK    7  A    between atoms: C_12  and  C_13
REMARK    8  A    between atoms: C_13  and  C_14
REMARK    9  A    between atoms: C_13  and  C_15
REMARK   10  A    between atoms: C_13  and  C_16
REMARK   11  A    between atoms: C_17  and  C_18
REMARK   12  A    between atoms: C_17  and  C_19
REMARK   13  A    between atoms: N_20  and  O_21
REMARK   14  A    between atoms: O_21  and  C_22
REMARK   15  A    between atoms: C_22  and  C_24
REMARK   16  A    between atoms: C_24  and  C_25
REMARK   17  A    between atoms: C_25  and  C_26
REMARK   18  A    between atoms: C_25  and  C_27
REMARK   19  A    between atoms: C_25  and  C_28
REMARK   20  A    between atoms: C_31  and  C_32
REMARK                            x       y       z     vdW  Elec       q    Type
REMARK                         _______ _______ _______ _____ _____    ______ ____
ROOT
ATOM      1  C   UNL     1       0.588  10.943  20.041  0.00  0.00    +0.000 C 
ATOM      2  C   UNL     1      -0.614  11.405  19.652  0.00  0.00    +0.000 C 
ATOM      3  C   UNL     1      -0.724  12.915  19.701  0.00  0.00    +0.000 C 
ATOM      4  C   UNL     1      -1.968  13.368  20.477  0.00  0.00    +0.000 C 
ATOM      5  C   UNL     1      -0.624  13.520  18.290  0.00  0.00    +0.000 C 
ATOM      6  N   UNL     1       0.543  13.245  20.366  0.00  0.00    +0.000 N 
ATOM      7  C   UNL     1       1.322  12.118  20.597  0.00  0.00    +0.000 C 
ATOM      8  O   UNL     1       2.352  12.046  21.250  0.00  0.00    +0.000 OA
ENDROOT
BRANCH   1  14
ATOM      9  C   UNL     1       2.381   5.419  20.155  0.00  0.00    +0.000 C 
ATOM     10  C   UNL     1       1.894   6.842  20.102  0.00  0.00    +0.000 A 
ATOM     11  C   UNL     1       2.129   7.646  18.998  0.00  0.00    +0.000 A 
ATOM     12  C   UNL     1       1.700   8.991  18.971  0.00  0.00    +0.000 A 
ATOM     13  C   UNL     1       1.993   9.798  17.732  0.00  0.00    +0.000 C 
ATOM     14  C   UNL     1       1.019   9.544  20.089  0.00  0.00    +0.000 A 
ATOM     15  C   UNL     1       0.752   8.711  21.200  0.00  0.00    +0.000 A 
ATOM     16  C   UNL     1       0.035   9.186  22.438  0.00  0.00    +0.000 C 
ATOM     17  C   UNL     1       1.203   7.378  21.195  0.00  0.00    +0.000 A 
ENDBRANCH   1  14
BRANCH   2  18
ATOM     18  O   UNL     1      -1.731  10.560  19.426  0.00  0.00    +0.000 OA
BRANCH  18  19
ATOM     19  C   UNL     1      -2.137  10.295  18.147  0.00  0.00    +0.000 C 
ATOM     20  O   UNL     1      -1.452  10.403  17.140  0.00  0.00    +0.000 OA
BRANCH  19  21
ATOM     21  C   UNL     1      -3.553   9.780  18.097  0.00  0.00    +0.000 C 
BRANCH  21  22
ATOM     22  C   UNL     1      -4.582  10.915  17.893  0.00  0.00    +0.000 C 
ATOM     23  C   UNL     1      -5.991  10.396  18.213  0.00  0.00    +0.000 C 
ATOM     24  C   UNL     1      -4.255  12.077  18.848  0.00  0.00    +0.000 C 
ATOM     25  C   UNL     1      -4.541  11.461  16.453  0.00  0.00    +0.000 C 
ENDBRANCH  21  22
ENDBRANCH  19  21
ENDBRANCH  18  19
ENDBRANCH   2  18
BRANCH   6  26
ATOM     26  O   UNL     1       0.478  14.151  21.466  0.00  0.00    +0.000 OA
BRANCH  26  27
ATOM     27  C   UNL     1       1.483  15.087  21.472  0.00  0.00    +0.000 C 
ATOM     28  O   UNL     1       2.151  15.420  22.442  0.00  0.00    +0.000 OA
BRANCH  27  29
ATOM     29  C   UNL     1       1.772  15.601  20.081  0.00  0.00    +0.000 C 
BRANCH  29  30
ATOM     30  C   UNL     1       1.106  16.957  19.769  0.00  0.00    +0.000 C 
ATOM     31  C   UNL     1       1.846  18.136  20.429  0.00  0.00    +0.000 C 
ATOM     32  C   UNL     1       1.142  17.173  18.245  0.00  0.00    +0.000 C 
ATOM     33  C   UNL     1      -0.353  16.936  20.242  0.00  0.00    +0.000 C 
ENDBRANCH  29  30
ENDBRANCH  27  29
ENDBRANCH  26  27
ENDBRANCH   6  26
TORSDOF 9
ENDMDL
MODEL 9
REMARK VINA RESULT:      -5.0      2.478      7.458
REMARK  Name = 
REMARK  20 active torsions:
REMARK  status: ('A' for Active; 'I' for Inactive)
REMARK    1  A    between atoms: C_1  and  C_2
REMARK    2  A    between atoms: C_4  and  C_5
REMARK    3  A    between atoms: C_6  and  C_7
REMARK    4  A    between atoms: C_8  and  O_9
REMARK    5  A    between atoms: O_9  and  C_10
REMARK    6  A    between atoms: C_10  and  C_12
REMARK    7  A    between atoms: C_12  and  C_13
REMARK    8  A    between atoms: C_13  and  C_14
REMARK    9  A    between atoms: C_13  and  C_15
REMARK   10  A    between atoms: C_13  and  C_16
REMARK   11  A    between atoms: C_17  and  C_18
REMARK   12  A    between atoms: C_17  and  C_19
REMARK   13  A    between atoms: N_20  and  O_21
REMARK   14  A    between atoms: O_21  and  C_22
REMARK   15  A    between atoms: C_22  and  C_24
REMARK   16  A    between atoms: C_24  and  C_25
REMARK   17  A    between atoms: C_25  and  C_26
REMARK   18  A    between atoms: C_25  and  C_27
REMARK   19  A    between atoms: C_25  and  C_28
REMARK   20  A    between atoms: C_31  and  C_32
REMARK                            x       y       z     vdW  Elec       q    Type
REMARK                         _______ _______ _______ _____ _____    ______ ____
ROOT
ATOM      1  C   UNL     1       0.584  10.972  20.045  0.00  0.00    +0.000 C 
ATOM      2  C   UNL     1      -0.616  11.439  19.657  0.00  0.00    +0.000 C 
ATOM      3  C   UNL     1      -0.722  12.948  19.709  0.00  0.00    +0.000 C 
ATOM      4  C   UNL     1      -1.964  13.404  20.485  0.00  0.00    +0.000 C 
ATOM      5  C   UNL     1      -0.620  13.556  18.299  0.00  0.00    +0.000 C 
ATOM      6  N   UNL     1       0.546  13.274  20.373  0.00  0.00    +0.000 N 
ATOM      7  C   UNL     1       1.322  12.144  20.603  0.00  0.00    +0.000 C 
ATOM      8  O   UNL     1       2.351  12.068  21.255  0.00  0.00    +0.000 OA
ENDROOT
BRANCH   1  14
ATOM      9  C   UNL     1       2.360   5.442  20.150  0.00  0.00    +0.000 C 
ATOM     10  C   UNL     1       1.878   6.867  20.100  0.00  0.00    +0.000 A 
ATOM     11  C   UNL     1       2.123   7.675  19.000  0.00  0.00    +0.000 A 
ATOM     12  C   UNL     1       1.698   9.021  18.976  0.00  0.00    +0.000 A 
ATOM     13  C   UNL     1       2.002   9.832  17.742  0.00  0.00    +0.000 C 
ATOM     14  C   UNL     1       1.010   9.572  20.091  0.00  0.00    +0.000 A 
ATOM     15  C   UNL     1       0.733   8.736  21.196  0.00  0.00    +0.000 A 
ATOM     16  C   UNL     1       0.008   9.208  22.431  0.00  0.00    +0.000 C 
ATOM     17  C   UNL     1       1.180   7.401  21.190  0.00  0.00    +0.000 A 
ENDBRANCH   1  14
BRANCH   2  18
ATOM     18  O   UNL     1      -1.737  10.598  19.430  0.00  0.00    +0.000 OA
BRANCH  18  19
ATOM     19  C   UNL     1      -2.123  10.308  18.150  0.00  0.00    +0.000 C 
ATOM     20  O   UNL     1      -1.425  10.406  17.151  0.00  0.00    +0.000 OA
BRANCH  19  21
ATOM     21  C   UNL     1      -3.534   9.780  18.090  0.00  0.00    +0.000 C 
BRANCH  21  22
ATOM     22  C   UNL     1      -4.576  10.911  17.940  0.00  0.00    +0.000 C 
ATOM     23  C   UNL     1      -4.574  11.424  16.493  0.00  0.00    +0.000 C 
ATOM     24  C   UNL     1      -5.976  10.361  18.268  0.00  0.00    +0.000 C 
ATOM     25  C   UNL     1      -4.288  12.075  18.907  0.00  0.00    +0.000 C 
ENDBRANCH  21  22
ENDBRANCH  19  21
ENDBRANCH  18  19
ENDBRANCH   2  18
BRANCH   6  26
ATOM     26  O   UNL     1       0.484  14.178  21.475  0.00  0.00    +0.000 OA
BRANCH  26  27
ATOM     27  C   UNL     1       1.491  15.113  21.481  0.00  0.00    +0.000 C 
ATOM     28  O   UNL     1       2.140  15.465  22.456  0.00  0.00    +0.000 OA
BRANCH  27  29
ATOM     29  C   UNL     1       1.808  15.597  20.085  0.00  0.00    +0.000 C 
BRANCH  29  30
ATOM     30  C   UNL     1       1.161  16.952  19.735  0.00  0.00    +0.000 C 
ATOM     31  C   UNL     1       1.177  17.232  18.220  0.00  0.00    +0.000 C 
ATOM     32  C   UNL     1      -0.310  16.917  20.192  0.00  0.00    +0.000 C 
ATOM     33  C   UNL     1       1.893  18.079  20.475  0.00  0.00    +0.000 C 
ENDBRANCH  29  30
ENDBRANCH  27  29
ENDBRANCH  26  27
ENDBRANCH   6  26
TORSDOF 9
ENDMDL
