MODEL 1
REMARK VINA RESULT:      -7.5      0.000      0.000
REMARK  Name = 
REMARK  9 active torsions:
REMARK  status: ('A' for Active; 'I' for Inactive)
REMARK    1  A    between atoms: C_1  and  C_2
REMARK    2  A    between atoms: C_2  and  C_3
REMARK    3  A    between atoms: C_10  and  O_11
REMARK    4  A    between atoms: O_11  and  C_12
REMARK    5  A    between atoms: C_12  and  C_13
REMARK    6  A    between atoms: N_15  and  C_16
REMARK    7  A    between atoms: C_16  and  C_17
REMARK    8  A    between atoms: C_17  and  C_18
REMARK    9  A    between atoms: C_18  and  N_19
REMARK                            x       y       z     vdW  Elec       q    Type
REMARK                         _______ _______ _______ _____ _____    ______ ____
ROOT
ATOM      1  O   UNL     1       2.385   6.291  20.180  0.00  0.00    +0.000 OA
ENDROOT
BRANCH   1   9
ATOM      2  C   UNL     1       0.167  11.516  20.121  0.00  0.00    +0.000 A 
ATOM      3  C   UNL     1      -0.443  11.853  21.268  0.00  0.00    +0.000 A 
ATOM      4  C   UNL     1      -0.561  10.953  22.426  0.00  0.00    +0.000 A 
ATOM      5  O   UNL     1      -1.149  11.310  23.438  0.00  0.00    +0.000 OA
ATOM      6  O   UNL     1       0.033   9.709  22.311  0.00  0.00    +0.000 OA
ATOM      7  C   UNL     1       0.681   9.323  21.123  0.00  0.00    +0.000 A 
ATOM      8  C   UNL     1       1.244   8.042  21.113  0.00  0.00    +0.000 A 
ATOM      9  C   UNL     1       1.906   7.558  19.977  0.00  0.00    +0.000 A 
ATOM     10  C   UNL     1       1.977   8.394  18.853  0.00  0.00    +0.000 A 
ATOM     11 CL   UNL     1       2.740   8.000  17.350  0.00  0.00    +0.000 Cl
ATOM     12  C   UNL     1       1.401   9.682  18.886  0.00  0.00    +0.000 A 
ATOM     13  C   UNL     1       0.755  10.171  20.024  0.00  0.00    +0.000 A 
BRANCH   2  15
ATOM     14  C   UNL     1      -0.977  12.626  18.163  0.00  0.00    +0.000 C 
ATOM     15  C   UNL     1       0.293  12.518  18.998  0.00  0.00    +0.000 C 
ENDBRANCH   2  15
ENDBRANCH   1   9
BRANCH   1  16
ATOM     16  C   UNL     1       1.693   5.391  21.034  0.00  0.00    +0.000 C 
BRANCH  16  17
ATOM     17  C   UNL     1       2.199   3.952  20.895  0.00  0.00    +0.000 C 
ATOM     18  O   UNL     1       2.306   3.207  21.868  0.00  0.00    +0.000 OA
ATOM     19  N   UNL     1       2.517   3.567  19.613  0.00  0.00    +0.000 N 
ATOM     20  H   UNL     1       2.365   4.242  18.870  0.00  0.00    +0.000 HD
BRANCH  19  21
ATOM     21  C   UNL     1       2.959   2.225  19.291  0.00  0.00    +0.000 C 
BRANCH  21  22
ATOM     22  C   UNL     1       3.618   2.161  17.915  0.00  0.00    +0.000 C 
BRANCH  22  23
ATOM     23  C   UNL     1       3.664   3.540  17.256  0.00  0.00    +0.000 C 
BRANCH  23  24
ATOM     24  N   UNL     1       5.018   4.051  17.104  0.00  0.00    +0.000 N 
ATOM     25  C   UNL     1       5.622   4.289  15.816  0.00  0.00    +0.000 C 
ATOM     26  C   UNL     1       7.101   4.398  16.134  0.00  0.00    +0.000 C 
ATOM     27  C   UNL     1       7.128   4.955  17.551  0.00  0.00    +0.000 C 
ATOM     28  C   UNL     1       5.855   4.408  18.151  0.00  0.00    +0.000 C 
ATOM     29  O   UNL     1       5.608   4.342  19.344  0.00  0.00    +0.000 OA
ENDBRANCH  23  24
ENDBRANCH  22  23
ENDBRANCH  21  22
ENDBRANCH  19  21
ENDBRANCH  16  17
ENDBRANCH   1  16
TORSDOF 8
ENDMDL
MODEL 2
REMARK VINA RESULT:      -7.5      3.236      4.871
REMARK  Name = 
REMARK  9 active torsions:
REMARK  status: ('A' for Active; 'I' for Inactive)
REMARK    1  A    between atoms: C_1  and  C_2
REMARK    2  A    between atoms: C_2  and  C_3
REMARK    3  A    between atoms: C_10  and  O_11
REMARK    4  A    between atoms: O_11  and  C_12
REMARK    5  A    between atoms: C_12  and  C_13
REMARK    6  A    between atoms: N_15  and  C_16
REMARK    7  A    between atoms: C_16  and  C_17
REMARK    8  A    between atoms: C_17  and  C_18
REMARK    9  A    between atoms: C_18  and  N_19
REMARK                            x       y       z     vdW  Elec       q    Type
REMARK                         _______ _______ _______ _____ _____    ______ ____
ROOT
ATOM      1  O   UNL     1       1.628   9.284  18.966  0.00  0.00    +0.000 OA
ENDROOT
BRANCH   1   9
ATOM      2  C   UNL     1      -3.549  11.464  18.152  0.00  0.00    +0.000 A 
ATOM      3  C   UNL     1      -4.069  11.177  16.949  0.00  0.00    +0.000 A 
ATOM      4  C   UNL     1      -3.364  10.399  15.918  0.00  0.00    +0.000 A 
ATOM      5  O   UNL     1      -3.882  10.187  14.831  0.00  0.00    +0.000 OA
ATOM      6  O   UNL     1      -2.110   9.918  16.250  0.00  0.00    +0.000 OA
ATOM      7  C   UNL     1      -1.535  10.200  17.503  0.00  0.00    +0.000 A 
ATOM      8  C   UNL     1      -0.261   9.668  17.734  0.00  0.00    +0.000 A 
ATOM      9  C   UNL     1       0.404   9.896  18.946  0.00  0.00    +0.000 A 
ATOM     10  C   UNL     1      -0.245  10.679  19.912  0.00  0.00    +0.000 A 
ATOM     11 CL   UNL     1       0.390  11.088  21.470  0.00  0.00    +0.000 Cl
ATOM     12  C   UNL     1      -1.529  11.206  19.657  0.00  0.00    +0.000 A 
ATOM     13  C   UNL     1      -2.199  10.966  18.454  0.00  0.00    +0.000 A 
BRANCH   2  15
ATOM     14  C   UNL     1      -5.830  11.820  19.174  0.00  0.00    +0.000 C 
ATOM     15  C   UNL     1      -4.361  12.222  19.176  0.00  0.00    +0.000 C 
ENDBRANCH   2  15
ENDBRANCH   1   9
BRANCH   1  16
ATOM     16  C   UNL     1       1.993   8.374  17.939  0.00  0.00    +0.000 C 
BRANCH  16  17
ATOM     17  C   UNL     1       2.789   7.180  18.474  0.00  0.00    +0.000 C 
ATOM     18  O   UNL     1       2.613   6.742  19.610  0.00  0.00    +0.000 OA
ATOM     19  N   UNL     1       3.701   6.644  17.593  0.00  0.00    +0.000 N 
ATOM     20  H   UNL     1       3.751   7.054  16.666  0.00  0.00    +0.000 HD
BRANCH  19  21
ATOM     21  C   UNL     1       4.500   5.479  17.913  0.00  0.00    +0.000 C 
BRANCH  21  22
ATOM     22  C   UNL     1       4.108   4.272  17.063  0.00  0.00    +0.000 C 
BRANCH  22  23
ATOM     23  C   UNL     1       3.868   3.037  17.930  0.00  0.00    +0.000 C 
BRANCH  23  24
ATOM     24  N   UNL     1       2.843   3.244  18.943  0.00  0.00    +0.000 N 
ATOM     25  C   UNL     1       3.110   3.148  20.356  0.00  0.00    +0.000 C 
ATOM     26  C   UNL     1       1.730   3.020  20.970  0.00  0.00    +0.000 C 
ATOM     27  C   UNL     1       0.832   3.785  20.007  0.00  0.00    +0.000 C 
ATOM     28  C   UNL     1       1.527   3.599  18.680  0.00  0.00    +0.000 C 
ATOM     29  O   UNL     1       1.020   3.778  17.585  0.00  0.00    +0.000 OA
ENDBRANCH  23  24
ENDBRANCH  22  23
ENDBRANCH  21  22
ENDBRANCH  19  21
ENDBRANCH  16  17
ENDBRANCH   1  16
TORSDOF 8
ENDMDL
MODEL 3
REMARK VINA RESULT:      -7.5      2.294      8.051
REMARK  Name = 
REMARK  9 active torsions:
REMARK  status: ('A' for Active; 'I' for Inactive)
REMARK    1  A    between atoms: C_1  and  C_2
REMARK    2  A    between atoms: C_2  and  C_3
REMARK    3  A    between atoms: C_10  and  O_11
REMARK    4  A    between atoms: O_11  and  C_12
REMARK    5  A    between atoms: C_12  and  C_13
REMARK    6  A    between atoms: N_15  and  C_16
REMARK    7  A    between atoms: C_16  and  C_17
REMARK    8  A    between atoms: C_17  and  C_18
REMARK    9  A    between atoms: C_18  and  N_19
REMARK                            x       y       z     vdW  Elec       q    Type
REMARK                         _______ _______ _______ _____ _____    ______ ____
ROOT
ATOM      1  O   UNL     1       3.179   2.718  20.620  0.00  0.00    +0.000 OA
ENDROOT
BRANCH   1   9
ATOM      2  C   UNL     1       6.078   5.192  16.412  0.00  0.00    +0.000 A 
ATOM      3  C   UNL     1       7.065   5.994  16.840  0.00  0.00    +0.000 A 
ATOM      4  C   UNL     1       7.359   6.243  18.261  0.00  0.00    +0.000 A 
ATOM      5  O   UNL     1       8.260   7.002  18.589  0.00  0.00    +0.000 OA
ATOM      6  O   UNL     1       6.581   5.568  19.184  0.00  0.00    +0.000 OA
ATOM      7  C   UNL     1       5.538   4.719  18.771  0.00  0.00    +0.000 A 
ATOM      8  C   UNL     1       4.811   4.090  19.788  0.00  0.00    +0.000 A 
ATOM      9  C   UNL     1       3.747   3.230  19.484  0.00  0.00    +0.000 A 
ATOM     10  C   UNL     1       3.432   3.030  18.132  0.00  0.00    +0.000 A 
ATOM     11 CL   UNL     1       2.162   2.018  17.533  0.00  0.00    +0.000 Cl
ATOM     12  C   UNL     1       4.178   3.676  17.123  0.00  0.00    +0.000 A 
ATOM     13  C   UNL     1       5.249   4.521  17.426  0.00  0.00    +0.000 A 
BRANCH   2  15
ATOM     14  C   UNL     1       7.173   5.041  14.143  0.00  0.00    +0.000 C 
ATOM     15  C   UNL     1       5.876   4.947  14.936  0.00  0.00    +0.000 C 
ENDBRANCH   2  15
ENDBRANCH   1   9
BRANCH   1  16
ATOM     16  C   UNL     1       2.528   3.576  21.545  0.00  0.00    +0.000 C 
BRANCH  16  17
ATOM     17  C   UNL     1       1.705   4.665  20.850  0.00  0.00    +0.000 C 
ATOM     18  O   UNL     1       0.669   4.403  20.240  0.00  0.00    +0.000 OA
ATOM     19  N   UNL     1       2.210   5.940  20.961  0.00  0.00    +0.000 N 
ATOM     20  H   UNL     1       3.055   6.061  21.511  0.00  0.00    +0.000 HD
BRANCH  19  21
ATOM     21  C   UNL     1       1.533   7.097  20.412  0.00  0.00    +0.000 C 
BRANCH  21  22
ATOM     22  C   UNL     1       1.284   8.166  21.473  0.00  0.00    +0.000 C 
BRANCH  22  23
ATOM     23  C   UNL     1      -0.184   8.590  21.500  0.00  0.00    +0.000 C 
BRANCH  23  24
ATOM     24  N   UNL     1      -0.380   9.980  21.115  0.00  0.00    +0.000 N 
ATOM     25  C   UNL     1      -0.506  10.399  19.741  0.00  0.00    +0.000 C 
ATOM     26  C   UNL     1      -0.272  11.896  19.804  0.00  0.00    +0.000 C 
ATOM     27  C   UNL     1      -0.775  12.284  21.189  0.00  0.00    +0.000 C 
ATOM     28  C   UNL     1      -0.514  11.039  22.001  0.00  0.00    +0.000 C 
ATOM     29  O   UNL     1      -0.477  10.986  23.219  0.00  0.00    +0.000 OA
ENDBRANCH  23  24
ENDBRANCH  22  23
ENDBRANCH  21  22
ENDBRANCH  19  21
ENDBRANCH  16  17
ENDBRANCH   1  16
TORSDOF 8
ENDMDL
MODEL 4
REMARK VINA RESULT:      -7.3      2.883      4.674
REMARK  Name = 
REMARK  9 active torsions:
REMARK  status: ('A' for Active; 'I' for Inactive)
REMARK    1  A    between atoms: C_1  and  C_2
REMARK    2  A    between atoms: C_2  and  C_3
REMARK    3  A    between atoms: C_10  and  O_11
REMARK    4  A    between atoms: O_11  and  C_12
REMARK    5  A    between atoms: C_12  and  C_13
REMARK    6  A    between atoms: N_15  and  C_16
REMARK    7  A    between atoms: C_16  and  C_17
REMARK    8  A    between atoms: C_17  and  C_18
REMARK    9  A    between atoms: C_18  and  N_19
REMARK                            x       y       z     vdW  Elec       q    Type
REMARK                         _______ _______ _______ _____ _____    ______ ____
ROOT
ATOM      1  O   UNL     1       2.394   2.863  18.634  0.00  0.00    +0.000 OA
ENDROOT
BRANCH   1   9
ATOM      2  C   UNL     1       1.562   8.168  20.477  0.00  0.00    +0.000 A 
ATOM      3  C   UNL     1       1.647   9.092  19.508  0.00  0.00    +0.000 A 
ATOM      4  C   UNL     1       1.956   8.778  18.103  0.00  0.00    +0.000 A 
ATOM      5  O   UNL     1       2.041   9.668  17.268  0.00  0.00    +0.000 OA
ATOM      6  O   UNL     1       2.128   7.442  17.787  0.00  0.00    +0.000 OA
ATOM      7  C   UNL     1       2.045   6.447  18.778  0.00  0.00    +0.000 A 
ATOM      8  C   UNL     1       2.239   5.129  18.350  0.00  0.00    +0.000 A 
ATOM      9  C   UNL     1       2.185   4.064  19.259  0.00  0.00    +0.000 A 
ATOM     10  C   UNL     1       1.940   4.364  20.607  0.00  0.00    +0.000 A 
ATOM     11 CL   UNL     1       1.836   3.210  21.893  0.00  0.00    +0.000 Cl
ATOM     12  C   UNL     1       1.749   5.701  21.016  0.00  0.00    +0.000 A 
ATOM     13  C   UNL     1       1.787   6.762  20.108  0.00  0.00    +0.000 A 
BRANCH   2  15
ATOM     14  C   UNL     1      -0.291   8.913  22.021  0.00  0.00    +0.000 C 
ATOM     15  C   UNL     1       1.187   8.567  21.884  0.00  0.00    +0.000 C 
ENDBRANCH   2  15
ENDBRANCH   1   9
BRANCH   1  16
ATOM     16  C   UNL     1       3.459   2.714  17.705  0.00  0.00    +0.000 C 
BRANCH  16  17
ATOM     17  C   UNL     1       4.788   3.239  18.256  0.00  0.00    +0.000 C 
ATOM     18  O   UNL     1       5.109   3.081  19.432  0.00  0.00    +0.000 OA
ATOM     19  N   UNL     1       5.583   3.889  17.339  0.00  0.00    +0.000 N 
ATOM     20  H   UNL     1       5.247   3.942  16.383  0.00  0.00    +0.000 HD
BRANCH  19  21
ATOM     21  C   UNL     1       6.897   4.401  17.673  0.00  0.00    +0.000 C 
BRANCH  21  22
ATOM     22  C   UNL     1       7.528   5.150  16.502  0.00  0.00    +0.000 C 
BRANCH  22  23
ATOM     23  C   UNL     1       6.466   5.629  15.512  0.00  0.00    +0.000 C 
BRANCH  23  24
ATOM     24  N   UNL     1       6.544   4.955  14.225  0.00  0.00    +0.000 N 
ATOM     25  C   UNL     1       5.534   4.036  13.762  0.00  0.00    +0.000 C 
ATOM     26  C   UNL     1       6.220   3.297  12.630  0.00  0.00    +0.000 C 
ATOM     27  C   UNL     1       7.205   4.317  12.074  0.00  0.00    +0.000 C 
ATOM     28  C   UNL     1       7.550   5.146  13.288  0.00  0.00    +0.000 C 
ATOM     29  O   UNL     1       8.517   5.881  13.389  0.00  0.00    +0.000 OA
ENDBRANCH  23  24
ENDBRANCH  22  23
ENDBRANCH  21  22
ENDBRANCH  19  21
ENDBRANCH  16  17
ENDBRANCH   1  16
TORSDOF 8
ENDMDL
MODEL 5
REMARK VINA RESULT:      -7.1      2.252      4.196
REMARK  Name = 
REMARK  9 active torsions:
REMARK  status: ('A' for Active; 'I' for Inactive)
REMARK    1  A    between atoms: C_1  and  C_2
REMARK    2  A    between atoms: C_2  and  C_3
REMARK    3  A    between atoms: C_10  and  O_11
REMARK    4  A    between atoms: O_11  and  C_12
REMARK    5  A    between atoms: C_12  and  C_13
REMARK    6  A    between atoms: N_15  and  C_16
REMARK    7  A    between atoms: C_16  and  C_17
REMARK    8  A    between atoms: C_17  and  C_18
REMARK    9  A    between atoms: C_18  and  N_19
REMARK                            x       y       z     vdW  Elec       q    Type
REMARK                         _______ _______ _______ _____ _____    ______ ____
ROOT
ATOM      1  O   UNL     1       2.620   7.654  17.558  0.00  0.00    +0.000 OA
ENDROOT
BRANCH   1   9
ATOM      2  C   UNL     1      -0.102  11.114  21.142  0.00  0.00    +0.000 A 
ATOM      3  C   UNL     1      -0.346  12.331  20.632  0.00  0.00    +0.000 A 
ATOM      4  C   UNL     1       0.073  12.752  19.285  0.00  0.00    +0.000 A 
ATOM      5  O   UNL     1      -0.160  13.883  18.883  0.00  0.00    +0.000 OA
ATOM      6  O   UNL     1       0.721  11.806  18.511  0.00  0.00    +0.000 OA
ATOM      7  C   UNL     1       0.993  10.521  19.014  0.00  0.00    +0.000 A 
ATOM      8  C   UNL     1       1.657   9.644  18.149  0.00  0.00    +0.000 A 
ATOM      9  C   UNL     1       1.982   8.343  18.555  0.00  0.00    +0.000 A 
ATOM     10  C   UNL     1       1.629   7.954  19.855  0.00  0.00    +0.000 A 
ATOM     11 CL   UNL     1       1.933   6.404  20.562  0.00  0.00    +0.000 Cl
ATOM     12  C   UNL     1       0.960   8.856  20.711  0.00  0.00    +0.000 A 
ATOM     13  C   UNL     1       0.622  10.148  20.301  0.00  0.00    +0.000 A 
BRANCH   2  15
ATOM     14  C   UNL     1      -1.639  11.736  23.046  0.00  0.00    +0.000 C 
ATOM     15  C   UNL     1      -0.614  10.742  22.513  0.00  0.00    +0.000 C 
ENDBRANCH   2  15
ENDBRANCH   1   9
BRANCH   1  16
ATOM     16  C   UNL     1       4.023   7.788  17.378  0.00  0.00    +0.000 C 
BRANCH  16  17
ATOM     17  C   UNL     1       4.637   6.576  16.671  0.00  0.00    +0.000 C 
ATOM     18  O   UNL     1       5.405   6.703  15.719  0.00  0.00    +0.000 OA
ATOM     19  N   UNL     1       4.266   5.353  17.180  0.00  0.00    +0.000 N 
ATOM     20  H   UNL     1       3.652   5.350  17.989  0.00  0.00    +0.000 HD
BRANCH  19  21
ATOM     21  C   UNL     1       4.793   4.104  16.668  0.00  0.00    +0.000 C 
BRANCH  21  22
ATOM     22  C   UNL     1       4.080   2.897  17.273  0.00  0.00    +0.000 C 
BRANCH  22  23
ATOM     23  C   UNL     1       2.641   3.240  17.661  0.00  0.00    +0.000 C 
BRANCH  23  24
ATOM     24  N   UNL     1       2.380   3.067  19.083  0.00  0.00    +0.000 N 
ATOM     25  C   UNL     1       3.394   3.251  20.091  0.00  0.00    +0.000 C 
ATOM     26  C   UNL     1       2.804   2.578  21.314  0.00  0.00    +0.000 C 
ATOM     27  C   UNL     1       1.301   2.749  21.133  0.00  0.00    +0.000 C 
ATOM     28  C   UNL     1       1.143   2.758  19.631  0.00  0.00    +0.000 C 
ATOM     29  O   UNL     1       0.099   2.573  19.029  0.00  0.00    +0.000 OA
ENDBRANCH  23  24
ENDBRANCH  22  23
ENDBRANCH  21  22
ENDBRANCH  19  21
ENDBRANCH  16  17
ENDBRANCH   1  16
TORSDOF 8
ENDMDL
MODEL 6
REMARK VINA RESULT:      -7.1      2.589      3.876
REMARK  Name = 
REMARK  9 active torsions:
REMARK  status: ('A' for Active; 'I' for Inactive)
REMARK    1  A    between atoms: C_1  and  C_2
REMARK    2  A    between atoms: C_2  and  C_3
REMARK    3  A    between atoms: C_10  and  O_11
REMARK    4  A    between atoms: O_11  and  C_12
REMARK    5  A    between atoms: C_12  and  C_13
REMARK    6  A    between atoms: N_15  and  C_16
REMARK    7  A    between atoms: C_16  and  C_17
REMARK    8  A    between atoms: C_17  and  C_18
REMARK    9  A    between atoms: C_18  and  N_19
REMARK                            x       y       z     vdW  Elec       q    Type
REMARK                         _______ _______ _______ _____ _____    ______ ____
ROOT
ATOM      1  O   UNL     1       2.800   5.871  17.709  0.00  0.00    +0.000 OA
ENDROOT
BRANCH   1   9
ATOM      2  C   UNL     1       0.683   9.760  21.260  0.00  0.00    +0.000 A 
ATOM      3  C   UNL     1       0.481  10.957  20.687  0.00  0.00    +0.000 A 
ATOM      4  C   UNL     1       0.801  11.255  19.282  0.00  0.00    +0.000 A 
ATOM      5  O   UNL     1       0.613  12.372  18.822  0.00  0.00    +0.000 OA
ATOM      6  O   UNL     1       1.304  10.213  18.524  0.00  0.00    +0.000 OA
ATOM      7  C   UNL     1       1.528   8.945  19.092  0.00  0.00    +0.000 A 
ATOM      8  C   UNL     1       2.043   7.965  18.237  0.00  0.00    +0.000 A 
ATOM      9  C   UNL     1       2.309   6.671  18.705  0.00  0.00    +0.000 A 
ATOM     10  C   UNL     1       2.052   6.397  20.057  0.00  0.00    +0.000 A 
ATOM     11 CL   UNL     1       2.309   4.877  20.843  0.00  0.00    +0.000 Cl
ATOM     12  C   UNL     1       1.534   7.402  20.901  0.00  0.00    +0.000 A 
ATOM     13  C   UNL     1       1.253   8.688  20.431  0.00  0.00    +0.000 A 
BRANCH   2  15
ATOM     14  C   UNL     1      -0.869  10.422  23.139  0.00  0.00    +0.000 C 
ATOM     15  C   UNL     1       0.276   9.520  22.695  0.00  0.00    +0.000 C 
ENDBRANCH   2  15
ENDBRANCH   1   9
BRANCH   1  16
ATOM     16  C   UNL     1       2.704   4.458  17.812  0.00  0.00    +0.000 C 
BRANCH  16  17
ATOM     17  C   UNL     1       4.075   3.776  17.755  0.00  0.00    +0.000 C 
ATOM     18  O   UNL     1       4.188   2.553  17.704  0.00  0.00    +0.000 OA
ATOM     19  N   UNL     1       5.153   4.632  17.765  0.00  0.00    +0.000 N 
ATOM     20  H   UNL     1       4.959   5.628  17.777  0.00  0.00    +0.000 HD
BRANCH  19  21
ATOM     21  C   UNL     1       6.520   4.163  17.663  0.00  0.00    +0.000 C 
BRANCH  21  22
ATOM     22  C   UNL     1       7.300   4.922  16.591  0.00  0.00    +0.000 C 
BRANCH  22  23
ATOM     23  C   UNL     1       6.364   5.518  15.541  0.00  0.00    +0.000 C 
BRANCH  23  24
ATOM     24  N   UNL     1       6.475   4.865  14.245  0.00  0.00    +0.000 N 
ATOM     25  C   UNL     1       5.471   3.964  13.736  0.00  0.00    +0.000 C 
ATOM     26  C   UNL     1       6.185   3.237  12.613  0.00  0.00    +0.000 C 
ATOM     27  C   UNL     1       7.196   4.256  12.105  0.00  0.00    +0.000 C 
ATOM     28  C   UNL     1       7.511   5.061  13.343  0.00  0.00    +0.000 C 
ATOM     29  O   UNL     1       8.483   5.785  13.486  0.00  0.00    +0.000 OA
ENDBRANCH  23  24
ENDBRANCH  22  23
ENDBRANCH  21  22
ENDBRANCH  19  21
ENDBRANCH  16  17
ENDBRANCH   1  16
TORSDOF 8
ENDMDL
MODEL 7
REMARK VINA RESULT:      -7.1      1.097      1.514
REMARK  Name = 
REMARK  9 active torsions:
REMARK  status: ('A' for Active; 'I' for Inactive)
REMARK    1  A    between atoms: C_1  and  C_2
REMARK    2  A    between atoms: C_2  and  C_3
REMARK    3  A    between atoms: C_10  and  O_11
REMARK    4  A    between atoms: O_11  and  C_12
REMARK    5  A    between atoms: C_12  and  C_13
REMARK    6  A    between atoms: N_15  and  C_16
REMARK    7  A    between atoms: C_16  and  C_17
REMARK    8  A    between atoms: C_17  and  C_18
REMARK    9  A    between atoms: C_18  and  N_19
REMARK                            x       y       z     vdW  Elec       q    Type
REMARK                         _______ _______ _______ _____ _____    ______ ____
ROOT
ATOM      1  O   UNL     1       2.430   6.052  20.351  0.00  0.00    +0.000 OA
ENDROOT
BRANCH   1   9
ATOM      2  C   UNL     1       0.210  11.266  20.007  0.00  0.00    +0.000 A 
ATOM      3  C   UNL     1      -0.390  11.669  21.138  0.00  0.00    +0.000 A 
ATOM      4  C   UNL     1      -0.497  10.838  22.348  0.00  0.00    +0.000 A 
ATOM      5  O   UNL     1      -1.075  11.254  23.342  0.00  0.00    +0.000 OA
ATOM      6  O   UNL     1       0.097   9.589  22.300  0.00  0.00    +0.000 OA
ATOM      7  C   UNL     1       0.734   9.135  21.131  0.00  0.00    +0.000 A 
ATOM      8  C   UNL     1       1.297   7.855  21.190  0.00  0.00    +0.000 A 
ATOM      9  C   UNL     1       1.949   7.305  20.078  0.00  0.00    +0.000 A 
ATOM     10  C   UNL     1       2.009   8.074  18.907  0.00  0.00    +0.000 A 
ATOM     11 CL   UNL     1       2.758   7.592  17.423  0.00  0.00    +0.000 Cl
ATOM     12  C   UNL     1       1.433   9.362  18.870  0.00  0.00    +0.000 A 
ATOM     13  C   UNL     1       0.797   9.917  19.984  0.00  0.00    +0.000 A 
BRANCH   2  15
ATOM     14  C   UNL     1       1.569  13.078  18.893  0.00  0.00    +0.000 C 
ATOM     15  C   UNL     1       0.326  12.200  18.826  0.00  0.00    +0.000 C 
ENDBRANCH   2  15
ENDBRANCH   1   9
BRANCH   1  16
ATOM     16  C   UNL     1       1.550   4.938  20.386  0.00  0.00    +0.000 C 
BRANCH  16  17
ATOM     17  C   UNL     1       1.730   4.016  19.176  0.00  0.00    +0.000 C 
ATOM     18  O   UNL     1       0.938   3.108  18.930  0.00  0.00    +0.000 OA
ATOM     19  N   UNL     1       2.835   4.282  18.399  0.00  0.00    +0.000 N 
ATOM     20  H   UNL     1       3.413   5.073  18.664  0.00  0.00    +0.000 HD
BRANCH  19  21
ATOM     21  C   UNL     1       3.130   3.545  17.187  0.00  0.00    +0.000 C 
BRANCH  21  22
ATOM     22  C   UNL     1       4.073   4.318  16.269  0.00  0.00    +0.000 C 
BRANCH  22  23
ATOM     23  C   UNL     1       5.528   3.908  16.495  0.00  0.00    +0.000 C 
BRANCH  23  24
ATOM     24  N   UNL     1       6.223   4.777  17.433  0.00  0.00    +0.000 N 
ATOM     25  C   UNL     1       6.956   5.947  17.016  0.00  0.00    +0.000 C 
ATOM     26  C   UNL     1       7.821   6.270  18.219  0.00  0.00    +0.000 C 
ATOM     27  C   UNL     1       6.998   5.774  19.401  0.00  0.00    +0.000 C 
ATOM     28  C   UNL     1       6.226   4.618  18.811  0.00  0.00    +0.000 C 
ATOM     29  O   UNL     1       5.672   3.739  19.450  0.00  0.00    +0.000 OA
ENDBRANCH  23  24
ENDBRANCH  22  23
ENDBRANCH  21  22
ENDBRANCH  19  21
ENDBRANCH  16  17
ENDBRANCH   1  16
TORSDOF 8
ENDMDL
MODEL 8
REMARK VINA RESULT:      -7.1      1.051      1.196
REMARK  Name = 
REMARK  9 active torsions:
REMARK  status: ('A' for Active; 'I' for Inactive)
REMARK    1  A    between atoms: C_1  and  C_2
REMARK    2  A    between atoms: C_2  and  C_3
REMARK    3  A    between atoms: C_10  and  O_11
REMARK    4  A    between atoms: O_11  and  C_12
REMARK    5  A    between atoms: C_12  and  C_13
REMARK    6  A    between atoms: N_15  and  C_16
REMARK    7  A    between atoms: C_16  and  C_17
REMARK    8  A    between atoms: C_17  and  C_18
REMARK    9  A    between atoms: C_18  and  N_19
REMARK                            x       y       z     vdW  Elec       q    Type
REMARK                         _______ _______ _______ _____ _____    ______ ____
ROOT
ATOM      1  O   UNL     1       1.849   6.132  20.751  0.00  0.00    +0.000 OA
ENDROOT
BRANCH   1   9
ATOM      2  C   UNL     1       0.445  11.591  20.076  0.00  0.00    +0.000 A 
ATOM      3  C   UNL     1      -0.189  12.117  21.134  0.00  0.00    +0.000 A 
ATOM      4  C   UNL     1      -0.523  11.354  22.349  0.00  0.00    +0.000 A 
ATOM      5  O   UNL     1      -1.123  11.885  23.274  0.00  0.00    +0.000 OA
ATOM      6  O   UNL     1      -0.115  10.034  22.386  0.00  0.00    +0.000 OA
ATOM      7  C   UNL     1       0.553   9.450  21.294  0.00  0.00    +0.000 A 
ATOM      8  C   UNL     1       0.918   8.107  21.436  0.00  0.00    +0.000 A 
ATOM      9  C   UNL     1       1.581   7.429  20.404  0.00  0.00    +0.000 A 
ATOM     10  C   UNL     1       1.856   8.138  19.226  0.00  0.00    +0.000 A 
ATOM     11 CL   UNL     1       2.659   7.501  17.831  0.00  0.00    +0.000 Cl
ATOM     12  C   UNL     1       1.478   9.493  19.104  0.00  0.00    +0.000 A 
ATOM     13  C   UNL     1       0.831  10.173  20.139  0.00  0.00    +0.000 A 
BRANCH   2  15
ATOM     14  C   UNL     1      -0.418  13.127  18.267  0.00  0.00    +0.000 C 
ATOM     15  C   UNL     1       0.800  12.455  18.889  0.00  0.00    +0.000 C 
ENDBRANCH   2  15
ENDBRANCH   1   9
BRANCH   1  16
ATOM     16  C   UNL     1       0.922   5.101  20.445  0.00  0.00    +0.000 C 
BRANCH  16  17
ATOM     17  C   UNL     1       1.612   3.766  20.151  0.00  0.00    +0.000 C 
ATOM     18  O   UNL     1       1.029   2.849  19.574  0.00  0.00    +0.000 OA
ATOM     19  N   UNL     1       2.918   3.678  20.576  0.00  0.00    +0.000 N 
ATOM     20  H   UNL     1       3.323   4.499  21.014  0.00  0.00    +0.000 HD
BRANCH  19  21
ATOM     21  C   UNL     1       3.739   2.509  20.333  0.00  0.00    +0.000 C 
BRANCH  21  22
ATOM     22  C   UNL     1       4.563   2.651  19.056  0.00  0.00    +0.000 C 
BRANCH  22  23
ATOM     23  C   UNL     1       5.108   4.071  18.902  0.00  0.00    +0.000 C 
BRANCH  23  24
ATOM     24  N   UNL     1       5.622   4.340  17.567  0.00  0.00    +0.000 N 
ATOM     25  C   UNL     1       4.764   4.530  16.424  0.00  0.00    +0.000 C 
ATOM     26  C   UNL     1       5.702   4.360  15.245  0.00  0.00    +0.000 C 
ATOM     27  C   UNL     1       7.047   4.834  15.780  0.00  0.00    +0.000 C 
ATOM     28  C   UNL     1       6.964   4.492  17.248  0.00  0.00    +0.000 C 
ATOM     29  O   UNL     1       7.913   4.413  18.010  0.00  0.00    +0.000 OA
ENDBRANCH  23  24
ENDBRANCH  22  23
ENDBRANCH  21  22
ENDBRANCH  19  21
ENDBRANCH  16  17
ENDBRANCH   1  16
TORSDOF 8
ENDMDL
MODEL 9
REMARK VINA RESULT:      -7.0      2.463      8.296
REMARK  Name = 
REMARK  9 active torsions:
REMARK  status: ('A' for Active; 'I' for Inactive)
REMARK    1  A    between atoms: C_1  and  C_2
REMARK    2  A    between atoms: C_2  and  C_3
REMARK    3  A    between atoms: C_10  and  O_11
REMARK    4  A    between atoms: O_11  and  C_12
REMARK    5  A    between atoms: C_12  and  C_13
REMARK    6  A    between atoms: N_15  and  C_16
REMARK    7  A    between atoms: C_16  and  C_17
REMARK    8  A    between atoms: C_17  and  C_18
REMARK    9  A    between atoms: C_18  and  N_19
REMARK                            x       y       z     vdW  Elec       q    Type
REMARK                         _______ _______ _______ _____ _____    ______ ____
ROOT
ATOM      1  O   UNL     1       3.706   3.297  20.786  0.00  0.00    +0.000 OA
ENDROOT
BRANCH   1   9
ATOM      2  C   UNL     1       5.597   4.719  15.625  0.00  0.00    +0.000 A 
ATOM      3  C   UNL     1       6.549   5.664  15.644  0.00  0.00    +0.000 A 
ATOM      4  C   UNL     1       7.044   6.301  16.876  0.00  0.00    +0.000 A 
ATOM      5  O   UNL     1       7.901   7.173  16.827  0.00  0.00    +0.000 OA
ATOM      6  O   UNL     1       6.504   5.854  18.068  0.00  0.00    +0.000 OA
ATOM      7  C   UNL     1       5.504   4.865  18.085  0.00  0.00    +0.000 A 
ATOM      8  C   UNL     1       5.025   4.490  19.345  0.00  0.00    +0.000 A 
ATOM      9  C   UNL     1       4.023   3.519  19.472  0.00  0.00    +0.000 A 
ATOM     10  C   UNL     1       3.513   2.945  18.298  0.00  0.00    +0.000 A 
ATOM     11 CL   UNL     1       2.277   1.736  18.222  0.00  0.00    +0.000 Cl
ATOM     12  C   UNL     1       4.011   3.340  17.038  0.00  0.00    +0.000 A 
ATOM     13  C   UNL     1       5.021   4.297  16.911  0.00  0.00    +0.000 A 
BRANCH   2  15
ATOM     14  C   UNL     1       6.359   3.845  13.383  0.00  0.00    +0.000 C 
ATOM     15  C   UNL     1       5.182   4.076  14.323  0.00  0.00    +0.000 C 
ENDBRANCH   2  15
ENDBRANCH   1   9
BRANCH   1  16
ATOM     16  C   UNL     1       2.373   3.474  21.241  0.00  0.00    +0.000 C 
BRANCH  16  17
ATOM     17  C   UNL     1       1.701   4.700  20.615  0.00  0.00    +0.000 C 
ATOM     18  O   UNL     1       0.646   4.612  19.990  0.00  0.00    +0.000 OA
ATOM     19  N   UNL     1       2.365   5.891  20.807  0.00  0.00    +0.000 N 
ATOM     20  H   UNL     1       3.213   5.868  21.364  0.00  0.00    +0.000 HD
BRANCH  19  21
ATOM     21  C   UNL     1       1.846   7.156  20.331  0.00  0.00    +0.000 C 
BRANCH  21  22
ATOM     22  C   UNL     1       0.825   7.750  21.298  0.00  0.00    +0.000 C 
BRANCH  22  23
ATOM     23  C   UNL     1       1.413   8.933  22.068  0.00  0.00    +0.000 C 
BRANCH  23  24
ATOM     24  N   UNL     1       0.477  10.039  22.211  0.00  0.00    +0.000 N 
ATOM     25  C   UNL     1      -0.497  10.106  23.272  0.00  0.00    +0.000 C 
ATOM     26  C   UNL     1      -1.476  11.157  22.788  0.00  0.00    +0.000 C 
ATOM     27  C   UNL     1      -0.621  12.085  21.935  0.00  0.00    +0.000 C 
ATOM     28  C   UNL     1       0.440  11.159  21.393  0.00  0.00    +0.000 C 
ATOM     29  O   UNL     1       1.158  11.391  20.434  0.00  0.00    +0.000 OA
ENDBRANCH  23  24
ENDBRANCH  22  23
ENDBRANCH  21  22
ENDBRANCH  19  21
ENDBRANCH  16  17
ENDBRANCH   1  16
TORSDOF 8
ENDMDL
