MODEL 1
REMARK VINA RESULT:      -6.7      0.000      0.000
REMARK  Name = 
REMARK  8 active torsions:
REMARK  status: ('A' for Active; 'I' for Inactive)
REMARK    1  A    between atoms: C_1  and  C_2
REMARK    2  A    between atoms: C_5  and  C_6
REMARK    3  A    between atoms: C_7  and  C_8
REMARK    4  A    between atoms: C_8  and  N_9
REMARK    5  A    between atoms: N_9  and  C_10
REMARK    6  A    between atoms: C_10  and  C_11
REMARK    7  A    between atoms: C_11  and  O_12
REMARK    8  A    between atoms: O_12  and  C_13
REMARK                            x       y       z     vdW  Elec       q    Type
REMARK                         _______ _______ _______ _____ _____    ______ ____
ROOT
ATOM      1  N   UNL     1       4.850   2.867  17.492  0.00  0.00    +0.000 NA
ATOM      2  H   UNL     1       5.543   3.279  18.114  0.00  0.00    +0.000 HD
ENDROOT
BRANCH   1   3
ATOM      3  C   UNL     1       4.516   3.829  16.450  0.00  0.00    +0.000 C 
BRANCH   3  10
ATOM      4  C   UNL     1       6.166   3.824  13.680  0.00  0.00    +0.000 C 
ATOM      5  C   UNL     1       6.460   4.615  14.900  0.00  0.00    +0.000 A 
ATOM      6  N   UNL     1       7.498   5.458  14.931  0.00  0.00    +0.000 NA
ATOM      7  N   UNL     1       7.470   5.966  16.169  0.00  0.00    +0.000 N 
ATOM      8  C   UNL     1       6.441   5.496  16.937  0.00  0.00    +0.000 A 
ATOM      9  C   UNL     1       6.235   5.932  18.336  0.00  0.00    +0.000 C 
ATOM     10  C   UNL     1       5.744   4.612  16.133  0.00  0.00    +0.000 A 
ATOM     11  H   UNL     1       8.186   6.636  16.424  0.00  0.00    +0.000 HD
ENDBRANCH   3  10
ENDBRANCH   1   3
BRANCH   1  12
ATOM     12  C   UNL     1       3.684   2.426  18.266  0.00  0.00    +0.000 C 
BRANCH  12  13
ATOM     13  C   UNL     1       2.315   2.640  17.590  0.00  0.00    +0.000 C 
BRANCH  13  14
ATOM     14  O   UNL     1       1.398   3.193  18.537  0.00  0.00    +0.000 OA
BRANCH  14  15
ATOM     15  C   UNL     1       1.695   4.448  18.988  0.00  0.00    +0.000 A 
ATOM     16  C   UNL     1       2.067   5.366  18.004  0.00  0.00    +0.000 A 
ATOM     17  C   UNL     1       2.377   6.682  18.347  0.00  0.00    +0.000 A 
ATOM     18  C   UNL     1       2.298   7.090  19.677  0.00  0.00    +0.000 A 
ATOM     19  C   UNL     1       1.907   6.182  20.660  0.00  0.00    +0.000 A 
ATOM     20  C   UNL     1       1.605   4.862  20.317  0.00  0.00    +0.000 A 
ENDBRANCH  14  15
ENDBRANCH  13  14
ENDBRANCH  12  13
ENDBRANCH   1  12
TORSDOF 6
ENDMDL
MODEL 2
REMARK VINA RESULT:      -6.6      1.072      1.394
REMARK  Name = 
REMARK  8 active torsions:
REMARK  status: ('A' for Active; 'I' for Inactive)
REMARK    1  A    between atoms: C_1  and  C_2
REMARK    2  A    between atoms: C_5  and  C_6
REMARK    3  A    between atoms: C_7  and  C_8
REMARK    4  A    between atoms: C_8  and  N_9
REMARK    5  A    between atoms: N_9  and  C_10
REMARK    6  A    between atoms: C_10  and  C_11
REMARK    7  A    between atoms: C_11  and  O_12
REMARK    8  A    between atoms: O_12  and  C_13
REMARK                            x       y       z     vdW  Elec       q    Type
REMARK                         _______ _______ _______ _____ _____    ______ ____
ROOT
ATOM      1  N   UNL     1       4.914   3.404  17.744  0.00  0.00    +0.000 NA
ATOM      2  H   UNL     1       5.450   4.046  18.325  0.00  0.00    +0.000 HD
ENDROOT
BRANCH   1   3
ATOM      3  C   UNL     1       4.598   4.058  16.481  0.00  0.00    +0.000 C 
BRANCH   3  10
ATOM      4  C   UNL     1       5.996   3.751  13.592  0.00  0.00    +0.000 C 
ATOM      5  C   UNL     1       6.431   4.620  14.714  0.00  0.00    +0.000 A 
ATOM      6  N   UNL     1       7.504   5.408  14.588  0.00  0.00    +0.000 NA
ATOM      7  N   UNL     1       7.607   6.011  15.778  0.00  0.00    +0.000 N 
ATOM      8  C   UNL     1       6.630   5.656  16.665  0.00  0.00    +0.000 A 
ATOM      9  C   UNL     1       6.568   6.211  18.036  0.00  0.00    +0.000 C 
ATOM     10  C   UNL     1       5.827   4.749  15.999  0.00  0.00    +0.000 A 
ATOM     11  H   UNL     1       8.372   6.663  15.916  0.00  0.00    +0.000 HD
ENDBRANCH   3  10
ENDBRANCH   1   3
BRANCH   1  12
ATOM     12  C   UNL     1       3.724   2.948  18.473  0.00  0.00    +0.000 C 
BRANCH  12  13
ATOM     13  C   UNL     1       2.618   4.003  18.669  0.00  0.00    +0.000 C 
BRANCH  13  14
ATOM     14  O   UNL     1       3.039   4.956  19.648  0.00  0.00    +0.000 OA
BRANCH  14  15
ATOM     15  C   UNL     1       2.636   6.244  19.435  0.00  0.00    +0.000 A 
ATOM     16  C   UNL     1       2.923   6.760  18.169  0.00  0.00    +0.000 A 
ATOM     17  C   UNL     1       2.544   8.060  17.834  0.00  0.00    +0.000 A 
ATOM     18  C   UNL     1       1.859   8.844  18.759  0.00  0.00    +0.000 A 
ATOM     19  C   UNL     1       1.552   8.326  20.017  0.00  0.00    +0.000 A 
ATOM     20  C   UNL     1       1.939   7.027  20.356  0.00  0.00    +0.000 A 
ENDBRANCH  14  15
ENDBRANCH  13  14
ENDBRANCH  12  13
ENDBRANCH   1  12
TORSDOF 6
ENDMDL
MODEL 3
REMARK VINA RESULT:      -6.6      0.218      1.921
REMARK  Name = 
REMARK  8 active torsions:
REMARK  status: ('A' for Active; 'I' for Inactive)
REMARK    1  A    between atoms: C_1  and  C_2
REMARK    2  A    between atoms: C_5  and  C_6
REMARK    3  A    between atoms: C_7  and  C_8
REMARK    4  A    between atoms: C_8  and  N_9
REMARK    5  A    between atoms: N_9  and  C_10
REMARK    6  A    between atoms: C_10  and  C_11
REMARK    7  A    between atoms: C_11  and  O_12
REMARK    8  A    between atoms: O_12  and  C_13
REMARK                            x       y       z     vdW  Elec       q    Type
REMARK                         _______ _______ _______ _____ _____    ______ ____
ROOT
ATOM      1  N   UNL     1       4.757   2.818  17.182  0.00  0.00    +0.000 NA
ATOM      2  H   UNL     1       5.651   3.028  17.622  0.00  0.00    +0.000 HD
ENDROOT
BRANCH   1   3
ATOM      3  C   UNL     1       4.411   3.901  16.270  0.00  0.00    +0.000 C 
BRANCH   3  10
ATOM      4  C   UNL     1       6.008   6.016  18.106  0.00  0.00    +0.000 C 
ATOM      5  C   UNL     1       6.373   5.552  16.745  0.00  0.00    +0.000 A 
ATOM      6  N   UNL     1       7.482   6.000  16.148  0.00  0.00    +0.000 NA
ATOM      7  N   UNL     1       7.474   5.400  14.951  0.00  0.00    +0.000 N 
ATOM      8  C   UNL     1       6.408   4.566  14.757  0.00  0.00    +0.000 A 
ATOM      9  C   UNL     1       6.214   3.810  13.500  0.00  0.00    +0.000 C 
ATOM     10  C   UNL     1       5.664   4.629  15.922  0.00  0.00    +0.000 A 
ATOM     11  H   UNL     1       8.235   5.603  14.312  0.00  0.00    +0.000 HD
ENDBRANCH   3  10
ENDBRANCH   1   3
BRANCH   1  12
ATOM     12  C   UNL     1       3.738   2.580  18.210  0.00  0.00    +0.000 C 
BRANCH  12  13
ATOM     13  C   UNL     1       2.275   2.747  17.750  0.00  0.00    +0.000 C 
BRANCH  13  14
ATOM     14  O   UNL     1       1.495   3.269  18.828  0.00  0.00    +0.000 OA
BRANCH  14  15
ATOM     15  C   UNL     1       1.748   4.567  19.171  0.00  0.00    +0.000 A 
ATOM     16  C   UNL     1       2.079   5.413  18.110  0.00  0.00    +0.000 A 
ATOM     17  C   UNL     1       2.342   6.764  18.339  0.00  0.00    +0.000 A 
ATOM     18  C   UNL     1       2.256   7.279  19.631  0.00  0.00    +0.000 A 
ATOM     19  C   UNL     1       1.905   6.442  20.690  0.00  0.00    +0.000 A 
ATOM     20  C   UNL     1       1.651   5.088  20.461  0.00  0.00    +0.000 A 
ENDBRANCH  14  15
ENDBRANCH  13  14
ENDBRANCH  12  13
ENDBRANCH   1  12
TORSDOF 6
ENDMDL
MODEL 4
REMARK VINA RESULT:      -6.5      0.469      2.272
REMARK  Name = 
REMARK  8 active torsions:
REMARK  status: ('A' for Active; 'I' for Inactive)
REMARK    1  A    between atoms: C_1  and  C_2
REMARK    2  A    between atoms: C_5  and  C_6
REMARK    3  A    between atoms: C_7  and  C_8
REMARK    4  A    between atoms: C_8  and  N_9
REMARK    5  A    between atoms: N_9  and  C_10
REMARK    6  A    between atoms: C_10  and  C_11
REMARK    7  A    between atoms: C_11  and  O_12
REMARK    8  A    between atoms: O_12  and  C_13
REMARK                            x       y       z     vdW  Elec       q    Type
REMARK                         _______ _______ _______ _____ _____    ______ ____
ROOT
ATOM      1  N   UNL     1       4.785   3.036  17.670  0.00  0.00    +0.000 NA
ATOM      2  H   UNL     1       4.871   3.761  18.380  0.00  0.00    +0.000 HD
ENDROOT
BRANCH   1   3
ATOM      3  C   UNL     1       4.539   3.662  16.378  0.00  0.00    +0.000 C 
BRANCH   3  10
ATOM      4  C   UNL     1       6.064   5.795  18.254  0.00  0.00    +0.000 C 
ATOM      5  C   UNL     1       6.413   5.409  16.865  0.00  0.00    +0.000 A 
ATOM      6  N   UNL     1       7.475   5.946  16.256  0.00  0.00    +0.000 NA
ATOM      7  N   UNL     1       7.465   5.395  15.036  0.00  0.00    +0.000 N 
ATOM      8  C   UNL     1       6.445   4.507  14.838  0.00  0.00    +0.000 A 
ATOM      9  C   UNL     1       6.257   3.791  13.556  0.00  0.00    +0.000 C 
ATOM     10  C   UNL     1       5.735   4.478  16.024  0.00  0.00    +0.000 A 
ATOM     11  H   UNL     1       8.193   5.669  14.385  0.00  0.00    +0.000 HD
ENDBRANCH   3  10
ENDBRANCH   1   3
BRANCH   1  12
ATOM     12  C   UNL     1       3.741   2.080  18.058  0.00  0.00    +0.000 C 
BRANCH  12  13
ATOM     13  C   UNL     1       2.802   2.543  19.190  0.00  0.00    +0.000 C 
BRANCH  13  14
ATOM     14  O   UNL     1       1.800   3.409  18.652  0.00  0.00    +0.000 OA
BRANCH  14  15
ATOM     15  C   UNL     1       1.929   4.733  18.965  0.00  0.00    +0.000 A 
ATOM     16  C   UNL     1       1.675   5.060  20.299  0.00  0.00    +0.000 A 
ATOM     17  C   UNL     1       1.791   6.380  20.737  0.00  0.00    +0.000 A 
ATOM     18  C   UNL     1       2.181   7.376  19.845  0.00  0.00    +0.000 A 
ATOM     19  C   UNL     1       2.455   7.050  18.516  0.00  0.00    +0.000 A 
ATOM     20  C   UNL     1       2.330   5.730  18.076  0.00  0.00    +0.000 A 
ENDBRANCH  14  15
ENDBRANCH  13  14
ENDBRANCH  12  13
ENDBRANCH   1  12
TORSDOF 6
ENDMDL
MODEL 5
REMARK VINA RESULT:      -6.5      1.849      3.170
REMARK  Name = 
REMARK  8 active torsions:
REMARK  status: ('A' for Active; 'I' for Inactive)
REMARK    1  A    between atoms: C_1  and  C_2
REMARK    2  A    between atoms: C_5  and  C_6
REMARK    3  A    between atoms: C_7  and  C_8
REMARK    4  A    between atoms: C_8  and  N_9
REMARK    5  A    between atoms: N_9  and  C_10
REMARK    6  A    between atoms: C_10  and  C_11
REMARK    7  A    between atoms: C_11  and  O_12
REMARK    8  A    between atoms: O_12  and  C_13
REMARK                            x       y       z     vdW  Elec       q    Type
REMARK                         _______ _______ _______ _____ _____    ______ ____
ROOT
ATOM      1  N   UNL     1       4.318   6.466  17.143  0.00  0.00    +0.000 NA
ATOM      2  H   UNL     1       4.331   5.573  17.631  0.00  0.00    +0.000 HD
ENDROOT
BRANCH   1   3
ATOM      3  C   UNL     1       5.673   7.000  17.093  0.00  0.00    +0.000 C 
BRANCH   3  10
ATOM      4  C   UNL     1       6.429   5.071  14.623  0.00  0.00    +0.000 C 
ATOM      5  C   UNL     1       6.963   5.012  16.006  0.00  0.00    +0.000 A 
ATOM      6  N   UNL     1       7.878   4.097  16.344  0.00  0.00    +0.000 NA
ATOM      7  N   UNL     1       8.101   4.323  17.644  0.00  0.00    +0.000 N 
ATOM      8  C   UNL     1       7.377   5.362  18.158  0.00  0.00    +0.000 A 
ATOM      9  C   UNL     1       7.477   5.772  19.577  0.00  0.00    +0.000 C 
ATOM     10  C   UNL     1       6.622   5.852  17.106  0.00  0.00    +0.000 A 
ATOM     11  H   UNL     1       8.768   3.728  18.122  0.00  0.00    +0.000 HD
ENDBRANCH   3  10
ENDBRANCH   1   3
BRANCH   1  12
ATOM     12  C   UNL     1       3.362   7.373  17.789  0.00  0.00    +0.000 C 
BRANCH  12  13
ATOM     13  C   UNL     1       2.815   6.904  19.152  0.00  0.00    +0.000 C 
BRANCH  13  14
ATOM     14  O   UNL     1       3.601   5.809  19.628  0.00  0.00    +0.000 OA
BRANCH  14  15
ATOM     15  C   UNL     1       2.957   4.606  19.706  0.00  0.00    +0.000 A 
ATOM     16  C   UNL     1       1.783   4.604  20.462  0.00  0.00    +0.000 A 
ATOM     17  C   UNL     1       1.034   3.434  20.599  0.00  0.00    +0.000 A 
ATOM     18  C   UNL     1       1.447   2.266  19.962  0.00  0.00    +0.000 A 
ATOM     19  C   UNL     1       2.608   2.269  19.189  0.00  0.00    +0.000 A 
ATOM     20  C   UNL     1       3.363   3.438  19.060  0.00  0.00    +0.000 A 
ENDBRANCH  14  15
ENDBRANCH  13  14
ENDBRANCH  12  13
ENDBRANCH   1  12
TORSDOF 6
ENDMDL
MODEL 6
REMARK VINA RESULT:      -6.5      2.531      6.267
REMARK  Name = 
REMARK  8 active torsions:
REMARK  status: ('A' for Active; 'I' for Inactive)
REMARK    1  A    between atoms: C_1  and  C_2
REMARK    2  A    between atoms: C_5  and  C_6
REMARK    3  A    between atoms: C_7  and  C_8
REMARK    4  A    between atoms: C_8  and  N_9
REMARK    5  A    between atoms: N_9  and  C_10
REMARK    6  A    between atoms: C_10  and  C_11
REMARK    7  A    between atoms: C_11  and  O_12
REMARK    8  A    between atoms: O_12  and  C_13
REMARK                            x       y       z     vdW  Elec       q    Type
REMARK                         _______ _______ _______ _____ _____    ______ ____
ROOT
ATOM      1  N   UNL     1       5.743   4.214  18.879  0.00  0.00    +0.000 NA
ATOM      2  H   UNL     1       5.643   3.244  18.586  0.00  0.00    +0.000 HD
ENDROOT
BRANCH   1   3
ATOM      3  C   UNL     1       4.551   4.611  19.618  0.00  0.00    +0.000 C 
BRANCH   3  10
ATOM      4  C   UNL     1       3.481   1.705  18.719  0.00  0.00    +0.000 C 
ATOM      5  C   UNL     1       2.886   3.024  18.390  0.00  0.00    +0.000 A 
ATOM      6  N   UNL     1       1.770   3.103  17.658  0.00  0.00    +0.000 NA
ATOM      7  N   UNL     1       1.547   4.418  17.543  0.00  0.00    +0.000 N 
ATOM      8  C   UNL     1       2.468   5.194  18.190  0.00  0.00    +0.000 A 
ATOM      9  C   UNL     1       2.401   6.673  18.184  0.00  0.00    +0.000 C 
ATOM     10  C   UNL     1       3.362   4.313  18.771  0.00  0.00    +0.000 A 
ATOM     11  H   UNL     1       0.739   4.718  17.009  0.00  0.00    +0.000 HD
ENDBRANCH   3  10
ENDBRANCH   1   3
BRANCH   1  12
ATOM     12  C   UNL     1       6.009   5.063  17.713  0.00  0.00    +0.000 C 
BRANCH  12  13
ATOM     13  C   UNL     1       7.137   4.579  16.780  0.00  0.00    +0.000 C 
BRANCH  13  14
ATOM     14  O   UNL     1       7.255   5.475  15.673  0.00  0.00    +0.000 OA
BRANCH  14  15
ATOM     15  C   UNL     1       7.037   4.929  14.440  0.00  0.00    +0.000 A 
ATOM     16  C   UNL     1       5.933   4.078  14.350  0.00  0.00    +0.000 A 
ATOM     17  C   UNL     1       5.603   3.475  13.135  0.00  0.00    +0.000 A 
ATOM     18  C   UNL     1       6.367   3.737  12.000  0.00  0.00    +0.000 A 
ATOM     19  C   UNL     1       7.458   4.602  12.081  0.00  0.00    +0.000 A 
ATOM     20  C   UNL     1       7.793   5.198  13.299  0.00  0.00    +0.000 A 
ENDBRANCH  14  15
ENDBRANCH  13  14
ENDBRANCH  12  13
ENDBRANCH   1  12
TORSDOF 6
ENDMDL
MODEL 7
REMARK VINA RESULT:      -6.5      1.289      1.814
REMARK  Name = 
REMARK  8 active torsions:
REMARK  status: ('A' for Active; 'I' for Inactive)
REMARK    1  A    between atoms: C_1  and  C_2
REMARK    2  A    between atoms: C_5  and  C_6
REMARK    3  A    between atoms: C_7  and  C_8
REMARK    4  A    between atoms: C_8  and  N_9
REMARK    5  A    between atoms: N_9  and  C_10
REMARK    6  A    between atoms: C_10  and  C_11
REMARK    7  A    between atoms: C_11  and  O_12
REMARK    8  A    between atoms: O_12  and  C_13
REMARK                            x       y       z     vdW  Elec       q    Type
REMARK                         _______ _______ _______ _____ _____    ______ ____
ROOT
ATOM      1  N   UNL     1       4.783   2.853  16.918  0.00  0.00    +0.000 NA
ATOM      2  H   UNL     1       5.499   3.008  17.625  0.00  0.00    +0.000 HD
ENDROOT
BRANCH   1   3
ATOM      3  C   UNL     1       4.477   4.120  16.266  0.00  0.00    +0.000 C 
BRANCH   3  10
ATOM      4  C   UNL     1       6.098   3.710  13.509  0.00  0.00    +0.000 C 
ATOM      5  C   UNL     1       6.468   4.586  14.647  0.00  0.00    +0.000 A 
ATOM      6  N   UNL     1       7.574   5.336  14.598  0.00  0.00    +0.000 NA
ATOM      7  N   UNL     1       7.600   5.959  15.782  0.00  0.00    +0.000 N 
ATOM      8  C   UNL     1       6.542   5.654  16.591  0.00  0.00    +0.000 A 
ATOM      9  C   UNL     1       6.385   6.237  17.943  0.00  0.00    +0.000 C 
ATOM     10  C   UNL     1       5.765   4.760  15.875  0.00  0.00    +0.000 A 
ATOM     11  H   UNL     1       8.373   6.587  15.972  0.00  0.00    +0.000 HD
ENDBRANCH   3  10
ENDBRANCH   1   3
BRANCH   1  12
ATOM     12  C   UNL     1       3.608   2.219  17.528  0.00  0.00    +0.000 C 
BRANCH  12  13
ATOM     13  C   UNL     1       3.879   1.414  18.815  0.00  0.00    +0.000 C 
BRANCH  13  14
ATOM     14  O   UNL     1       4.170   2.314  19.886  0.00  0.00    +0.000 OA
BRANCH  14  15
ATOM     15  C   UNL     1       3.290   3.346  20.052  0.00  0.00    +0.000 A 
ATOM     16  C   UNL     1       2.011   2.979  20.475  0.00  0.00    +0.000 A 
ATOM     17  C   UNL     1       1.033   3.951  20.692  0.00  0.00    +0.000 A 
ATOM     18  C   UNL     1       1.338   5.297  20.505  0.00  0.00    +0.000 A 
ATOM     19  C   UNL     1       2.621   5.669  20.103  0.00  0.00    +0.000 A 
ATOM     20  C   UNL     1       3.596   4.696  19.877  0.00  0.00    +0.000 A 
ENDBRANCH  14  15
ENDBRANCH  13  14
ENDBRANCH  12  13
ENDBRANCH   1  12
TORSDOF 6
ENDMDL
MODEL 8
REMARK VINA RESULT:      -6.4      2.026      3.413
REMARK  Name = 
REMARK  8 active torsions:
REMARK  status: ('A' for Active; 'I' for Inactive)
REMARK    1  A    between atoms: C_1  and  C_2
REMARK    2  A    between atoms: C_5  and  C_6
REMARK    3  A    between atoms: C_7  and  C_8
REMARK    4  A    between atoms: C_8  and  N_9
REMARK    5  A    between atoms: N_9  and  C_10
REMARK    6  A    between atoms: C_10  and  C_11
REMARK    7  A    between atoms: C_11  and  O_12
REMARK    8  A    between atoms: O_12  and  C_13
REMARK                            x       y       z     vdW  Elec       q    Type
REMARK                         _______ _______ _______ _____ _____    ______ ____
ROOT
ATOM      1  N   UNL     1       4.394   6.560  17.404  0.00  0.00    +0.000 NA
ATOM      2  H   UNL     1       3.895   6.530  16.517  0.00  0.00    +0.000 HD
ENDROOT
BRANCH   1   3
ATOM      3  C   UNL     1       5.747   7.050  17.171  0.00  0.00    +0.000 C 
BRANCH   3  10
ATOM      4  C   UNL     1       7.732   5.880  19.426  0.00  0.00    +0.000 C 
ATOM      5  C   UNL     1       7.515   5.351  18.057  0.00  0.00    +0.000 A 
ATOM      6  N   UNL     1       8.164   4.259  17.639  0.00  0.00    +0.000 NA
ATOM      7  N   UNL     1       7.749   4.096  16.376  0.00  0.00    +0.000 N 
ATOM      8  C   UNL     1       6.841   5.032  15.967  0.00  0.00    +0.000 A 
ATOM      9  C   UNL     1       6.260   5.028  14.605  0.00  0.00    +0.000 C 
ATOM     10  C   UNL     1       6.651   5.871  17.050  0.00  0.00    +0.000 A 
ATOM     11  H   UNL     1       8.125   3.316  15.849  0.00  0.00    +0.000 HD
ENDBRANCH   3  10
ENDBRANCH   1   3
BRANCH   1  12
ATOM     12  C   UNL     1       4.360   5.238  18.041  0.00  0.00    +0.000 C 
BRANCH  12  13
ATOM     13  C   UNL     1       3.592   4.147  17.268  0.00  0.00    +0.000 C 
BRANCH  13  14
ATOM     14  O   UNL     1       3.597   2.935  18.027  0.00  0.00    +0.000 OA
BRANCH  14  15
ATOM     15  C   UNL     1       2.762   2.907  19.108  0.00  0.00    +0.000 A 
ATOM     16  C   UNL     1       3.381   2.673  20.337  0.00  0.00    +0.000 A 
ATOM     17  C   UNL     1       2.628   2.638  21.512  0.00  0.00    +0.000 A 
ATOM     18  C   UNL     1       1.253   2.857  21.462  0.00  0.00    +0.000 A 
ATOM     19  C   UNL     1       0.634   3.112  20.239  0.00  0.00    +0.000 A 
ATOM     20  C   UNL     1       1.387   3.138  19.062  0.00  0.00    +0.000 A 
ENDBRANCH  14  15
ENDBRANCH  13  14
ENDBRANCH  12  13
ENDBRANCH   1  12
TORSDOF 6
ENDMDL
MODEL 9
REMARK VINA RESULT:      -6.4      1.643      3.723
REMARK  Name = 
REMARK  8 active torsions:
REMARK  status: ('A' for Active; 'I' for Inactive)
REMARK    1  A    between atoms: C_1  and  C_2
REMARK    2  A    between atoms: C_5  and  C_6
REMARK    3  A    between atoms: C_7  and  C_8
REMARK    4  A    between atoms: C_8  and  N_9
REMARK    5  A    between atoms: N_9  and  C_10
REMARK    6  A    between atoms: C_10  and  C_11
REMARK    7  A    between atoms: C_11  and  O_12
REMARK    8  A    between atoms: O_12  and  C_13
REMARK                            x       y       z     vdW  Elec       q    Type
REMARK                         _______ _______ _______ _____ _____    ______ ____
ROOT
ATOM      1  N   UNL     1       4.186   6.352  17.161  0.00  0.00    +0.000 NA
ATOM      2  H   UNL     1       4.200   5.347  17.330  0.00  0.00    +0.000 HD
ENDROOT
BRANCH   1   3
ATOM      3  C   UNL     1       5.518   6.892  17.398  0.00  0.00    +0.000 C 
BRANCH   3  10
ATOM      4  C   UNL     1       7.625   5.756  19.558  0.00  0.00    +0.000 C 
ATOM      5  C   UNL     1       7.423   5.285  18.166  0.00  0.00    +0.000 A 
ATOM      6  N   UNL     1       8.143   4.269  17.680  0.00  0.00    +0.000 NA
ATOM      7  N   UNL     1       7.719   4.142  16.417  0.00  0.00    +0.000 N 
ATOM      8  C   UNL     1       6.737   5.028  16.071  0.00  0.00    +0.000 A 
ATOM      9  C   UNL     1       6.134   5.053  14.720  0.00  0.00    +0.000 C 
ATOM     10  C   UNL     1       6.505   5.792  17.201  0.00  0.00    +0.000 A 
ATOM     11  H   UNL     1       8.142   3.421  15.843  0.00  0.00    +0.000 HD
ENDBRANCH   3  10
ENDBRANCH   1   3
BRANCH   1  12
ATOM     12  C   UNL     1       3.151   6.981  17.990  0.00  0.00    +0.000 C 
BRANCH  12  13
ATOM     13  C   UNL     1       3.026   6.437  19.427  0.00  0.00    +0.000 C 
BRANCH  13  14
ATOM     14  O   UNL     1       2.043   5.400  19.458  0.00  0.00    +0.000 OA
BRANCH  14  15
ATOM     15  C   UNL     1       2.468   4.166  19.055  0.00  0.00    +0.000 A 
ATOM     16  C   UNL     1       3.560   3.650  19.757  0.00  0.00    +0.000 A 
ATOM     17  C   UNL     1       4.070   2.390  19.443  0.00  0.00    +0.000 A 
ATOM     18  C   UNL     1       3.477   1.632  18.436  0.00  0.00    +0.000 A 
ATOM     19  C   UNL     1       2.374   2.134  17.746  0.00  0.00    +0.000 A 
ATOM     20  C   UNL     1       1.868   3.400  18.055  0.00  0.00    +0.000 A 
ENDBRANCH  14  15
ENDBRANCH  13  14
ENDBRANCH  12  13
ENDBRANCH   1  12
TORSDOF 6
ENDMDL
