MODEL 1
REMARK VINA RESULT:      -8.2      0.000      0.000
REMARK  Name = 
REMARK  2 active torsions:
REMARK  status: ('A' for Active; 'I' for Inactive)
REMARK    1  A    between atoms: N_11  and  N_12
REMARK    2  A    between atoms: C_13  and  C_15
REMARK                            x       y       z     vdW  Elec       q    Type
REMARK                         _______ _______ _______ _____ _____    ______ ____
ROOT
ATOM      1  N   UNL     1       2.260   7.600  19.500  0.00  0.00    +0.000 N 
ATOM      2  C   UNL     1       2.597   6.251  19.564  0.00  0.00    +0.000 C 
ATOM      3  O   UNL     1       2.224   5.517  20.480  0.00  0.00    +0.000 OA
ATOM      4  H   UNL     1       2.586   8.186  18.730  0.00  0.00    +0.000 HD
ENDROOT
BRANCH   1  15
ATOM      5  O   UNL     1       1.435   9.863  18.011  0.00  0.00    +0.000 OA
ATOM      6  C   UNL     1       0.867  10.126  19.049  0.00  0.00    +0.000 C 
ATOM      7  N   UNL     1       0.103  11.227  19.378  0.00  0.00    +0.000 N 
ATOM      8  C   UNL     1      -0.372  11.127  20.685  0.00  0.00    +0.000 A 
ATOM      9  C   UNL     1      -1.152  12.036  21.368  0.00  0.00    +0.000 A 
ATOM     10  C   UNL     1      -1.509  11.718  22.685  0.00  0.00    +0.000 A 
ATOM     11  C   UNL     1      -1.085  10.512  23.283  0.00  0.00    +0.000 A 
ATOM     12  C   UNL     1      -0.291   9.604  22.577  0.00  0.00    +0.000 A 
ATOM     13  C   UNL     1       0.052   9.943  21.284  0.00  0.00    +0.000 A 
ATOM     14  C   UNL     1       0.878   9.249  20.298  0.00  0.00    +0.000 C 
ATOM     15  N   UNL     1       1.490   8.129  20.505  0.00  0.00    +0.000 NA
ATOM     16  H   UNL     1      -0.078  11.989  18.740  0.00  0.00    +0.000 HD
ENDBRANCH   1  15
BRANCH   2  17
ATOM     17  C   UNL     1       3.419   5.742  18.483  0.00  0.00    +0.000 A 
ATOM     18  C   UNL     1       3.790   4.433  18.229  0.00  0.00    +0.000 A 
ATOM     19  C   UNL     1       4.593   4.438  17.068  0.00  0.00    +0.000 A 
ATOM     20  C   UNL     1       5.257   3.456  16.310  0.00  0.00    +0.000 A 
ATOM     21  C   UNL     1       5.991   3.857  15.187  0.00  0.00    +0.000 A 
ATOM     22  C   UNL     1       6.065   5.203  14.824  0.00  0.00    +0.000 A 
ATOM     23  C   UNL     1       5.406   6.195  15.564  0.00  0.00    +0.000 A 
ATOM     24  C   UNL     1       4.679   5.770  16.676  0.00  0.00    +0.000 A 
ATOM     25  O   UNL     1       3.963   6.567  17.529  0.00  0.00    +0.000 OA
ENDBRANCH   2  17
TORSDOF 2
ENDMDL
MODEL 2
REMARK VINA RESULT:      -8.1      1.311      8.579
REMARK  Name = 
REMARK  2 active torsions:
REMARK  status: ('A' for Active; 'I' for Inactive)
REMARK    1  A    between atoms: N_11  and  N_12
REMARK    2  A    between atoms: C_13  and  C_15
REMARK                            x       y       z     vdW  Elec       q    Type
REMARK                         _______ _______ _______ _____ _____    ______ ____
ROOT
ATOM      1  N   UNL     1       2.659   7.904  18.656  0.00  0.00    +0.000 N 
ATOM      2  C   UNL     1       1.913   9.060  18.445  0.00  0.00    +0.000 C 
ATOM      3  O   UNL     1       1.914   9.663  17.371  0.00  0.00    +0.000 OA
ATOM      4  H   UNL     1       2.641   7.426  19.558  0.00  0.00    +0.000 HD
ENDROOT
BRANCH   1  15
ATOM      5  O   UNL     1       2.824   5.267  19.673  0.00  0.00    +0.000 OA
ATOM      6  C   UNL     1       3.514   5.113  18.689  0.00  0.00    +0.000 C 
ATOM      7  N   UNL     1       4.194   3.991  18.259  0.00  0.00    +0.000 N 
ATOM      8  C   UNL     1       4.866   4.247  17.065  0.00  0.00    +0.000 A 
ATOM      9  C   UNL     1       5.659   3.380  16.343  0.00  0.00    +0.000 A 
ATOM     10  C   UNL     1       6.236   3.866  15.162  0.00  0.00    +0.000 A 
ATOM     11  C   UNL     1       6.009   5.190  14.732  0.00  0.00    +0.000 A 
ATOM     12  C   UNL     1       5.205   6.057  15.478  0.00  0.00    +0.000 A 
ATOM     13  C   UNL     1       4.653   5.557  16.640  0.00  0.00    +0.000 A 
ATOM     14  C   UNL     1       3.807   6.191  17.649  0.00  0.00    +0.000 C 
ATOM     15  N   UNL     1       3.431   7.427  17.626  0.00  0.00    +0.000 NA
ATOM     16  H   UNL     1       4.188   3.113  18.758  0.00  0.00    +0.000 HD
ENDBRANCH   1  15
BRANCH   2  17
ATOM     17  C   UNL     1       1.121   9.527  19.566  0.00  0.00    +0.000 A 
ATOM     18  C   UNL     1       0.941   8.927  20.800  0.00  0.00    +0.000 A 
ATOM     19  C   UNL     1       0.084   9.758  21.554  0.00  0.00    +0.000 A 
ATOM     20  C   UNL     1      -0.463   9.713  22.849  0.00  0.00    +0.000 A 
ATOM     21  C   UNL     1      -1.309  10.751  23.258  0.00  0.00    +0.000 A 
ATOM     22  C   UNL     1      -1.608  11.811  22.399  0.00  0.00    +0.000 A 
ATOM     23  C   UNL     1      -1.068  11.875  21.105  0.00  0.00    +0.000 A 
ATOM     24  C   UNL     1      -0.225  10.831  20.725  0.00  0.00    +0.000 A 
ATOM     25  O   UNL     1       0.407  10.699  19.517  0.00  0.00    +0.000 OA
ENDBRANCH   2  17
TORSDOF 2
ENDMDL
MODEL 3
REMARK VINA RESULT:      -8.0      0.569      1.239
REMARK  Name = 
REMARK  2 active torsions:
REMARK  status: ('A' for Active; 'I' for Inactive)
REMARK    1  A    between atoms: N_11  and  N_12
REMARK    2  A    between atoms: C_13  and  C_15
REMARK                            x       y       z     vdW  Elec       q    Type
REMARK                         _______ _______ _______ _____ _____    ______ ____
ROOT
ATOM      1  N   UNL     1       2.286   7.799  19.383  0.00  0.00    +0.000 N 
ATOM      2  C   UNL     1       2.674   6.463  19.390  0.00  0.00    +0.000 C 
ATOM      3  O   UNL     1       2.325   5.676  20.272  0.00  0.00    +0.000 OA
ATOM      4  H   UNL     1       2.593   8.430  18.641  0.00  0.00    +0.000 HD
ENDROOT
BRANCH   1  15
ATOM      5  O   UNL     1       1.596  10.224  18.094  0.00  0.00    +0.000 OA
ATOM      6  C   UNL     1       0.994  10.405  19.130  0.00  0.00    +0.000 C 
ATOM      7  N   UNL     1       0.251  11.495  19.536  0.00  0.00    +0.000 N 
ATOM      8  C   UNL     1      -0.280  11.286  20.807  0.00  0.00    +0.000 A 
ATOM      9  C   UNL     1      -1.060  12.151  21.546  0.00  0.00    +0.000 A 
ATOM     10  C   UNL     1      -1.481  11.719  22.811  0.00  0.00    +0.000 A 
ATOM     11  C   UNL     1      -1.120  10.446  23.303  0.00  0.00    +0.000 A 
ATOM     12  C   UNL     1      -0.327   9.583  22.542  0.00  0.00    +0.000 A 
ATOM     13  C   UNL     1       0.081  10.034  21.303  0.00  0.00    +0.000 A 
ATOM     14  C   UNL     1       0.924   9.411  20.286  0.00  0.00    +0.000 C 
ATOM     15  N   UNL     1       1.492   8.255  20.405  0.00  0.00    +0.000 NA
ATOM     16  H   UNL     1       0.122  12.321  18.970  0.00  0.00    +0.000 HD
ENDBRANCH   1  15
BRANCH   2  17
ATOM     17  C   UNL     1       3.520   6.032  18.294  0.00  0.00    +0.000 A 
ATOM     18  C   UNL     1       4.107   6.806  17.307  0.00  0.00    +0.000 A 
ATOM     19  C   UNL     1       4.833   5.937  16.465  0.00  0.00    +0.000 A 
ATOM     20  C   UNL     1       5.632   6.096  15.318  0.00  0.00    +0.000 A 
ATOM     21  C   UNL     1       6.201   4.959  14.731  0.00  0.00    +0.000 A 
ATOM     22  C   UNL     1       5.981   3.690  15.271  0.00  0.00    +0.000 A 
ATOM     23  C   UNL     1       5.192   3.512  16.417  0.00  0.00    +0.000 A 
ATOM     24  C   UNL     1       4.640   4.661  16.984  0.00  0.00    +0.000 A 
ATOM     25  O   UNL     1       3.847   4.713  18.099  0.00  0.00    +0.000 OA
ENDBRANCH   2  17
TORSDOF 2
ENDMDL
MODEL 4
REMARK VINA RESULT:      -7.9      1.293      8.599
REMARK  Name = 
REMARK  2 active torsions:
REMARK  status: ('A' for Active; 'I' for Inactive)
REMARK    1  A    between atoms: N_11  and  N_12
REMARK    2  A    between atoms: C_13  and  C_15
REMARK                            x       y       z     vdW  Elec       q    Type
REMARK                         _______ _______ _______ _____ _____    ______ ____
ROOT
ATOM      1  N   UNL     1       2.674   8.042  18.624  0.00  0.00    +0.000 N 
ATOM      2  C   UNL     1       1.910   9.170  18.340  0.00  0.00    +0.000 C 
ATOM      3  O   UNL     1       1.918   9.714  17.234  0.00  0.00    +0.000 OA
ATOM      4  H   UNL     1       2.651   7.613  19.551  0.00  0.00    +0.000 HD
ENDROOT
BRANCH   1  15
ATOM      5  O   UNL     1       2.550   5.378  19.575  0.00  0.00    +0.000 OA
ATOM      6  C   UNL     1       3.290   5.188  18.634  0.00  0.00    +0.000 C 
ATOM      7  N   UNL     1       3.902   4.023  18.218  0.00  0.00    +0.000 N 
ATOM      8  C   UNL     1       4.671   4.249  17.078  0.00  0.00    +0.000 A 
ATOM      9  C   UNL     1       5.437   3.334  16.385  0.00  0.00    +0.000 A 
ATOM     10  C   UNL     1       6.130   3.796  15.258  0.00  0.00    +0.000 A 
ATOM     11  C   UNL     1       6.043   5.145  14.852  0.00  0.00    +0.000 A 
ATOM     12  C   UNL     1       5.266   6.059  15.568  0.00  0.00    +0.000 A 
ATOM     13  C   UNL     1       4.598   5.582  16.677  0.00  0.00    +0.000 A 
ATOM     14  C   UNL     1       3.741   6.261  17.646  0.00  0.00    +0.000 C 
ATOM     15  N   UNL     1       3.471   7.526  17.634  0.00  0.00    +0.000 NA
ATOM     16  H   UNL     1       3.790   3.138  18.689  0.00  0.00    +0.000 HD
ENDBRANCH   1  15
BRANCH   2  17
ATOM     17  C   UNL     1       1.092   9.682  19.421  0.00  0.00    +0.000 A 
ATOM     18  C   UNL     1       0.343  10.846  19.455  0.00  0.00    +0.000 A 
ATOM     19  C   UNL     1      -0.278  10.913  20.721  0.00  0.00    +0.000 A 
ATOM     20  C   UNL     1      -1.146  11.818  21.359  0.00  0.00    +0.000 A 
ATOM     21  C   UNL     1      -1.556  11.545  22.671  0.00  0.00    +0.000 A 
ATOM     22  C   UNL     1      -1.112  10.399  23.334  0.00  0.00    +0.000 A 
ATOM     23  C   UNL     1      -0.250   9.484  22.712  0.00  0.00    +0.000 A 
ATOM     24  C   UNL     1       0.139   9.777  21.405  0.00  0.00    +0.000 A 
ATOM     25  O   UNL     1       0.968   9.022  20.619  0.00  0.00    +0.000 OA
ENDBRANCH   2  17
TORSDOF 2
ENDMDL
MODEL 5
REMARK VINA RESULT:      -7.8      0.943      1.024
REMARK  Name = 
REMARK  2 active torsions:
REMARK  status: ('A' for Active; 'I' for Inactive)
REMARK    1  A    between atoms: N_11  and  N_12
REMARK    2  A    between atoms: C_13  and  C_15
REMARK                            x       y       z     vdW  Elec       q    Type
REMARK                         _______ _______ _______ _____ _____    ______ ____
ROOT
ATOM      1  N   UNL     1       1.912   8.454  19.591  0.00  0.00    +0.000 N 
ATOM      2  C   UNL     1       2.144   7.091  19.756  0.00  0.00    +0.000 C 
ATOM      3  O   UNL     1       1.705   6.456  20.717  0.00  0.00    +0.000 OA
ATOM      4  H   UNL     1       2.290   8.956  18.786  0.00  0.00    +0.000 HD
ENDROOT
BRANCH   1  15
ATOM      5  O   UNL     1       0.299   9.850  17.729  0.00  0.00    +0.000 OA
ATOM      6  C   UNL     1      -0.169  10.319  18.745  0.00  0.00    +0.000 C 
ATOM      7  N   UNL     1      -1.153  11.274  18.899  0.00  0.00    +0.000 N 
ATOM      8  C   UNL     1      -1.394  11.520  20.250  0.00  0.00    +0.000 A 
ATOM      9  C   UNL     1      -2.291  12.415  20.795  0.00  0.00    +0.000 A 
ATOM     10  C   UNL     1      -2.359  12.490  22.192  0.00  0.00    +0.000 A 
ATOM     11  C   UNL     1      -1.542  11.677  23.005  0.00  0.00    +0.000 A 
ATOM     12  C   UNL     1      -0.636  10.777  22.437  0.00  0.00    +0.000 A 
ATOM     13  C   UNL     1      -0.582  10.727  21.059  0.00  0.00    +0.000 A 
ATOM     14  C   UNL     1       0.256   9.937  20.160  0.00  0.00    +0.000 C 
ATOM     15  N   UNL     1       1.175   9.111  20.543  0.00  0.00    +0.000 NA
ATOM     16  H   UNL     1      -1.622  11.719  18.124  0.00  0.00    +0.000 HD
ENDBRANCH   1  15
BRANCH   2  17
ATOM     17  C   UNL     1       2.935   6.444  18.728  0.00  0.00    +0.000 A 
ATOM     18  C   UNL     1       3.072   5.090  18.474  0.00  0.00    +0.000 A 
ATOM     19  C   UNL     1       3.947   4.952  17.376  0.00  0.00    +0.000 A 
ATOM     20  C   UNL     1       4.472   3.868  16.648  0.00  0.00    +0.000 A 
ATOM     21  C   UNL     1       5.351   4.130  15.590  0.00  0.00    +0.000 A 
ATOM     22  C   UNL     1       5.703   5.441  15.262  0.00  0.00    +0.000 A 
ATOM     23  C   UNL     1       5.187   6.535  15.973  0.00  0.00    +0.000 A 
ATOM     24  C   UNL     1       4.311   6.246  17.019  0.00  0.00    +0.000 A 
ATOM     25  O   UNL     1       3.694   7.158  17.834  0.00  0.00    +0.000 OA
ENDBRANCH   2  17
TORSDOF 2
ENDMDL
MODEL 6
REMARK VINA RESULT:      -7.6      1.457      8.627
REMARK  Name = 
REMARK  2 active torsions:
REMARK  status: ('A' for Active; 'I' for Inactive)
REMARK    1  A    between atoms: N_11  and  N_12
REMARK    2  A    between atoms: C_13  and  C_15
REMARK                            x       y       z     vdW  Elec       q    Type
REMARK                         _______ _______ _______ _____ _____    ______ ____
ROOT
ATOM      1  N   UNL     1       1.742   8.702  18.710  0.00  0.00    +0.000 N 
ATOM      2  C   UNL     1       1.555  10.081  18.653  0.00  0.00    +0.000 C 
ATOM      3  O   UNL     1       2.195  10.805  17.889  0.00  0.00    +0.000 OA
ATOM      4  H   UNL     1       1.199   8.127  19.356  0.00  0.00    +0.000 HD
ENDROOT
BRANCH   1  15
ATOM      5  O   UNL     1       2.033   6.350  20.258  0.00  0.00    +0.000 OA
ATOM      6  C   UNL     1       2.857   6.096  19.406  0.00  0.00    +0.000 C 
ATOM      7  N   UNL     1       3.693   5.004  19.290  0.00  0.00    +0.000 N 
ATOM      8  C   UNL     1       4.484   5.107  18.147  0.00  0.00    +0.000 A 
ATOM      9  C   UNL     1       5.445   4.221  17.707  0.00  0.00    +0.000 A 
ATOM     10  C   UNL     1       6.119   4.538  16.519  0.00  0.00    +0.000 A 
ATOM     11  C   UNL     1       5.819   5.718  15.806  0.00  0.00    +0.000 A 
ATOM     12  C   UNL     1       4.845   6.606  16.268  0.00  0.00    +0.000 A 
ATOM     13  C   UNL     1       4.200   6.275  17.442  0.00  0.00    +0.000 A 
ATOM     14  C   UNL     1       3.173   6.982  18.204  0.00  0.00    +0.000 C 
ATOM     15  N   UNL     1       2.683   8.136  17.888  0.00  0.00    +0.000 NA
ATOM     16  H   UNL     1       3.710   4.244  19.954  0.00  0.00    +0.000 HD
ENDBRANCH   1  15
BRANCH   2  17
ATOM     17  C   UNL     1       0.556  10.632  19.548  0.00  0.00    +0.000 A 
ATOM     18  C   UNL     1      -0.490  11.487  19.244  0.00  0.00    +0.000 A 
ATOM     19  C   UNL     1      -1.187  11.745  20.444  0.00  0.00    +0.000 A 
ATOM     20  C   UNL     1      -2.314  12.508  20.799  0.00  0.00    +0.000 A 
ATOM     21  C   UNL     1      -2.717  12.530  22.140  0.00  0.00    +0.000 A 
ATOM     22  C   UNL     1      -2.015  11.810  23.109  0.00  0.00    +0.000 A 
ATOM     23  C   UNL     1      -0.892  11.040  22.774  0.00  0.00    +0.000 A 
ATOM     24  C   UNL     1      -0.514  11.032  21.431  0.00  0.00    +0.000 A 
ATOM     25  O   UNL     1       0.543  10.349  20.891  0.00  0.00    +0.000 OA
ENDBRANCH   2  17
TORSDOF 2
ENDMDL
MODEL 7
REMARK VINA RESULT:      -7.5      1.198      1.760
REMARK  Name = 
REMARK  2 active torsions:
REMARK  status: ('A' for Active; 'I' for Inactive)
REMARK    1  A    between atoms: N_11  and  N_12
REMARK    2  A    between atoms: C_13  and  C_15
REMARK                            x       y       z     vdW  Elec       q    Type
REMARK                         _______ _______ _______ _____ _____    ______ ____
ROOT
ATOM      1  N   UNL     1       2.925   7.011  18.543  0.00  0.00    +0.000 N 
ATOM      2  C   UNL     1       3.895   6.028  18.717  0.00  0.00    +0.000 C 
ATOM      3  O   UNL     1       4.109   5.494  19.807  0.00  0.00    +0.000 OA
ATOM      4  H   UNL     1       2.771   7.439  17.629  0.00  0.00    +0.000 HD
ENDROOT
BRANCH   1  15
ATOM      5  O   UNL     1       2.076   9.457  17.395  0.00  0.00    +0.000 OA
ATOM      6  C   UNL     1       1.541   9.581  18.476  0.00  0.00    +0.000 C 
ATOM      7  N   UNL     1       0.795  10.631  18.971  0.00  0.00    +0.000 N 
ATOM      8  C   UNL     1       0.358  10.359  20.266  0.00  0.00    +0.000 A 
ATOM      9  C   UNL     1      -0.396  11.171  21.088  0.00  0.00    +0.000 A 
ATOM     10  C   UNL     1      -0.717  10.680  22.361  0.00  0.00    +0.000 A 
ATOM     11  C   UNL     1      -0.285   9.403  22.779  0.00  0.00    +0.000 A 
ATOM     12  C   UNL     1       0.480   8.595  21.935  0.00  0.00    +0.000 A 
ATOM     13  C   UNL     1       0.789   9.103  20.689  0.00  0.00    +0.000 A 
ATOM     14  C   UNL     1       1.580   8.544  19.595  0.00  0.00    +0.000 C 
ATOM     15  N   UNL     1       2.189   7.404  19.632  0.00  0.00    +0.000 NA
ATOM     16  H   UNL     1       0.602  11.472  18.447  0.00  0.00    +0.000 HD
ENDBRANCH   1  15
BRANCH   2  17
ATOM     17  C   UNL     1       4.652   5.655  17.538  0.00  0.00    +0.000 A 
ATOM     18  C   UNL     1       5.894   6.113  17.134  0.00  0.00    +0.000 A 
ATOM     19  C   UNL     1       6.212   5.459  15.924  0.00  0.00    +0.000 A 
ATOM     20  C   UNL     1       7.302   5.482  15.035  0.00  0.00    +0.000 A 
ATOM     21  C   UNL     1       7.255   4.674  13.892  0.00  0.00    +0.000 A 
ATOM     22  C   UNL     1       6.148   3.862  13.636  0.00  0.00    +0.000 A 
ATOM     23  C   UNL     1       5.054   3.822  14.513  0.00  0.00    +0.000 A 
ATOM     24  C   UNL     1       5.129   4.633  15.646  0.00  0.00    +0.000 A 
ATOM     25  O   UNL     1       4.179   4.744  16.626  0.00  0.00    +0.000 OA
ENDBRANCH   2  17
TORSDOF 2
ENDMDL
MODEL 8
REMARK VINA RESULT:      -7.4      1.517      2.673
REMARK  Name = 
REMARK  2 active torsions:
REMARK  status: ('A' for Active; 'I' for Inactive)
REMARK    1  A    between atoms: N_11  and  N_12
REMARK    2  A    between atoms: C_13  and  C_15
REMARK                            x       y       z     vdW  Elec       q    Type
REMARK                         _______ _______ _______ _____ _____    ______ ____
ROOT
ATOM      1  N   UNL     1       1.379   8.937  19.493  0.00  0.00    +0.000 N 
ATOM      2  C   UNL     1       2.020   8.858  18.260  0.00  0.00    +0.000 C 
ATOM      3  O   UNL     1       2.035   9.794  17.458  0.00  0.00    +0.000 OA
ATOM      4  H   UNL     1       1.380   8.145  20.136  0.00  0.00    +0.000 HD
ENDROOT
BRANCH   1  15
ATOM      5  O   UNL     1       0.552   8.050  22.051  0.00  0.00    +0.000 OA
ATOM      6  C   UNL     1       0.033   9.145  22.075  0.00  0.00    +0.000 C 
ATOM      7  N   UNL     1      -0.752   9.724  23.051  0.00  0.00    +0.000 N 
ATOM      8  C   UNL     1      -1.140  11.009  22.676  0.00  0.00    +0.000 A 
ATOM      9  C   UNL     1      -1.936  11.887  23.381  0.00  0.00    +0.000 A 
ATOM     10  C   UNL     1      -2.192  13.136  22.798  0.00  0.00    +0.000 A 
ATOM     11  C   UNL     1      -1.651  13.476  21.540  0.00  0.00    +0.000 A 
ATOM     12  C   UNL     1      -0.849  12.573  20.837  0.00  0.00    +0.000 A 
ATOM     13  C   UNL     1      -0.617  11.348  21.429  0.00  0.00    +0.000 A 
ATOM     14  C   UNL     1       0.136  10.185  20.963  0.00  0.00    +0.000 C 
ATOM     15  N   UNL     1       0.731  10.102  19.818  0.00  0.00    +0.000 NA
ATOM     16  H   UNL     1      -0.998   9.260  23.914  0.00  0.00    +0.000 HD
ENDBRANCH   1  15
BRANCH   2  17
ATOM     17  C   UNL     1       2.683   7.604  17.960  0.00  0.00    +0.000 A 
ATOM     18  C   UNL     1       2.267   6.318  18.262  0.00  0.00    +0.000 A 
ATOM     19  C   UNL     1       3.247   5.430  17.768  0.00  0.00    +0.000 A 
ATOM     20  C   UNL     1       3.408   4.032  17.750  0.00  0.00    +0.000 A 
ATOM     21  C   UNL     1       4.557   3.495  17.157  0.00  0.00    +0.000 A 
ATOM     22  C   UNL     1       5.527   4.328  16.594  0.00  0.00    +0.000 A 
ATOM     23  C   UNL     1       5.382   5.723  16.598  0.00  0.00    +0.000 A 
ATOM     24  C   UNL     1       4.226   6.232  17.192  0.00  0.00    +0.000 A 
ATOM     25  O   UNL     1       3.887   7.554  17.300  0.00  0.00    +0.000 OA
ENDBRANCH   2  17
TORSDOF 2
ENDMDL
MODEL 9
REMARK VINA RESULT:      -7.4      1.384      2.053
REMARK  Name = 
REMARK  2 active torsions:
REMARK  status: ('A' for Active; 'I' for Inactive)
REMARK    1  A    between atoms: N_11  and  N_12
REMARK    2  A    between atoms: C_13  and  C_15
REMARK                            x       y       z     vdW  Elec       q    Type
REMARK                         _______ _______ _______ _____ _____    ______ ____
ROOT
ATOM      1  N   UNL     1       1.467   9.000  19.767  0.00  0.00    +0.000 N 
ATOM      2  C   UNL     1       1.817   7.673  20.004  0.00  0.00    +0.000 C 
ATOM      3  O   UNL     1       1.455   7.062  21.011  0.00  0.00    +0.000 OA
ATOM      4  H   UNL     1       1.783   9.482  18.925  0.00  0.00    +0.000 HD
ENDROOT
BRANCH   1  15
ATOM      5  O   UNL     1      -0.197  10.277  17.865  0.00  0.00    +0.000 OA
ATOM      6  C   UNL     1      -0.688  10.752  18.867  0.00  0.00    +0.000 C 
ATOM      7  N   UNL     1      -1.712  11.668  18.994  0.00  0.00    +0.000 N 
ATOM      8  C   UNL     1      -1.969  11.938  20.337  0.00  0.00    +0.000 A 
ATOM      9  C   UNL     1      -2.905  12.808  20.856  0.00  0.00    +0.000 A 
ATOM     10  C   UNL     1      -2.982  12.916  22.251  0.00  0.00    +0.000 A 
ATOM     11  C   UNL     1      -2.134  12.160  23.087  0.00  0.00    +0.000 A 
ATOM     12  C   UNL     1      -1.188  11.285  22.545  0.00  0.00    +0.000 A 
ATOM     13  C   UNL     1      -1.128  11.202  21.169  0.00  0.00    +0.000 A 
ATOM     14  C   UNL     1      -0.253  10.425  20.293  0.00  0.00    +0.000 C 
ATOM     15  N   UNL     1       0.698   9.650  20.700  0.00  0.00    +0.000 NA
ATOM     16  H   UNL     1      -2.197  12.072  18.206  0.00  0.00    +0.000 HD
ENDBRANCH   1  15
BRANCH   2  17
ATOM     17  C   UNL     1       2.636   7.034  18.993  0.00  0.00    +0.000 A 
ATOM     18  C   UNL     1       3.424   7.629  18.023  0.00  0.00    +0.000 A 
ATOM     19  C   UNL     1       4.027   6.595  17.275  0.00  0.00    +0.000 A 
ATOM     20  C   UNL     1       4.916   6.540  16.186  0.00  0.00    +0.000 A 
ATOM     21  C   UNL     1       5.297   5.286  15.691  0.00  0.00    +0.000 A 
ATOM     22  C   UNL     1       4.805   4.112  16.265  0.00  0.00    +0.000 A 
ATOM     23  C   UNL     1       3.921   4.147  17.354  0.00  0.00    +0.000 A 
ATOM     24  C   UNL     1       3.561   5.408  17.830  0.00  0.00    +0.000 A 
ATOM     25  O   UNL     1       2.720   5.668  18.878  0.00  0.00    +0.000 OA
ENDBRANCH   2  17
TORSDOF 2
ENDMDL
