MODEL 1
REMARK VINA RESULT:      -8.1      0.000      0.000
REMARK  Name = 
REMARK  4 active torsions:
REMARK  status: ('A' for Active; 'I' for Inactive)
REMARK    1  A    between atoms: C_1  and  O_2
REMARK    2  A    between atoms: O_2  and  C_3
REMARK    3  A    between atoms: C_6  and  C_7
REMARK    4  A    between atoms: N_9  and  C_10
REMARK                            x       y       z     vdW  Elec       q    Type
REMARK                         _______ _______ _______ _____ _____    ______ ____
ROOT
ATOM      1  C   UNL     1      -1.217  13.640  22.779  0.00  0.00    +0.000 C 
ATOM      2  C   UNL     1      -0.056  13.976  21.881  0.00  0.00    +0.000 C 
ATOM      3  N   UNL     1       0.366  12.654  21.442  0.00  0.00    +0.000 NA
ATOM      4  C   UNL     1       1.221  12.789  20.263  0.00  0.00    +0.000 C 
ATOM      5  C   UNL     1      -0.878  11.720  21.430  0.00  0.00    +0.000 C 
ATOM      6  C   UNL     1      -0.470  10.439  22.240  0.00  0.00    +0.000 C 
ATOM      7  O   UNL     1      -0.537  10.236  23.437  0.00  0.00    +0.000 OA
ATOM      8  C   UNL     1       0.191   9.483  21.286  0.00  0.00    +0.000 A 
ATOM      9  C   UNL     1       1.014   8.413  21.540  0.00  0.00    +0.000 A 
ATOM     10  C   UNL     1       1.798   7.916  20.475  0.00  0.00    +0.000 A 
ATOM     11  C   UNL     1       1.736   8.498  19.199  0.00  0.00    +0.000 A 
ATOM     12  C   UNL     1       0.812   9.506  18.943  0.00  0.00    +0.000 A 
ATOM     13  C   UNL     1       0.022   9.932  20.002  0.00  0.00    +0.000 A 
ATOM     14  C   UNL     1      -0.888  11.069  19.991  0.00  0.00    +0.000 C 
ATOM     15  O   UNL     1      -1.373  11.449  18.939  0.00  0.00    +0.000 OA
ATOM     16  C   UNL     1      -2.101  12.674  21.922  0.00  0.00    +0.000 C 
ATOM     17  C   UNL     1      -2.696  13.117  20.573  0.00  0.00    +0.000 C 
ATOM     18  S   UNL     1      -4.178  14.066  20.371  0.00  0.00    +0.000 S 
ATOM     19  C   UNL     1      -5.182  12.951  21.467  0.00  0.00    +0.000 A 
ATOM     20  C   UNL     1      -6.539  13.168  21.221  0.00  0.00    +0.000 A 
ATOM     21  C   UNL     1      -7.252  13.920  22.137  0.00  0.00    +0.000 A 
ATOM     22  C   UNL     1      -6.626  14.299  23.328  0.00  0.00    +0.000 A 
ATOM     23  C   UNL     1      -5.349  13.784  23.673  0.00  0.00    +0.000 A 
ATOM     24  C   UNL     1      -4.635  13.008  22.745  0.00  0.00    +0.000 A 
ATOM     25  C   UNL     1      -3.265  12.361  22.948  0.00  0.00    +0.000 C 
ATOM     26  O   UNL     1      -3.100  11.711  23.979  0.00  0.00    +0.000 OA
ENDROOT
BRANCH   1  30
ATOM     27  C   UNL     1      -2.943  16.988  24.884  0.00  0.00    +0.000 A 
ATOM     28  C   UNL     1      -2.426  15.906  25.603  0.00  0.00    +0.000 A 
ATOM     29  C   UNL     1      -1.790  14.840  24.955  0.00  0.00    +0.000 A 
ATOM     30  C   UNL     1      -1.674  14.840  23.569  0.00  0.00    +0.000 A 
ATOM     31  C   UNL     1      -2.180  15.948  22.854  0.00  0.00    +0.000 A 
ATOM     32  C   UNL     1      -2.815  17.008  23.501  0.00  0.00    +0.000 A 
BRANCH  27  34
ATOM     33  C   UNL     1      -4.996  18.002  25.477  0.00  0.00    +0.000 C 
ATOM     34  O   UNL     1      -3.582  17.938  25.632  0.00  0.00    +0.000 OA
ENDBRANCH  27  34
ENDBRANCH   1  30
TORSDOF 2
ENDMDL
MODEL 2
REMARK VINA RESULT:      -7.5      0.803      1.215
REMARK  Name = 
REMARK  4 active torsions:
REMARK  status: ('A' for Active; 'I' for Inactive)
REMARK    1  A    between atoms: C_1  and  O_2
REMARK    2  A    between atoms: O_2  and  C_3
REMARK    3  A    between atoms: C_6  and  C_7
REMARK    4  A    between atoms: N_9  and  C_10
REMARK                            x       y       z     vdW  Elec       q    Type
REMARK                         _______ _______ _______ _____ _____    ______ ____
ROOT
ATOM      1  C   UNL     1      -1.163  13.717  22.412  0.00  0.00    +0.000 C 
ATOM      2  C   UNL     1      -0.154  14.129  21.373  0.00  0.00    +0.000 C 
ATOM      3  N   UNL     1       0.300  12.837  20.878  0.00  0.00    +0.000 NA
ATOM      4  C   UNL     1       0.985  13.026  19.600  0.00  0.00    +0.000 C 
ATOM      5  C   UNL     1      -0.866  11.818  21.023  0.00  0.00    +0.000 C 
ATOM      6  C   UNL     1      -0.268  10.573  21.769  0.00  0.00    +0.000 C 
ATOM      7  O   UNL     1      -0.166  10.372  22.964  0.00  0.00    +0.000 OA
ATOM      8  C   UNL     1       0.331   9.660  20.734  0.00  0.00    +0.000 A 
ATOM      9  C   UNL     1       1.254   8.653  20.877  0.00  0.00    +0.000 A 
ATOM     10  C   UNL     1       1.927   8.207  19.718  0.00  0.00    +0.000 A 
ATOM     11  C   UNL     1       1.661   8.776  18.462  0.00  0.00    +0.000 A 
ATOM     12  C   UNL     1       0.643   9.715  18.331  0.00  0.00    +0.000 A 
ATOM     13  C   UNL     1      -0.033  10.090  19.485  0.00  0.00    +0.000 A 
ATOM     14  C   UNL     1      -1.015  11.159  19.595  0.00  0.00    +0.000 C 
ATOM     15  O   UNL     1      -1.657  11.499  18.616  0.00  0.00    +0.000 OA
ATOM     16  C   UNL     1      -2.079  12.686  21.672  0.00  0.00    +0.000 C 
ATOM     17  C   UNL     1      -2.873  13.078  20.412  0.00  0.00    +0.000 C 
ATOM     18  S   UNL     1      -4.432  13.919  20.405  0.00  0.00    +0.000 S 
ATOM     19  C   UNL     1      -5.205  12.742  21.618  0.00  0.00    +0.000 A 
ATOM     20  C   UNL     1      -6.595  12.861  21.549  0.00  0.00    +0.000 A 
ATOM     21  C   UNL     1      -7.236  13.566  22.552  0.00  0.00    +0.000 A 
ATOM     22  C   UNL     1      -6.490  13.995  23.654  0.00  0.00    +0.000 A 
ATOM     23  C   UNL     1      -5.146  13.573  23.830  0.00  0.00    +0.000 A 
ATOM     24  C   UNL     1      -4.505  12.845  22.815  0.00  0.00    +0.000 A 
ATOM     25  C   UNL     1      -3.078  12.297  22.838  0.00  0.00    +0.000 C 
ATOM     26  O   UNL     1      -2.736  11.666  23.836  0.00  0.00    +0.000 OA
ENDROOT
BRANCH   1  30
ATOM     27  C   UNL     1      -1.969  17.163  24.879  0.00  0.00    +0.000 A 
ATOM     28  C   UNL     1      -2.369  17.157  23.540  0.00  0.00    +0.000 A 
ATOM     29  C   UNL     1      -2.192  16.028  22.732  0.00  0.00    +0.000 A 
ATOM     30  C   UNL     1      -1.599  14.885  23.258  0.00  0.00    +0.000 A 
ATOM     31  C   UNL     1      -1.218  14.893  24.619  0.00  0.00    +0.000 A 
ATOM     32  C   UNL     1      -1.393  16.021  25.421  0.00  0.00    +0.000 A 
BRANCH  27  34
ATOM     33  C   UNL     1      -1.216  18.629  26.577  0.00  0.00    +0.000 C 
ATOM     34  O   UNL     1      -2.153  18.345  25.543  0.00  0.00    +0.000 OA
ENDBRANCH  27  34
ENDBRANCH   1  30
TORSDOF 2
ENDMDL
MODEL 3
REMARK VINA RESULT:      -7.4      1.212      1.379
REMARK  Name = 
REMARK  4 active torsions:
REMARK  status: ('A' for Active; 'I' for Inactive)
REMARK    1  A    between atoms: C_1  and  O_2
REMARK    2  A    between atoms: O_2  and  C_3
REMARK    3  A    between atoms: C_6  and  C_7
REMARK    4  A    between atoms: N_9  and  C_10
REMARK                            x       y       z     vdW  Elec       q    Type
REMARK                         _______ _______ _______ _____ _____    ______ ____
ROOT
ATOM      1  C   UNL     1      -2.057  14.309  21.717  0.00  0.00    +0.000 C 
ATOM      2  C   UNL     1      -1.305  14.679  20.466  0.00  0.00    +0.000 C 
ATOM      3  N   UNL     1      -0.712  13.402  20.092  0.00  0.00    +0.000 NA
ATOM      4  C   UNL     1      -0.274  13.465  18.699  0.00  0.00    +0.000 C 
ATOM      5  C   UNL     1      -1.646  12.262  20.591  0.00  0.00    +0.000 C 
ATOM      6  C   UNL     1      -0.733  11.269  21.393  0.00  0.00    +0.000 C 
ATOM      7  O   UNL     1      -0.417  11.296  22.566  0.00  0.00    +0.000 OA
ATOM      8  C   UNL     1      -0.148  10.289  20.413  0.00  0.00    +0.000 A 
ATOM      9  C   UNL     1       0.948   9.470  20.534  0.00  0.00    +0.000 A 
ATOM     10  C   UNL     1       1.505   8.934  19.352  0.00  0.00    +0.000 A 
ATOM     11  C   UNL     1       0.955   9.230  18.094  0.00  0.00    +0.000 A 
ATOM     12  C   UNL     1      -0.220   9.971  18.011  0.00  0.00    +0.000 A 
ATOM     13  C   UNL     1      -0.767  10.436  19.199  0.00  0.00    +0.000 A 
ATOM     14  C   UNL     1      -1.893  11.351  19.324  0.00  0.00    +0.000 C 
ATOM     15  O   UNL     1      -2.725  11.417  18.436  0.00  0.00    +0.000 OA
ATOM     16  C   UNL     1      -2.880  13.040  21.311  0.00  0.00    +0.000 C 
ATOM     17  C   UNL     1      -3.912  13.086  20.169  0.00  0.00    +0.000 C 
ATOM     18  S   UNL     1      -5.577  13.673  20.318  0.00  0.00    +0.000 S 
ATOM     19  C   UNL     1      -5.939  12.623  21.808  0.00  0.00    +0.000 A 
ATOM     20  C   UNL     1      -7.322  12.522  21.971  0.00  0.00    +0.000 A 
ATOM     21  C   UNL     1      -7.917  13.288  22.958  0.00  0.00    +0.000 A 
ATOM     22  C   UNL     1      -7.099  14.007  23.834  0.00  0.00    +0.000 A 
ATOM     23  C   UNL     1      -5.691  13.825  23.828  0.00  0.00    +0.000 A 
ATOM     24  C   UNL     1      -5.093  13.035  22.833  0.00  0.00    +0.000 A 
ATOM     25  C   UNL     1      -3.606  12.717  22.681  0.00  0.00    +0.000 C 
ATOM     26  O   UNL     1      -3.011  12.327  23.684  0.00  0.00    +0.000 OA
ENDROOT
BRANCH   1  30
ATOM     27  C   UNL     1      -3.903  17.621  23.774  0.00  0.00    +0.000 A 
ATOM     28  C   UNL     1      -3.026  16.777  24.461  0.00  0.00    +0.000 A 
ATOM     29  C   UNL     1      -2.351  15.740  23.806  0.00  0.00    +0.000 A 
ATOM     30  C   UNL     1      -2.556  15.528  22.447  0.00  0.00    +0.000 A 
ATOM     31  C   UNL     1      -3.427  16.401  21.757  0.00  0.00    +0.000 A 
ATOM     32  C   UNL     1      -4.100  17.432  22.412  0.00  0.00    +0.000 A 
BRANCH  27  34
ATOM     33  C   UNL     1      -5.270  18.064  25.654  0.00  0.00    +0.000 C 
ATOM     34  O   UNL     1      -4.534  18.562  24.541  0.00  0.00    +0.000 OA
ENDBRANCH  27  34
ENDBRANCH   1  30
TORSDOF 2
ENDMDL
MODEL 4
REMARK VINA RESULT:      -7.2      2.202      7.234
REMARK  Name = 
REMARK  4 active torsions:
REMARK  status: ('A' for Active; 'I' for Inactive)
REMARK    1  A    between atoms: C_1  and  O_2
REMARK    2  A    between atoms: O_2  and  C_3
REMARK    3  A    between atoms: C_6  and  C_7
REMARK    4  A    between atoms: N_9  and  C_10
REMARK                            x       y       z     vdW  Elec       q    Type
REMARK                         _______ _______ _______ _____ _____    ______ ____
ROOT
ATOM      1  C   UNL     1      -1.279  13.703  20.785  0.00  0.00    +0.000 C 
ATOM      2  C   UNL     1      -1.509  14.646  21.935  0.00  0.00    +0.000 C 
ATOM      3  N   UNL     1      -2.926  14.441  22.203  0.00  0.00    +0.000 NA
ATOM      4  C   UNL     1      -3.246  14.967  23.529  0.00  0.00    +0.000 C 
ATOM      5  C   UNL     1      -3.294  12.982  21.806  0.00  0.00    +0.000 C 
ATOM      6  C   UNL     1      -4.551  13.087  20.873  0.00  0.00    +0.000 C 
ATOM      7  O   UNL     1      -4.601  13.250  19.669  0.00  0.00    +0.000 OA
ATOM      8  C   UNL     1      -5.774  13.102  21.749  0.00  0.00    +0.000 A 
ATOM      9  C   UNL     1      -7.052  13.520  21.470  0.00  0.00    +0.000 A 
ATOM     10  C   UNL     1      -7.913  13.782  22.559  0.00  0.00    +0.000 A 
ATOM     11  C   UNL     1      -7.474  13.621  23.883  0.00  0.00    +0.000 A 
ATOM     12  C   UNL     1      -6.212  13.090  24.132  0.00  0.00    +0.000 A 
ATOM     13  C   UNL     1      -5.415  12.794  23.035  0.00  0.00    +0.000 A 
ATOM     14  C   UNL     1      -4.019  12.383  23.075  0.00  0.00    +0.000 C 
ATOM     15  O   UNL     1      -3.578  11.823  24.064  0.00  0.00    +0.000 OA
ATOM     16  C   UNL     1      -1.896  12.348  21.267  0.00  0.00    +0.000 C 
ATOM     17  C   UNL     1      -1.381  11.638  22.533  0.00  0.00    +0.000 C 
ATOM     18  S   UNL     1       0.049  10.598  22.613  0.00  0.00    +0.000 S 
ATOM     19  C   UNL     1      -0.477   9.564  21.161  0.00  0.00    +0.000 A 
ATOM     20  C   UNL     1       0.232   8.361  21.175  0.00  0.00    +0.000 A 
ATOM     21  C   UNL     1       1.284   8.216  20.289  0.00  0.00    +0.000 A 
ATOM     22  C   UNL     1       1.496   9.211  19.330  0.00  0.00    +0.000 A 
ATOM     23  C   UNL     1       0.555  10.259  19.151  0.00  0.00    +0.000 A 
ATOM     24  C   UNL     1      -0.520  10.392  20.044  0.00  0.00    +0.000 A 
ATOM     25  C   UNL     1      -1.631  11.441  19.996  0.00  0.00    +0.000 C 
ATOM     26  O   UNL     1      -2.196  11.611  18.917  0.00  0.00    +0.000 OA
ENDROOT
BRANCH   1  30
ATOM     27  C   UNL     1       2.650  13.874  19.009  0.00  0.00    +0.000 A 
ATOM     28  C   UNL     1       1.523  14.168  18.236  0.00  0.00    +0.000 A 
ATOM     29  C   UNL     1       0.242  14.197  18.798  0.00  0.00    +0.000 A 
ATOM     30  C   UNL     1       0.071  13.919  20.150  0.00  0.00    +0.000 A 
ATOM     31  C   UNL     1       1.218  13.645  20.928  0.00  0.00    +0.000 A 
ATOM     32  C   UNL     1       2.494  13.615  20.365  0.00  0.00    +0.000 A 
BRANCH  27  34
ATOM     33  C   UNL     1       4.341  15.085  17.882  0.00  0.00    +0.000 C 
ATOM     34  O   UNL     1       3.836  13.830  18.328  0.00  0.00    +0.000 OA
ENDBRANCH  27  34
ENDBRANCH   1  30
TORSDOF 2
ENDMDL
MODEL 5
REMARK VINA RESULT:      -6.9      2.447      7.072
REMARK  Name = 
REMARK  4 active torsions:
REMARK  status: ('A' for Active; 'I' for Inactive)
REMARK    1  A    between atoms: C_1  and  O_2
REMARK    2  A    between atoms: O_2  and  C_3
REMARK    3  A    between atoms: C_6  and  C_7
REMARK    4  A    between atoms: N_9  and  C_10
REMARK                            x       y       z     vdW  Elec       q    Type
REMARK                         _______ _______ _______ _____ _____    ______ ____
ROOT
ATOM      1  C   UNL     1      -1.406  14.158  20.743  0.00  0.00    +0.000 C 
ATOM      2  C   UNL     1      -1.607  14.948  22.009  0.00  0.00    +0.000 C 
ATOM      3  N   UNL     1      -2.994  14.641  22.328  0.00  0.00    +0.000 NA
ATOM      4  C   UNL     1      -3.255  14.992  23.723  0.00  0.00    +0.000 C 
ATOM      5  C   UNL     1      -3.321  13.222  21.781  0.00  0.00    +0.000 C 
ATOM      6  C   UNL     1      -4.637  13.371  20.938  0.00  0.00    +0.000 C 
ATOM      7  O   UNL     1      -4.767  13.670  19.767  0.00  0.00    +0.000 OA
ATOM      8  C   UNL     1      -5.803  13.221  21.876  0.00  0.00    +0.000 A 
ATOM      9  C   UNL     1      -7.113  13.603  21.720  0.00  0.00    +0.000 A 
ATOM     10  C   UNL     1      -7.917  13.693  22.878  0.00  0.00    +0.000 A 
ATOM     11  C   UNL     1      -7.391  13.401  24.147  0.00  0.00    +0.000 A 
ATOM     12  C   UNL     1      -6.094  12.909  24.261  0.00  0.00    +0.000 A 
ATOM     13  C   UNL     1      -5.353  12.784  23.094  0.00  0.00    +0.000 A 
ATOM     14  C   UNL     1      -3.941  12.442  23.007  0.00  0.00    +0.000 C 
ATOM     15  O   UNL     1      -3.416  11.795  23.897  0.00  0.00    +0.000 OA
ATOM     16  C   UNL     1      -1.932  12.726  21.094  0.00  0.00    +0.000 C 
ATOM     17  C   UNL     1      -1.311  11.901  22.236  0.00  0.00    +0.000 C 
ATOM     18  S   UNL     1       0.166  10.932  22.111  0.00  0.00    +0.000 S 
ATOM     19  C   UNL     1      -0.401  10.049  20.578  0.00  0.00    +0.000 A 
ATOM     20  C   UNL     1       0.359   8.890  20.409  0.00  0.00    +0.000 A 
ATOM     21  C   UNL     1       1.361   8.904  19.455  0.00  0.00    +0.000 A 
ATOM     22  C   UNL     1       1.469  10.013  18.611  0.00  0.00    +0.000 A 
ATOM     23  C   UNL     1       0.474  11.025  18.611  0.00  0.00    +0.000 A 
ATOM     24  C   UNL     1      -0.549  10.998  19.571  0.00  0.00    +0.000 A 
ATOM     25  C   UNL     1      -1.706  11.988  19.711  0.00  0.00    +0.000 C 
ATOM     26  O   UNL     1      -2.342  12.254  18.692  0.00  0.00    +0.000 OA
ENDROOT
BRANCH   1  30
ATOM     27  C   UNL     1       2.236  15.607  18.939  0.00  0.00    +0.000 A 
ATOM     28  C   UNL     1       2.299  14.720  20.018  0.00  0.00    +0.000 A 
ATOM     29  C   UNL     1       1.139  14.171  20.577  0.00  0.00    +0.000 A 
ATOM     30  C   UNL     1      -0.108  14.515  20.065  0.00  0.00    +0.000 A 
ATOM     31  C   UNL     1      -0.160  15.394  18.961  0.00  0.00    +0.000 A 
ATOM     32  C   UNL     1       0.998  15.942  18.406  0.00  0.00    +0.000 A 
BRANCH  27  34
ATOM     33  C   UNL     1       4.274  15.201  17.809  0.00  0.00    +0.000 C 
ATOM     34  O   UNL     1       3.438  16.108  18.520  0.00  0.00    +0.000 OA
ENDBRANCH  27  34
ENDBRANCH   1  30
TORSDOF 2
ENDMDL
MODEL 6
REMARK VINA RESULT:      -6.8      2.541      7.591
REMARK  Name = 
REMARK  4 active torsions:
REMARK  status: ('A' for Active; 'I' for Inactive)
REMARK    1  A    between atoms: C_1  and  O_2
REMARK    2  A    between atoms: O_2  and  C_3
REMARK    3  A    between atoms: C_6  and  C_7
REMARK    4  A    between atoms: N_9  and  C_10
REMARK                            x       y       z     vdW  Elec       q    Type
REMARK                         _______ _______ _______ _____ _____    ______ ____
ROOT
ATOM      1  C   UNL     1      -1.864  12.223  20.525  0.00  0.00    +0.000 C 
ATOM      2  C   UNL     1      -3.076  12.196  19.632  0.00  0.00    +0.000 C 
ATOM      3  N   UNL     1      -4.136  12.549  20.565  0.00  0.00    +0.000 NA
ATOM      4  C   UNL     1      -5.321  12.960  19.813  0.00  0.00    +0.000 C 
ATOM      5  C   UNL     1      -3.532  13.459  21.673  0.00  0.00    +0.000 C 
ATOM      6  C   UNL     1      -3.962  12.825  23.042  0.00  0.00    +0.000 C 
ATOM      7  O   UNL     1      -3.412  11.955  23.690  0.00  0.00    +0.000 OA
ATOM      8  C   UNL     1      -5.314  13.377  23.401  0.00  0.00    +0.000 A 
ATOM      9  C   UNL     1      -6.256  12.900  24.280  0.00  0.00    +0.000 A 
ATOM     10  C   UNL     1      -7.578  13.382  24.156  0.00  0.00    +0.000 A 
ATOM     11  C   UNL     1      -7.917  14.317  23.165  0.00  0.00    +0.000 A 
ATOM     12  C   UNL     1      -6.921  14.865  22.363  0.00  0.00    +0.000 A 
ATOM     13  C   UNL     1      -5.624  14.406  22.549  0.00  0.00    +0.000 A 
ATOM     14  C   UNL     1      -4.472  14.727  21.720  0.00  0.00    +0.000 C 
ATOM     15  O   UNL     1      -4.450  15.769  21.088  0.00  0.00    +0.000 OA
ATOM     16  C   UNL     1      -1.963  13.599  21.265  0.00  0.00    +0.000 C 
ATOM     17  C   UNL     1      -1.973  14.929  20.488  0.00  0.00    +0.000 C 
ATOM     18  S   UNL     1      -0.538  15.769  19.881  0.00  0.00    +0.000 S 
ATOM     19  C   UNL     1       0.342  15.697  21.516  0.00  0.00    +0.000 A 
ATOM     20  C   UNL     1       1.373  16.639  21.524  0.00  0.00    +0.000 A 
ATOM     21  C   UNL     1       2.668  16.186  21.347  0.00  0.00    +0.000 A 
ATOM     22  C   UNL     1       2.899  14.808  21.317  0.00  0.00    +0.000 A 
ATOM     23  C   UNL     1       1.862  13.891  21.633  0.00  0.00    +0.000 A 
ATOM     24  C   UNL     1       0.552  14.357  21.826  0.00  0.00    +0.000 A 
ATOM     25  C   UNL     1      -0.677  13.523  22.187  0.00  0.00    +0.000 C 
ATOM     26  O   UNL     1      -0.564  12.735  23.124  0.00  0.00    +0.000 OA
ENDROOT
BRANCH   1  30
ATOM     27  C   UNL     1       1.311  10.242  18.379  0.00  0.00    +0.000 A 
ATOM     28  C   UNL     1       0.967  11.558  18.054  0.00  0.00    +0.000 A 
ATOM     29  C   UNL     1      -0.005  12.256  18.781  0.00  0.00    +0.000 A 
ATOM     30  C   UNL     1      -0.656  11.636  19.842  0.00  0.00    +0.000 A 
ATOM     31  C   UNL     1      -0.286  10.314  20.175  0.00  0.00    +0.000 A 
ATOM     32  C   UNL     1       0.681   9.620  19.449  0.00  0.00    +0.000 A 
BRANCH  27  34
ATOM     33  C   UNL     1       2.583   8.313  17.872  0.00  0.00    +0.000 C 
ATOM     34  O   UNL     1       2.239   9.659  17.560  0.00  0.00    +0.000 OA
ENDBRANCH  27  34
ENDBRANCH   1  30
TORSDOF 2
ENDMDL
MODEL 7
REMARK VINA RESULT:      -6.7      7.418     10.054
REMARK  Name = 
REMARK  4 active torsions:
REMARK  status: ('A' for Active; 'I' for Inactive)
REMARK    1  A    between atoms: C_1  and  O_2
REMARK    2  A    between atoms: O_2  and  C_3
REMARK    3  A    between atoms: C_6  and  C_7
REMARK    4  A    between atoms: N_9  and  C_10
REMARK                            x       y       z     vdW  Elec       q    Type
REMARK                         _______ _______ _______ _____ _____    ______ ____
ROOT
ATOM      1  C   UNL     1       5.281  15.779  18.500  0.00  0.00    +0.000 C 
ATOM      2  C   UNL     1       5.804  14.534  17.835  0.00  0.00    +0.000 C 
ATOM      3  N   UNL     1       7.238  14.785  17.829  0.00  0.00    +0.000 NA
ATOM      4  C   UNL     1       7.945  13.528  17.585  0.00  0.00    +0.000 C 
ATOM      5  C   UNL     1       7.585  15.678  19.053  0.00  0.00    +0.000 C 
ATOM      6  C   UNL     1       8.426  16.880  18.494  0.00  0.00    +0.000 C 
ATOM      7  O   UNL     1       8.039  17.940  18.041  0.00  0.00    +0.000 OA
ATOM      8  C   UNL     1       9.868  16.456  18.461  0.00  0.00    +0.000 A 
ATOM      9  C   UNL     1      10.924  16.980  17.755  0.00  0.00    +0.000 A 
ATOM     10  C   UNL     1      12.079  16.180  17.605  0.00  0.00    +0.000 A 
ATOM     11  C   UNL     1      12.143  14.891  18.158  0.00  0.00    +0.000 A 
ATOM     12  C   UNL     1      11.103  14.431  18.961  0.00  0.00    +0.000 A 
ATOM     13  C   UNL     1      10.008  15.268  19.129  0.00  0.00    +0.000 A 
ATOM     14  C   UNL     1       8.759  14.923  19.793  0.00  0.00    +0.000 C 
ATOM     15  O   UNL     1       8.744  14.052  20.645  0.00  0.00    +0.000 OA
ATOM     16  C   UNL     1       6.156  15.922  19.791  0.00  0.00    +0.000 C 
ATOM     17  C   UNL     1       6.182  14.820  20.867  0.00  0.00    +0.000 C 
ATOM     18  S   UNL     1       4.976  14.610  22.146  0.00  0.00    +0.000 S 
ATOM     19  C   UNL     1       5.064  16.387  22.684  0.00  0.00    +0.000 A 
ATOM     20  C   UNL     1       4.524  16.504  23.966  0.00  0.00    +0.000 A 
ATOM     21  C   UNL     1       3.249  17.027  24.089  0.00  0.00    +0.000 A 
ATOM     22  C   UNL     1       2.624  17.545  22.951  0.00  0.00    +0.000 A 
ATOM     23  C   UNL     1       3.338  17.694  21.734  0.00  0.00    +0.000 A 
ATOM     24  C   UNL     1       4.638  17.175  21.619  0.00  0.00    +0.000 A 
ATOM     25  C   UNL     1       5.556  17.255  20.400  0.00  0.00    +0.000 C 
ATOM     26  O   UNL     1       5.693  18.358  19.874  0.00  0.00    +0.000 OA
ENDROOT
BRANCH   1  30
ATOM     27  C   UNL     1       0.985  16.143  18.648  0.00  0.00    +0.000 A 
ATOM     28  C   UNL     1       1.740  17.095  17.958  0.00  0.00    +0.000 A 
ATOM     29  C   UNL     1       3.128  16.966  17.825  0.00  0.00    +0.000 A 
ATOM     30  C   UNL     1       3.782  15.879  18.396  0.00  0.00    +0.000 A 
ATOM     31  C   UNL     1       3.007  14.911  19.072  0.00  0.00    +0.000 A 
ATOM     32  C   UNL     1       1.624  15.042  19.205  0.00  0.00    +0.000 A 
BRANCH  27  34
ATOM     33  C   UNL     1      -0.825  17.502  17.960  0.00  0.00    +0.000 C 
ATOM     34  O   UNL     1      -0.353  16.413  18.747  0.00  0.00    +0.000 OA
ENDBRANCH  27  34
ENDBRANCH   1  30
TORSDOF 2
ENDMDL
MODEL 8
REMARK VINA RESULT:      -6.5      8.858     12.394
REMARK  Name = 
REMARK  4 active torsions:
REMARK  status: ('A' for Active; 'I' for Inactive)
REMARK    1  A    between atoms: C_1  and  O_2
REMARK    2  A    between atoms: O_2  and  C_3
REMARK    3  A    between atoms: C_6  and  C_7
REMARK    4  A    between atoms: N_9  and  C_10
REMARK                            x       y       z     vdW  Elec       q    Type
REMARK                         _______ _______ _______ _____ _____    ______ ____
ROOT
ATOM      1  C   UNL     1       8.716  12.851  22.301  0.00  0.00    +0.000 C 
ATOM      2  C   UNL     1       7.817  11.726  22.739  0.00  0.00    +0.000 C 
ATOM      3  N   UNL     1       7.387  12.188  24.051  0.00  0.00    +0.000 NA
ATOM      4  C   UNL     1       6.208  11.428  24.465  0.00  0.00    +0.000 C 
ATOM      5  C   UNL     1       7.380  13.743  24.046  0.00  0.00    +0.000 C 
ATOM      6  C   UNL     1       8.199  14.189  25.308  0.00  0.00    +0.000 C 
ATOM      7  O   UNL     1       9.397  14.361  25.423  0.00  0.00    +0.000 OA
ATOM      8  C   UNL     1       7.251  14.241  26.476  0.00  0.00    +0.000 A 
ATOM      9  C   UNL     1       7.514  14.228  27.824  0.00  0.00    +0.000 A 
ATOM     10  C   UNL     1       6.453  13.906  28.699  0.00  0.00    +0.000 A 
ATOM     11  C   UNL     1       5.173  13.607  28.205  0.00  0.00    +0.000 A 
ATOM     12  C   UNL     1       4.909  13.738  26.845  0.00  0.00    +0.000 A 
ATOM     13  C   UNL     1       5.965  14.108  26.023  0.00  0.00    +0.000 A 
ATOM     14  C   UNL     1       5.945  14.148  24.568  0.00  0.00    +0.000 C 
ATOM     15  O   UNL     1       4.890  14.309  23.978  0.00  0.00    +0.000 OA
ATOM     16  C   UNL     1       7.864  14.142  22.544  0.00  0.00    +0.000 C 
ATOM     17  C   UNL     1       6.511  14.353  21.840  0.00  0.00    +0.000 C 
ATOM     18  S   UNL     1       6.301  14.964  20.191  0.00  0.00    +0.000 S 
ATOM     19  C   UNL     1       7.403  16.434  20.468  0.00  0.00    +0.000 A 
ATOM     20  C   UNL     1       7.154  17.386  19.478  0.00  0.00    +0.000 A 
ATOM     21  C   UNL     1       8.065  17.499  18.442  0.00  0.00    +0.000 A 
ATOM     22  C   UNL     1       9.254  16.767  18.510  0.00  0.00    +0.000 A 
ATOM     23  C   UNL     1       9.603  16.059  19.690  0.00  0.00    +0.000 A 
ATOM     24  C   UNL     1       8.682  15.960  20.744  0.00  0.00    +0.000 A 
ATOM     25  C   UNL     1       8.890  15.257  22.085  0.00  0.00    +0.000 C 
ATOM     26  O   UNL     1       9.926  15.514  22.697  0.00  0.00    +0.000 OA
ENDROOT
BRANCH   1  30
ATOM     27  C   UNL     1      10.847  12.231  18.602  0.00  0.00    +0.000 A 
ATOM     28  C   UNL     1      11.552  12.304  19.807  0.00  0.00    +0.000 A 
ATOM     29  C   UNL     1      10.887  12.427  21.032  0.00  0.00    +0.000 A 
ATOM     30  C   UNL     1       9.498  12.491  21.065  0.00  0.00    +0.000 A 
ATOM     31  C   UNL     1       8.794  12.394  19.843  0.00  0.00    +0.000 A 
ATOM     32  C   UNL     1       9.459  12.273  18.623  0.00  0.00    +0.000 A 
BRANCH  27  34
ATOM     33  C   UNL     1      11.794  13.384  16.766  0.00  0.00    +0.000 C 
ATOM     34  O   UNL     1      11.618  12.161  17.473  0.00  0.00    +0.000 OA
ENDBRANCH  27  34
ENDBRANCH   1  30
TORSDOF 2
ENDMDL
MODEL 9
REMARK VINA RESULT:      -6.4      2.501      7.212
REMARK  Name = 
REMARK  4 active torsions:
REMARK  status: ('A' for Active; 'I' for Inactive)
REMARK    1  A    between atoms: C_1  and  O_2
REMARK    2  A    between atoms: O_2  and  C_3
REMARK    3  A    between atoms: C_6  and  C_7
REMARK    4  A    between atoms: N_9  and  C_10
REMARK                            x       y       z     vdW  Elec       q    Type
REMARK                         _______ _______ _______ _____ _____    ______ ____
ROOT
ATOM      1  C   UNL     1      -0.148  13.879  20.865  0.00  0.00    +0.000 C 
ATOM      2  C   UNL     1      -0.228  14.464  22.250  0.00  0.00    +0.000 C 
ATOM      3  N   UNL     1      -1.637  14.279  22.565  0.00  0.00    +0.000 NA
ATOM      4  C   UNL     1      -1.829  14.420  24.008  0.00  0.00    +0.000 C 
ATOM      5  C   UNL     1      -2.149  13.022  21.805  0.00  0.00    +0.000 C 
ATOM      6  C   UNL     1      -3.449  13.469  21.047  0.00  0.00    +0.000 C 
ATOM      7  O   UNL     1      -3.559  13.974  19.947  0.00  0.00    +0.000 OA
ATOM      8  C   UNL     1      -4.610  13.307  21.990  0.00  0.00    +0.000 A 
ATOM      9  C   UNL     1      -5.863  13.867  21.948  0.00  0.00    +0.000 A 
ATOM     10  C   UNL     1      -6.630  13.857  23.134  0.00  0.00    +0.000 A 
ATOM     11  C   UNL     1      -6.125  13.295  24.317  0.00  0.00    +0.000 A 
ATOM     12  C   UNL     1      -4.899  12.637  24.301  0.00  0.00    +0.000 A 
ATOM     13  C   UNL     1      -4.198  12.621  23.102  0.00  0.00    +0.000 A 
ATOM     14  C   UNL     1      -2.842  12.129  22.908  0.00  0.00    +0.000 C 
ATOM     15  O   UNL     1      -2.389  11.282  23.659  0.00  0.00    +0.000 OA
ATOM     16  C   UNL     1      -0.845  12.484  20.994  0.00  0.00    +0.000 C 
ATOM     17  C   UNL     1      -0.314  11.409  21.961  0.00  0.00    +0.000 C 
ATOM     18  S   UNL     1       1.027  10.303  21.625  0.00  0.00    +0.000 S 
ATOM     19  C   UNL     1       0.328   9.765  19.989  0.00  0.00    +0.000 A 
ATOM     20  C   UNL     1       0.933   8.567  19.604  0.00  0.00    +0.000 A 
ATOM     21  C   UNL     1       1.913   8.619  18.629  0.00  0.00    +0.000 A 
ATOM     22  C   UNL     1       2.147   9.832  17.975  0.00  0.00    +0.000 A 
ATOM     23  C   UNL     1       1.287  10.943  18.178  0.00  0.00    +0.000 A 
ATOM     24  C   UNL     1       0.284  10.881  19.159  0.00  0.00    +0.000 A 
ATOM     25  C   UNL     1      -0.736  11.966  19.502  0.00  0.00    +0.000 C 
ATOM     26  O   UNL     1      -1.350  12.474  18.565  0.00  0.00    +0.000 OA
ENDROOT
BRANCH   1  30
ATOM     27  C   UNL     1       3.570  15.185  19.108  0.00  0.00    +0.000 A 
ATOM     28  C   UNL     1       3.585  14.323  20.208  0.00  0.00    +0.000 A 
ATOM     29  C   UNL     1       2.399  13.819  20.754  0.00  0.00    +0.000 A 
ATOM     30  C   UNL     1       1.173  14.184  20.207  0.00  0.00    +0.000 A 
ATOM     31  C   UNL     1       1.170  15.038  19.082  0.00  0.00    +0.000 A 
ATOM     32  C   UNL     1       2.353  15.540  18.540  0.00  0.00    +0.000 A 
BRANCH  27  34
ATOM     33  C   UNL     1       5.522  14.782  17.834  0.00  0.00    +0.000 C 
ATOM     34  O   UNL     1       4.794  15.643  18.703  0.00  0.00    +0.000 OA
ENDBRANCH  27  34
ENDBRANCH   1  30
TORSDOF 2
ENDMDL
