MODEL 1
REMARK VINA RESULT:      -9.2      0.000      0.000
REMARK  Name = 
REMARK  7 active torsions:
REMARK  status: ('A' for Active; 'I' for Inactive)
REMARK    1  A    between atoms: C_1  and  O_2
REMARK    2  A    between atoms: O_2  and  C_3
REMARK    3  A    between atoms: C_3  and  C_5
REMARK    4  A    between atoms: C_6  and  C_7
REMARK    5  A    between atoms: C_10  and  C_11
REMARK    6  A    between atoms: C_14  and  O_15
REMARK    7  A    between atoms: C_16  and  C_17
REMARK                            x       y       z     vdW  Elec       q    Type
REMARK                         _______ _______ _______ _____ _____    ______ ____
ROOT
ATOM      1  C   UNL     1       1.402   8.646  19.785  0.00  0.00    +0.000 A 
ATOM      2  C   UNL     1       2.083   9.222  18.705  0.00  0.00    +0.000 A 
ATOM      3  C   UNL     1       2.836   8.440  17.834  0.00  0.00    +0.000 A 
ATOM      4  C   UNL     1       2.928   7.061  18.034  0.00  0.00    +0.000 A 
ATOM      5  C   UNL     1       2.270   6.421  19.099  0.00  0.00    +0.000 A 
ATOM      6  C   UNL     1       1.521   7.256  19.958  0.00  0.00    +0.000 A 
ENDROOT
BRANCH   5   7
ATOM      7  C   UNL     1       2.318   4.896  19.335  0.00  0.00    +0.000 C 
ATOM      8  C   UNL     1       1.849   4.117  18.071  0.00  0.00    +0.000 C 
ATOM      9  C   UNL     1       1.870   2.596  18.315  0.00  0.00    +0.000 C 
ATOM     10  C   UNL     1       3.300   2.148  18.643  0.00  0.00    +0.000 C 
ATOM     11  C   UNL     1       3.784   2.857  19.914  0.00  0.00    +0.000 C 
ATOM     12  C   UNL     1       2.859   2.527  21.092  0.00  0.00    +0.000 C 
ATOM     13  C   UNL     1       1.428   2.977  20.769  0.00  0.00    +0.000 C 
ATOM     14  C   UNL     1       0.949   2.257  19.498  0.00  0.00    +0.000 C 
ATOM     15  C   UNL     1       1.406   4.498  20.532  0.00  0.00    +0.000 C 
ATOM     16  C   UNL     1       3.757   4.371  19.676  0.00  0.00    +0.000 C 
ENDBRANCH   5   7
BRANCH   1  20
ATOM     17  C   UNL     1      -1.042  11.011  22.443  0.00  0.00    +0.000 A 
ATOM     18  C   UNL     1      -0.415   9.850  22.894  0.00  0.00    +0.000 A 
ATOM     19  C   UNL     1       0.394   9.104  22.032  0.00  0.00    +0.000 A 
ATOM     20  C   UNL     1       0.573   9.471  20.690  0.00  0.00    +0.000 A 
ATOM     21  C   UNL     1      -0.066  10.642  20.250  0.00  0.00    +0.000 A 
ATOM     22  C   UNL     1      -0.863  11.401  21.113  0.00  0.00    +0.000 A 
BRANCH  17  24
ATOM     23  C   UNL     1      -3.107  12.218  23.068  0.00  0.00    +0.000 C 
ATOM     24  C   UNL     1      -1.889  11.752  23.381  0.00  0.00    +0.000 C 
BRANCH  23  25
ATOM     25  C   UNL     1      -3.863  13.000  24.061  0.00  0.00    +0.000 C 
ATOM     26  O   UNL     1      -3.609  14.146  24.404  0.00  0.00    +0.000 OA
BRANCH  25  28
ATOM     27  C   UNL     1      -6.173  12.737  24.163  0.00  0.00    +0.000 C 
ATOM     28  O   UNL     1      -4.884  12.230  24.506  0.00  0.00    +0.000 OA
ENDBRANCH  25  28
ENDBRANCH  23  25
ENDBRANCH  17  24
ENDBRANCH   1  20
BRANCH   4  29
ATOM     29  O   UNL     1       3.680   6.339  17.150  0.00  0.00    +0.000 OA
ATOM     30  H   UNL     1       3.124   5.651  16.752  0.00  0.00    +0.000 HD
ENDBRANCH   4  29
TORSDOF 6
ENDMDL
MODEL 2
REMARK VINA RESULT:      -9.1      0.073      1.395
REMARK  Name = 
REMARK  7 active torsions:
REMARK  status: ('A' for Active; 'I' for Inactive)
REMARK    1  A    between atoms: C_1  and  O_2
REMARK    2  A    between atoms: O_2  and  C_3
REMARK    3  A    between atoms: C_3  and  C_5
REMARK    4  A    between atoms: C_6  and  C_7
REMARK    5  A    between atoms: C_10  and  C_11
REMARK    6  A    between atoms: C_14  and  O_15
REMARK    7  A    between atoms: C_16  and  C_17
REMARK                            x       y       z     vdW  Elec       q    Type
REMARK                         _______ _______ _______ _____ _____    ______ ____
ROOT
ATOM      1  C   UNL     1       1.414   8.654  19.825  0.00  0.00    +0.000 A 
ATOM      2  C   UNL     1       2.098   9.224  18.744  0.00  0.00    +0.000 A 
ATOM      3  C   UNL     1       2.837   8.435  17.868  0.00  0.00    +0.000 A 
ATOM      4  C   UNL     1       2.914   7.054  18.064  0.00  0.00    +0.000 A 
ATOM      5  C   UNL     1       2.253   6.421  19.131  0.00  0.00    +0.000 A 
ATOM      6  C   UNL     1       1.518   7.262  19.996  0.00  0.00    +0.000 A 
ENDROOT
BRANCH   5   7
ATOM      7  C   UNL     1       2.284   4.894  19.364  0.00  0.00    +0.000 C 
ATOM      8  C   UNL     1       1.336   4.485  20.530  0.00  0.00    +0.000 C 
ATOM      9  C   UNL     1       1.387   2.965  20.781  0.00  0.00    +0.000 C 
ATOM     10  C   UNL     1       0.933   2.222  19.518  0.00  0.00    +0.000 C 
ATOM     11  C   UNL     1       1.873   2.559  18.354  0.00  0.00    +0.000 C 
ATOM     12  C   UNL     1       3.312   2.157  18.698  0.00  0.00    +0.000 C 
ATOM     13  C   UNL     1       3.770   2.903  19.959  0.00  0.00    +0.000 C 
ATOM     14  C   UNL     1       2.828   2.553  21.122  0.00  0.00    +0.000 C 
ATOM     15  C   UNL     1       3.727   4.421  19.706  0.00  0.00    +0.000 C 
ATOM     16  C   UNL     1       1.830   4.071  18.107  0.00  0.00    +0.000 C 
ENDBRANCH   5   7
BRANCH   1  20
ATOM     17  C   UNL     1      -0.992  11.043  22.496  0.00  0.00    +0.000 A 
ATOM     18  C   UNL     1      -0.431   9.840  22.924  0.00  0.00    +0.000 A 
ATOM     19  C   UNL     1       0.367   9.086  22.060  0.00  0.00    +0.000 A 
ATOM     20  C   UNL     1       0.599   9.487  20.735  0.00  0.00    +0.000 A 
ATOM     21  C   UNL     1       0.026  10.699  20.318  0.00  0.00    +0.000 A 
ATOM     22  C   UNL     1      -0.759  11.467  21.185  0.00  0.00    +0.000 A 
BRANCH  17  24
ATOM     23  C   UNL     1      -3.094  12.156  23.172  0.00  0.00    +0.000 C 
ATOM     24  C   UNL     1      -1.830  11.792  23.435  0.00  0.00    +0.000 C 
BRANCH  23  25
ATOM     25  C   UNL     1      -3.841  12.955  24.159  0.00  0.00    +0.000 C 
ATOM     26  O   UNL     1      -3.548  14.086  24.522  0.00  0.00    +0.000 OA
BRANCH  25  28
ATOM     27  C   UNL     1      -6.156  12.729  24.121  0.00  0.00    +0.000 C 
ATOM     28  O   UNL     1      -4.901  12.221  24.571  0.00  0.00    +0.000 OA
ENDBRANCH  25  28
ENDBRANCH  23  25
ENDBRANCH  17  24
ENDBRANCH   1  20
BRANCH   4  29
ATOM     29  O   UNL     1       3.654   6.325  17.176  0.00  0.00    +0.000 OA
ATOM     30  H   UNL     1       3.396   6.573  16.275  0.00  0.00    +0.000 HD
ENDBRANCH   4  29
TORSDOF 6
ENDMDL
MODEL 3
REMARK VINA RESULT:      -9.0      0.144      1.674
REMARK  Name = 
REMARK  7 active torsions:
REMARK  status: ('A' for Active; 'I' for Inactive)
REMARK    1  A    between atoms: C_1  and  O_2
REMARK    2  A    between atoms: O_2  and  C_3
REMARK    3  A    between atoms: C_3  and  C_5
REMARK    4  A    between atoms: C_6  and  C_7
REMARK    5  A    between atoms: C_10  and  C_11
REMARK    6  A    between atoms: C_14  and  O_15
REMARK    7  A    between atoms: C_16  and  C_17
REMARK                            x       y       z     vdW  Elec       q    Type
REMARK                         _______ _______ _______ _____ _____    ______ ____
ROOT
ATOM      1  C   UNL     1       1.377   8.633  19.839  0.00  0.00    +0.000 A 
ATOM      2  C   UNL     1       2.045   9.208  18.751  0.00  0.00    +0.000 A 
ATOM      3  C   UNL     1       2.787   8.425  17.871  0.00  0.00    +0.000 A 
ATOM      4  C   UNL     1       2.880   7.046  18.069  0.00  0.00    +0.000 A 
ATOM      5  C   UNL     1       2.235   6.408  19.142  0.00  0.00    +0.000 A 
ATOM      6  C   UNL     1       1.497   7.243  20.011  0.00  0.00    +0.000 A 
ENDROOT
BRANCH   5   7
ATOM      7  C   UNL     1       2.285   4.882  19.378  0.00  0.00    +0.000 C 
ATOM      8  C   UNL     1       3.722   4.418  19.754  0.00  0.00    +0.000 C 
ATOM      9  C   UNL     1       3.778   2.892  19.964  0.00  0.00    +0.000 C 
ATOM     10  C   UNL     1       2.838   2.497  21.109  0.00  0.00    +0.000 C 
ATOM     11  C   UNL     1       1.399   2.892  20.756  0.00  0.00    +0.000 C 
ATOM     12  C   UNL     1       0.957   2.194  19.464  0.00  0.00    +0.000 C 
ATOM     13  C   UNL     1       1.893   2.592  18.315  0.00  0.00    +0.000 C 
ATOM     14  C   UNL     1       3.331   2.185  18.674  0.00  0.00    +0.000 C 
ATOM     15  C   UNL     1       1.832   4.115  18.101  0.00  0.00    +0.000 C 
ATOM     16  C   UNL     1       1.342   4.409  20.541  0.00  0.00    +0.000 C 
ENDBRANCH   5   7
BRANCH   1  20
ATOM     17  C   UNL     1      -0.985  11.086  22.491  0.00  0.00    +0.000 A 
ATOM     18  C   UNL     1      -0.861  11.410  21.141  0.00  0.00    +0.000 A 
ATOM     19  C   UNL     1      -0.115  10.597  20.284  0.00  0.00    +0.000 A 
ATOM     20  C   UNL     1       0.560   9.458  20.753  0.00  0.00    +0.000 A 
ATOM     21  C   UNL     1       0.427   9.146  22.116  0.00  0.00    +0.000 A 
ATOM     22  C   UNL     1      -0.334   9.947  22.974  0.00  0.00    +0.000 A 
BRANCH  17  24
ATOM     23  C   UNL     1      -3.109  11.949  23.419  0.00  0.00    +0.000 C 
ATOM     24  C   UNL     1      -1.770  11.976  23.351  0.00  0.00    +0.000 C 
BRANCH  23  25
ATOM     25  C   UNL     1      -3.813  12.920  24.274  0.00  0.00    +0.000 C 
ATOM     26  O   UNL     1      -3.418  14.047  24.540  0.00  0.00    +0.000 OA
BRANCH  25  28
ATOM     27  C   UNL     1      -6.121  12.820  24.003  0.00  0.00    +0.000 C 
ATOM     28  O   UNL     1      -4.966  12.346  24.692  0.00  0.00    +0.000 OA
ENDBRANCH  25  28
ENDBRANCH  23  25
ENDBRANCH  17  24
ENDBRANCH   1  20
BRANCH   4  29
ATOM     29  O   UNL     1       3.621   6.324  17.177  0.00  0.00    +0.000 OA
ATOM     30  H   UNL     1       4.064   6.935  16.568  0.00  0.00    +0.000 HD
ENDBRANCH   4  29
TORSDOF 6
ENDMDL
MODEL 4
REMARK VINA RESULT:      -8.9      0.494      1.700
REMARK  Name = 
REMARK  7 active torsions:
REMARK  status: ('A' for Active; 'I' for Inactive)
REMARK    1  A    between atoms: C_1  and  O_2
REMARK    2  A    between atoms: O_2  and  C_3
REMARK    3  A    between atoms: C_3  and  C_5
REMARK    4  A    between atoms: C_6  and  C_7
REMARK    5  A    between atoms: C_10  and  C_11
REMARK    6  A    between atoms: C_14  and  O_15
REMARK    7  A    between atoms: C_16  and  C_17
REMARK                            x       y       z     vdW  Elec       q    Type
REMARK                         _______ _______ _______ _____ _____    ______ ____
ROOT
ATOM      1  C   UNL     1       1.484   8.585  19.772  0.00  0.00    +0.000 A 
ATOM      2  C   UNL     1       2.158   9.143  18.679  0.00  0.00    +0.000 A 
ATOM      3  C   UNL     1       2.892   8.344  17.807  0.00  0.00    +0.000 A 
ATOM      4  C   UNL     1       2.971   6.966  18.018  0.00  0.00    +0.000 A 
ATOM      5  C   UNL     1       2.320   6.344  19.097  0.00  0.00    +0.000 A 
ATOM      6  C   UNL     1       1.590   7.195  19.958  0.00  0.00    +0.000 A 
ENDROOT
BRANCH   5   7
ATOM      7  C   UNL     1       2.353   4.820  19.348  0.00  0.00    +0.000 C 
ATOM      8  C   UNL     1       3.791   4.341  19.706  0.00  0.00    +0.000 C 
ATOM      9  C   UNL     1       3.830   2.817  19.929  0.00  0.00    +0.000 C 
ATOM     10  C   UNL     1       2.903   2.445  21.093  0.00  0.00    +0.000 C 
ATOM     11  C   UNL     1       1.464   2.855  20.759  0.00  0.00    +0.000 C 
ATOM     12  C   UNL     1       0.993   2.151  19.481  0.00  0.00    +0.000 C 
ATOM     13  C   UNL     1       1.916   2.525  18.313  0.00  0.00    +0.000 C 
ATOM     14  C   UNL     1       3.355   2.103  18.654  0.00  0.00    +0.000 C 
ATOM     15  C   UNL     1       1.871   4.047  18.086  0.00  0.00    +0.000 C 
ATOM     16  C   UNL     1       1.423   4.371  20.529  0.00  0.00    +0.000 C 
ENDBRANCH   5   7
BRANCH   1  20
ATOM     17  C   UNL     1      -0.900  11.001  22.439  0.00  0.00    +0.000 A 
ATOM     18  C   UNL     1      -0.245   9.861  22.903  0.00  0.00    +0.000 A 
ATOM     19  C   UNL     1       0.545   9.099  22.038  0.00  0.00    +0.000 A 
ATOM     20  C   UNL     1       0.676   9.427  20.679  0.00  0.00    +0.000 A 
ATOM     21  C   UNL     1       0.008  10.577  20.226  0.00  0.00    +0.000 A 
ATOM     22  C   UNL     1      -0.769  11.353  21.092  0.00  0.00    +0.000 A 
BRANCH  17  24
ATOM     23  C   UNL     1      -2.983  12.145  23.121  0.00  0.00    +0.000 C 
ATOM     24  C   UNL     1      -1.725  11.761  23.381  0.00  0.00    +0.000 C 
BRANCH  23  25
ATOM     25  C   UNL     1      -3.716  12.954  24.110  0.00  0.00    +0.000 C 
ATOM     26  O   UNL     1      -4.533  12.523  24.912  0.00  0.00    +0.000 OA
BRANCH  25  28
ATOM     27  C   UNL     1      -2.974  14.862  25.215  0.00  0.00    +0.000 C 
ATOM     28  O   UNL     1      -3.312  14.239  23.977  0.00  0.00    +0.000 OA
ENDBRANCH  25  28
ENDBRANCH  23  25
ENDBRANCH  17  24
ENDBRANCH   1  20
BRANCH   4  29
ATOM     29  O   UNL     1       3.704   6.227  17.132  0.00  0.00    +0.000 OA
ATOM     30  H   UNL     1       4.306   6.818  16.654  0.00  0.00    +0.000 HD
ENDBRANCH   4  29
TORSDOF 6
ENDMDL
MODEL 5
REMARK VINA RESULT:      -8.8      1.187      1.803
REMARK  Name = 
REMARK  7 active torsions:
REMARK  status: ('A' for Active; 'I' for Inactive)
REMARK    1  A    between atoms: C_1  and  O_2
REMARK    2  A    between atoms: O_2  and  C_3
REMARK    3  A    between atoms: C_3  and  C_5
REMARK    4  A    between atoms: C_6  and  C_7
REMARK    5  A    between atoms: C_10  and  C_11
REMARK    6  A    between atoms: C_14  and  O_15
REMARK    7  A    between atoms: C_16  and  C_17
REMARK                            x       y       z     vdW  Elec       q    Type
REMARK                         _______ _______ _______ _____ _____    ______ ____
ROOT
ATOM      1  C   UNL     1       1.556   8.580  19.681  0.00  0.00    +0.000 A 
ATOM      2  C   UNL     1       2.252   9.075  18.571  0.00  0.00    +0.000 A 
ATOM      3  C   UNL     1       2.964   8.222  17.733  0.00  0.00    +0.000 A 
ATOM      4  C   UNL     1       2.998   6.851  17.995  0.00  0.00    +0.000 A 
ATOM      5  C   UNL     1       2.323   6.290  19.093  0.00  0.00    +0.000 A 
ATOM      6  C   UNL     1       1.617   7.195  19.918  0.00  0.00    +0.000 A 
ENDROOT
BRANCH   5   7
ATOM      7  C   UNL     1       2.307   4.776  19.399  0.00  0.00    +0.000 C 
ATOM      8  C   UNL     1       1.817   3.959  18.168  0.00  0.00    +0.000 C 
ATOM      9  C   UNL     1       1.775   2.451  18.481  0.00  0.00    +0.000 C 
ATOM     10  C   UNL     1       3.183   1.963  18.844  0.00  0.00    +0.000 C 
ATOM     11  C   UNL     1       3.685   2.709  20.086  0.00  0.00    +0.000 C 
ATOM     12  C   UNL     1       2.738   2.471  21.268  0.00  0.00    +0.000 C 
ATOM     13  C   UNL     1       1.329   2.963  20.911  0.00  0.00    +0.000 C 
ATOM     14  C   UNL     1       0.831   2.204  19.670  0.00  0.00    +0.000 C 
ATOM     15  C   UNL     1       1.370   4.472  20.604  0.00  0.00    +0.000 C 
ATOM     16  C   UNL     1       3.721   4.212  19.778  0.00  0.00    +0.000 C 
ENDBRANCH   5   7
BRANCH   1  20
ATOM     17  C   UNL     1      -0.707  11.249  22.207  0.00  0.00    +0.000 A 
ATOM     18  C   UNL     1      -0.458  11.569  20.874  0.00  0.00    +0.000 A 
ATOM     19  C   UNL     1       0.255  10.688  20.056  0.00  0.00    +0.000 A 
ATOM     20  C   UNL     1       0.771   9.480  20.552  0.00  0.00    +0.000 A 
ATOM     21  C   UNL     1       0.514   9.172  21.898  0.00  0.00    +0.000 A 
ATOM     22  C   UNL     1      -0.213  10.043  22.715  0.00  0.00    +0.000 A 
BRANCH  17  24
ATOM     23  C   UNL     1      -1.048  13.475  23.229  0.00  0.00    +0.000 C 
ATOM     24  C   UNL     1      -1.448  12.211  23.027  0.00  0.00    +0.000 C 
BRANCH  23  25
ATOM     25  C   UNL     1      -1.834  14.353  24.114  0.00  0.00    +0.000 C 
ATOM     26  O   UNL     1      -3.055  14.395  24.168  0.00  0.00    +0.000 OA
BRANCH  25  28
ATOM     27  C   UNL     1      -1.532  15.597  26.056  0.00  0.00    +0.000 C 
ATOM     28  O   UNL     1      -0.965  15.083  24.852  0.00  0.00    +0.000 OA
ENDBRANCH  25  28
ENDBRANCH  23  25
ENDBRANCH  17  24
ENDBRANCH   1  20
BRANCH   4  29
ATOM     29  O   UNL     1       3.711   6.057  17.141  0.00  0.00    +0.000 OA
ATOM     30  H   UNL     1       3.198   5.930  16.328  0.00  0.00    +0.000 HD
ENDBRANCH   4  29
TORSDOF 6
ENDMDL
MODEL 6
REMARK VINA RESULT:      -8.8      2.411      3.951
REMARK  Name = 
REMARK  7 active torsions:
REMARK  status: ('A' for Active; 'I' for Inactive)
REMARK    1  A    between atoms: C_1  and  O_2
REMARK    2  A    between atoms: O_2  and  C_3
REMARK    3  A    between atoms: C_3  and  C_5
REMARK    4  A    between atoms: C_6  and  C_7
REMARK    5  A    between atoms: C_10  and  C_11
REMARK    6  A    between atoms: C_14  and  O_15
REMARK    7  A    between atoms: C_16  and  C_17
REMARK                            x       y       z     vdW  Elec       q    Type
REMARK                         _______ _______ _______ _____ _____    ______ ____
ROOT
ATOM      1  C   UNL     1       1.878   6.543  20.364  0.00  0.00    +0.000 A 
ATOM      2  C   UNL     1       1.452   5.307  20.867  0.00  0.00    +0.000 A 
ATOM      3  C   UNL     1       2.135   4.134  20.557  0.00  0.00    +0.000 A 
ATOM      4  C   UNL     1       3.257   4.176  19.727  0.00  0.00    +0.000 A 
ATOM      5  C   UNL     1       3.734   5.382  19.188  0.00  0.00    +0.000 A 
ATOM      6  C   UNL     1       3.008   6.546  19.527  0.00  0.00    +0.000 A 
ENDROOT
BRANCH   5   7
ATOM      7  C   UNL     1       4.990   5.477  18.294  0.00  0.00    +0.000 C 
ATOM      8  C   UNL     1       6.287   5.545  19.153  0.00  0.00    +0.000 C 
ATOM      9  C   UNL     1       7.539   5.666  18.263  0.00  0.00    +0.000 C 
ATOM     10  C   UNL     1       7.639   4.438  17.348  0.00  0.00    +0.000 C 
ATOM     11  C   UNL     1       6.401   4.362  16.447  0.00  0.00    +0.000 C 
ATOM     12  C   UNL     1       6.285   5.631  15.593  0.00  0.00    +0.000 C 
ATOM     13  C   UNL     1       6.179   6.861  16.505  0.00  0.00    +0.000 C 
ATOM     14  C   UNL     1       7.428   6.933  17.399  0.00  0.00    +0.000 C 
ATOM     15  C   UNL     1       4.925   6.743  17.390  0.00  0.00    +0.000 C 
ATOM     16  C   UNL     1       5.153   4.248  17.331  0.00  0.00    +0.000 C 
ENDBRANCH   5   7
BRANCH   1  20
ATOM     17  C   UNL     1      -0.218  10.166  21.417  0.00  0.00    +0.000 A 
ATOM     18  C   UNL     1      -0.290   9.038  22.232  0.00  0.00    +0.000 A 
ATOM     19  C   UNL     1       0.412   7.877  21.896  0.00  0.00    +0.000 A 
ATOM     20  C   UNL     1       1.175   7.793  20.721  0.00  0.00    +0.000 A 
ATOM     21  C   UNL     1       1.237   8.937  19.909  0.00  0.00    +0.000 A 
ATOM     22  C   UNL     1       0.551  10.107  20.250  0.00  0.00    +0.000 A 
BRANCH  17  24
ATOM     23  C   UNL     1      -1.680  11.447  22.946  0.00  0.00    +0.000 C 
ATOM     24  C   UNL     1      -0.979  11.356  21.806  0.00  0.00    +0.000 C 
BRANCH  23  25
ATOM     25  C   UNL     1      -2.458  12.665  23.225  0.00  0.00    +0.000 C 
ATOM     26  O   UNL     1      -1.997  13.793  23.331  0.00  0.00    +0.000 OA
BRANCH  25  28
ATOM     27  C   UNL     1      -4.308  12.520  24.629  0.00  0.00    +0.000 C 
ATOM     28  O   UNL     1      -3.761  12.310  23.328  0.00  0.00    +0.000 OA
ENDBRANCH  25  28
ENDBRANCH  23  25
ENDBRANCH  17  24
ENDBRANCH   1  20
BRANCH   4  29
ATOM     29  O   UNL     1       3.890   2.996  19.453  0.00  0.00    +0.000 OA
ATOM     30  H   UNL     1       4.823   3.177  19.261  0.00  0.00    +0.000 HD
ENDBRANCH   4  29
TORSDOF 6
ENDMDL
MODEL 7
REMARK VINA RESULT:      -8.7      0.567      1.852
REMARK  Name = 
REMARK  7 active torsions:
REMARK  status: ('A' for Active; 'I' for Inactive)
REMARK    1  A    between atoms: C_1  and  O_2
REMARK    2  A    between atoms: O_2  and  C_3
REMARK    3  A    between atoms: C_3  and  C_5
REMARK    4  A    between atoms: C_6  and  C_7
REMARK    5  A    between atoms: C_10  and  C_11
REMARK    6  A    between atoms: C_14  and  O_15
REMARK    7  A    between atoms: C_16  and  C_17
REMARK                            x       y       z     vdW  Elec       q    Type
REMARK                         _______ _______ _______ _____ _____    ______ ____
ROOT
ATOM      1  C   UNL     1       1.498   8.566  19.749  0.00  0.00    +0.000 A 
ATOM      2  C   UNL     1       2.181   9.142  18.670  0.00  0.00    +0.000 A 
ATOM      3  C   UNL     1       2.925   8.358  17.793  0.00  0.00    +0.000 A 
ATOM      4  C   UNL     1       3.006   6.977  17.985  0.00  0.00    +0.000 A 
ATOM      5  C   UNL     1       2.347   6.337  19.048  0.00  0.00    +0.000 A 
ATOM      6  C   UNL     1       1.607   7.173  19.915  0.00  0.00    +0.000 A 
ENDROOT
BRANCH   5   7
ATOM      7  C   UNL     1       2.382   4.810  19.276  0.00  0.00    +0.000 C 
ATOM      8  C   UNL     1       1.428   4.392  20.433  0.00  0.00    +0.000 C 
ATOM      9  C   UNL     1       1.483   2.872  20.679  0.00  0.00    +0.000 C 
ATOM     10  C   UNL     1       1.043   2.131  19.410  0.00  0.00    +0.000 C 
ATOM     11  C   UNL     1       1.989   2.477  18.254  0.00  0.00    +0.000 C 
ATOM     12  C   UNL     1       3.428   2.080  18.607  0.00  0.00    +0.000 C 
ATOM     13  C   UNL     1       3.874   2.824  19.874  0.00  0.00    +0.000 C 
ATOM     14  C   UNL     1       2.924   2.465  21.029  0.00  0.00    +0.000 C 
ATOM     15  C   UNL     1       3.825   4.342  19.626  0.00  0.00    +0.000 C 
ATOM     16  C   UNL     1       1.941   3.990  18.012  0.00  0.00    +0.000 C 
ENDBRANCH   5   7
BRANCH   1  20
ATOM     17  C   UNL     1      -0.863  11.020  22.401  0.00  0.00    +0.000 A 
ATOM     18  C   UNL     1      -0.532  11.465  21.122  0.00  0.00    +0.000 A 
ATOM     19  C   UNL     1       0.212  10.654  20.261  0.00  0.00    +0.000 A 
ATOM     20  C   UNL     1       0.679   9.392  20.661  0.00  0.00    +0.000 A 
ATOM     21  C   UNL     1       0.340   8.958  21.953  0.00  0.00    +0.000 A 
ATOM     22  C   UNL     1      -0.419   9.759  22.812  0.00  0.00    +0.000 A 
BRANCH  17  24
ATOM     23  C   UNL     1      -2.952  12.120  23.133  0.00  0.00    +0.000 C 
ATOM     24  C   UNL     1      -1.635  11.911  23.270  0.00  0.00    +0.000 C 
BRANCH  23  25
ATOM     25  C   UNL     1      -3.633  13.077  24.023  0.00  0.00    +0.000 C 
ATOM     26  O   UNL     1      -4.222  12.788  25.055  0.00  0.00    +0.000 OA
BRANCH  25  28
ATOM     27  C   UNL     1      -4.346  15.291  24.070  0.00  0.00    +0.000 C 
ATOM     28  O   UNL     1      -3.475  14.315  23.499  0.00  0.00    +0.000 OA
ENDBRANCH  25  28
ENDBRANCH  23  25
ENDBRANCH  17  24
ENDBRANCH   1  20
BRANCH   4  29
ATOM     29  O   UNL     1       3.750   6.254  17.095  0.00  0.00    +0.000 OA
ATOM     30  H   UNL     1       3.991   5.408  17.502  0.00  0.00    +0.000 HD
ENDBRANCH   4  29
TORSDOF 6
ENDMDL
MODEL 8
REMARK VINA RESULT:      -8.7      0.697      1.607
REMARK  Name = 
REMARK  7 active torsions:
REMARK  status: ('A' for Active; 'I' for Inactive)
REMARK    1  A    between atoms: C_1  and  O_2
REMARK    2  A    between atoms: O_2  and  C_3
REMARK    3  A    between atoms: C_3  and  C_5
REMARK    4  A    between atoms: C_6  and  C_7
REMARK    5  A    between atoms: C_10  and  C_11
REMARK    6  A    between atoms: C_14  and  O_15
REMARK    7  A    between atoms: C_16  and  C_17
REMARK                            x       y       z     vdW  Elec       q    Type
REMARK                         _______ _______ _______ _____ _____    ______ ____
ROOT
ATOM      1  C   UNL     1       1.655   8.605  19.156  0.00  0.00    +0.000 A 
ATOM      2  C   UNL     1       2.506   9.030  18.129  0.00  0.00    +0.000 A 
ATOM      3  C   UNL     1       3.316   8.125  17.448  0.00  0.00    +0.000 A 
ATOM      4  C   UNL     1       3.294   6.772  17.791  0.00  0.00    +0.000 A 
ATOM      5  C   UNL     1       2.465   6.280  18.814  0.00  0.00    +0.000 A 
ATOM      6  C   UNL     1       1.664   7.236  19.479  0.00  0.00    +0.000 A 
ENDROOT
BRANCH   5   7
ATOM      7  C   UNL     1       2.385   4.787  19.201  0.00  0.00    +0.000 C 
ATOM      8  C   UNL     1       3.769   4.255  19.676  0.00  0.00    +0.000 C 
ATOM      9  C   UNL     1       3.697   2.759  20.037  0.00  0.00    +0.000 C 
ATOM     10  C   UNL     1       2.693   2.555  21.179  0.00  0.00    +0.000 C 
ATOM     11  C   UNL     1       1.302   3.021  20.734  0.00  0.00    +0.000 C 
ATOM     12  C   UNL     1       0.845   2.231  19.502  0.00  0.00    +0.000 C 
ATOM     13  C   UNL     1       1.844   2.437  18.355  0.00  0.00    +0.000 C 
ATOM     14  C   UNL     1       3.234   1.960  18.808  0.00  0.00    +0.000 C 
ATOM     15  C   UNL     1       1.912   3.931  17.990  0.00  0.00    +0.000 C 
ATOM     16  C   UNL     1       1.373   4.508  20.368  0.00  0.00    +0.000 C 
ENDBRANCH   5   7
BRANCH   1  20
ATOM     17  C   UNL     1      -0.950  11.352  21.228  0.00  0.00    +0.000 A 
ATOM     18  C   UNL     1      -0.172  10.437  21.935  0.00  0.00    +0.000 A 
ATOM     19  C   UNL     1       0.687   9.568  21.257  0.00  0.00    +0.000 A 
ATOM     20  C   UNL     1       0.769   9.559  19.856  0.00  0.00    +0.000 A 
ATOM     21  C   UNL     1      -0.022  10.485  19.157  0.00  0.00    +0.000 A 
ATOM     22  C   UNL     1      -0.871  11.369  19.832  0.00  0.00    +0.000 A 
BRANCH  17  24
ATOM     23  C   UNL     1      -2.400  11.898  23.156  0.00  0.00    +0.000 C 
ATOM     24  C   UNL     1      -1.843  12.235  21.983  0.00  0.00    +0.000 C 
BRANCH  23  25
ATOM     25  C   UNL     1      -3.328  12.832  23.815  0.00  0.00    +0.000 C 
ATOM     26  O   UNL     1      -3.014  13.892  24.339  0.00  0.00    +0.000 OA
BRANCH  25  28
ATOM     27  C   UNL     1      -5.455  13.085  22.905  0.00  0.00    +0.000 C 
ATOM     28  O   UNL     1      -4.575  12.313  23.721  0.00  0.00    +0.000 OA
ENDBRANCH  25  28
ENDBRANCH  23  25
ENDBRANCH  17  24
ENDBRANCH   1  20
BRANCH   4  29
ATOM     29  O   UNL     1       4.108   5.925  17.092  0.00  0.00    +0.000 OA
ATOM     30  H   UNL     1       3.897   5.994  16.148  0.00  0.00    +0.000 HD
ENDBRANCH   4  29
TORSDOF 6
ENDMDL
MODEL 9
REMARK VINA RESULT:      -8.5      2.433      4.063
REMARK  Name = 
REMARK  7 active torsions:
REMARK  status: ('A' for Active; 'I' for Inactive)
REMARK    1  A    between atoms: C_1  and  O_2
REMARK    2  A    between atoms: O_2  and  C_3
REMARK    3  A    between atoms: C_3  and  C_5
REMARK    4  A    between atoms: C_6  and  C_7
REMARK    5  A    between atoms: C_10  and  C_11
REMARK    6  A    between atoms: C_14  and  O_15
REMARK    7  A    between atoms: C_16  and  C_17
REMARK                            x       y       z     vdW  Elec       q    Type
REMARK                         _______ _______ _______ _____ _____    ______ ____
ROOT
ATOM      1  C   UNL     1       1.852   6.623  20.376  0.00  0.00    +0.000 A 
ATOM      2  C   UNL     1       1.428   5.405  20.921  0.00  0.00    +0.000 A 
ATOM      3  C   UNL     1       2.090   4.218  20.624  0.00  0.00    +0.000 A 
ATOM      4  C   UNL     1       3.190   4.226  19.764  0.00  0.00    +0.000 A 
ATOM      5  C   UNL     1       3.666   5.414  19.182  0.00  0.00    +0.000 A 
ATOM      6  C   UNL     1       2.960   6.594  19.510  0.00  0.00    +0.000 A 
ENDROOT
BRANCH   5   7
ATOM      7  C   UNL     1       4.899   5.472  18.254  0.00  0.00    +0.000 C 
ATOM      8  C   UNL     1       6.220   5.506  19.078  0.00  0.00    +0.000 C 
ATOM      9  C   UNL     1       7.450   5.592  18.153  0.00  0.00    +0.000 C 
ATOM     10  C   UNL     1       7.492   4.360  17.240  0.00  0.00    +0.000 C 
ATOM     11  C   UNL     1       6.228   4.316  16.373  0.00  0.00    +0.000 C 
ATOM     12  C   UNL     1       6.124   5.585  15.519  0.00  0.00    +0.000 C 
ATOM     13  C   UNL     1       6.076   6.820  16.430  0.00  0.00    +0.000 C 
ATOM     14  C   UNL     1       7.351   6.860  17.290  0.00  0.00    +0.000 C 
ATOM     15  C   UNL     1       4.844   6.737  17.349  0.00  0.00    +0.000 C 
ATOM     16  C   UNL     1       5.002   4.238  17.291  0.00  0.00    +0.000 C 
ENDBRANCH   5   7
BRANCH   1  20
ATOM     17  C   UNL     1      -0.091  10.348  21.367  0.00  0.00    +0.000 A 
ATOM     18  C   UNL     1       0.646  10.219  20.190  0.00  0.00    +0.000 A 
ATOM     19  C   UNL     1       1.252   9.001  19.866  0.00  0.00    +0.000 A 
ATOM     20  C   UNL     1       1.172   7.890  20.719  0.00  0.00    +0.000 A 
ATOM     21  C   UNL     1       0.428   8.036  21.901  0.00  0.00    +0.000 A 
ATOM     22  C   UNL     1      -0.195   9.247  22.222  0.00  0.00    +0.000 A 
BRANCH  17  24
ATOM     23  C   UNL     1      -1.166  11.982  22.880  0.00  0.00    +0.000 C 
ATOM     24  C   UNL     1      -0.697  11.647  21.668  0.00  0.00    +0.000 C 
BRANCH  23  25
ATOM     25  C   UNL     1      -1.808  13.293  23.074  0.00  0.00    +0.000 C 
ATOM     26  O   UNL     1      -1.476  14.129  23.903  0.00  0.00    +0.000 OA
BRANCH  25  28
ATOM     27  C   UNL     1      -4.066  12.931  22.650  0.00  0.00    +0.000 C 
ATOM     28  O   UNL     1      -2.809  13.403  22.169  0.00  0.00    +0.000 OA
ENDBRANCH  25  28
ENDBRANCH  23  25
ENDBRANCH  17  24
ENDBRANCH   1  20
BRANCH   4  29
ATOM     29  O   UNL     1       3.804   3.033  19.505  0.00  0.00    +0.000 OA
ATOM     30  H   UNL     1       4.748   3.193  19.351  0.00  0.00    +0.000 HD
ENDBRANCH   4  29
TORSDOF 6
ENDMDL
