MODEL 1
REMARK VINA RESULT:      -8.9      0.000      0.000
REMARK  Name = 
REMARK  4 active torsions:
REMARK  status: ('A' for Active; 'I' for Inactive)
REMARK    1  A    between atoms: C_1  and  N_2
REMARK    2  A    between atoms: C_5  and  C_6
REMARK    3  A    between atoms: N_13  and  S_14
REMARK    4  A    between atoms: S_14  and  C_15
REMARK                            x       y       z     vdW  Elec       q    Type
REMARK                         _______ _______ _______ _____ _____    ______ ____
ROOT
ATOM      1  C   UNL     1      -0.125   8.995  23.041  0.00  0.00    +0.000 C 
ATOM      2  N   UNL     1       0.025   9.959  21.942  0.00  0.00    +0.000 N 
ATOM      3  C   UNL     1      -0.043   9.282  20.620  0.00  0.00    +0.000 C 
ATOM      4  C   UNL     1       0.827   9.865  19.576  0.00  0.00    +0.000 A 
ATOM      5  C   UNL     1       1.755   9.264  18.750  0.00  0.00    +0.000 A 
ATOM      6  N   UNL     1       2.345  10.244  17.988  0.00  0.00    +0.000 N 
ATOM      7  C   UNL     1       1.844  11.466  18.360  0.00  0.00    +0.000 A 
ATOM      8  N   UNL     1       2.248  12.650  17.863  0.00  0.00    +0.000 NA
ATOM      9  C   UNL     1       1.616  13.691  18.454  0.00  0.00    +0.000 A 
ATOM     10  C   UNL     1       0.634  13.597  19.438  0.00  0.00    +0.000 A 
ATOM     11  C   UNL     1       0.215  12.336  19.908  0.00  0.00    +0.000 A 
ATOM     12  C   UNL     1       0.887  11.252  19.334  0.00  0.00    +0.000 A 
ATOM     13  C   UNL     1      -0.820  12.130  20.953  0.00  0.00    +0.000 A 
ATOM     14  C   UNL     1      -1.929  13.005  20.932  0.00  0.00    +0.000 A 
ATOM     15  C   UNL     1      -2.830  13.056  21.983  0.00  0.00    +0.000 A 
ATOM     16  F   UNL     1      -3.894  13.866  21.908  0.00  0.00    +0.000 F 
ATOM     17  C   UNL     1      -2.619  12.309  23.121  0.00  0.00    +0.000 A 
ATOM     18  C   UNL     1      -1.585  11.378  23.133  0.00  0.00    +0.000 A 
ATOM     19  C   UNL     1      -0.763  11.150  22.001  0.00  0.00    +0.000 A 
ATOM     20  H   UNL     1       3.074  10.120  17.303  0.00  0.00    +0.000 HD
ENDROOT
BRANCH   5  21
ATOM     21  C   UNL     1       2.206   7.928  18.674  0.00  0.00    +0.000 C 
ATOM     22  C   UNL     1       2.286   7.234  19.829  0.00  0.00    +0.000 C 
ATOM     23  C   UNL     1       2.891   5.847  19.882  0.00  0.00    +0.000 C 
ATOM     24  C   UNL     1       1.880   4.841  19.330  0.00  0.00    +0.000 C 
ATOM     25  C   UNL     1       2.059   4.914  17.811  0.00  0.00    +0.000 C 
ATOM     26  C   UNL     1       3.246   5.865  17.585  0.00  0.00    +0.000 C 
ATOM     27  C   UNL     1       2.778   7.324  17.394  0.00  0.00    +0.000 C 
ATOM     28  N   UNL     1       3.993   5.847  18.876  0.00  0.00    +0.000 NA
BRANCH  28  29
ATOM     29  S   UNL     1       5.211   4.710  19.102  0.00  0.00    +0.000 S 
ATOM     30  C   UNL     1       5.711   4.353  17.430  0.00  0.00    +0.000 C 
ATOM     31  O   UNL     1       6.313   5.377  19.761  0.00  0.00    +0.000 OA
ATOM     32  O   UNL     1       4.617   3.516  19.665  0.00  0.00    +0.000 OA
ENDBRANCH  28  29
ENDBRANCH   5  21
TORSDOF 2
ENDMDL
MODEL 2
REMARK VINA RESULT:      -8.6      6.187      9.380
REMARK  Name = 
REMARK  4 active torsions:
REMARK  status: ('A' for Active; 'I' for Inactive)
REMARK    1  A    between atoms: C_1  and  N_2
REMARK    2  A    between atoms: C_5  and  C_6
REMARK    3  A    between atoms: N_13  and  S_14
REMARK    4  A    between atoms: S_14  and  C_15
REMARK                            x       y       z     vdW  Elec       q    Type
REMARK                         _______ _______ _______ _____ _____    ______ ____
ROOT
ATOM      1  C   UNL     1      -0.008   9.446  22.597  0.00  0.00    +0.000 C 
ATOM      2  N   UNL     1      -0.427   9.829  21.241  0.00  0.00    +0.000 N 
ATOM      3  C   UNL     1      -0.577  11.303  21.122  0.00  0.00    +0.000 C 
ATOM      4  C   UNL     1      -1.668  11.747  20.227  0.00  0.00    +0.000 A 
ATOM      5  C   UNL     1      -2.700  12.635  20.453  0.00  0.00    +0.000 A 
ATOM      6  N   UNL     1      -3.485  12.670  19.324  0.00  0.00    +0.000 N 
ATOM      7  C   UNL     1      -2.997  11.773  18.408  0.00  0.00    +0.000 A 
ATOM      8  N   UNL     1      -3.561  11.502  17.217  0.00  0.00    +0.000 NA
ATOM      9  C   UNL     1      -2.890  10.536  16.545  0.00  0.00    +0.000 A 
ATOM     10  C   UNL     1      -1.731   9.895  16.979  0.00  0.00    +0.000 A 
ATOM     11  C   UNL     1      -1.154  10.232  18.219  0.00  0.00    +0.000 A 
ATOM     12  C   UNL     1      -1.858  11.201  18.942  0.00  0.00    +0.000 A 
ATOM     13  C   UNL     1       0.076   9.607  18.771  0.00  0.00    +0.000 A 
ATOM     14  C   UNL     1       1.104   9.305  17.851  0.00  0.00    +0.000 A 
ATOM     15  C   UNL     1       2.188   8.520  18.209  0.00  0.00    +0.000 A 
ATOM     16  F   UNL     1       3.165   8.291  17.323  0.00  0.00    +0.000 F 
ATOM     17  C   UNL     1       2.248   7.941  19.458  0.00  0.00    +0.000 A 
ATOM     18  C   UNL     1       1.294   8.291  20.409  0.00  0.00    +0.000 A 
ATOM     19  C   UNL     1       0.283   9.248  20.146  0.00  0.00    +0.000 A 
ATOM     20  H   UNL     1      -4.325  13.211  19.190  0.00  0.00    +0.000 HD
ENDROOT
BRANCH   5  21
ATOM     21  C   UNL     1      -3.075  13.352  21.610  0.00  0.00    +0.000 C 
ATOM     22  C   UNL     1      -4.128  12.886  22.314  0.00  0.00    +0.000 C 
ATOM     23  C   UNL     1      -4.704  13.654  23.484  0.00  0.00    +0.000 C 
ATOM     24  C   UNL     1      -3.792  13.470  24.698  0.00  0.00    +0.000 C 
ATOM     25  C   UNL     1      -2.681  14.506  24.501  0.00  0.00    +0.000 C 
ATOM     26  C   UNL     1      -3.086  15.307  23.253  0.00  0.00    +0.000 C 
ATOM     27  C   UNL     1      -2.473  14.707  21.969  0.00  0.00    +0.000 C 
ATOM     28  N   UNL     1      -4.558  15.097  23.133  0.00  0.00    +0.000 NA
BRANCH  28  29
ATOM     29  S   UNL     1      -5.604  16.163  23.905  0.00  0.00    +0.000 S 
ATOM     30  C   UNL     1      -5.964  17.340  22.617  0.00  0.00    +0.000 C 
ATOM     31  O   UNL     1      -6.822  15.442  24.200  0.00  0.00    +0.000 OA
ATOM     32  O   UNL     1      -4.867  16.843  24.950  0.00  0.00    +0.000 OA
ENDBRANCH  28  29
ENDBRANCH   5  21
TORSDOF 2
ENDMDL
MODEL 3
REMARK VINA RESULT:      -8.6      1.491      2.041
REMARK  Name = 
REMARK  4 active torsions:
REMARK  status: ('A' for Active; 'I' for Inactive)
REMARK    1  A    between atoms: C_1  and  N_2
REMARK    2  A    between atoms: C_5  and  C_6
REMARK    3  A    between atoms: N_13  and  S_14
REMARK    4  A    between atoms: S_14  and  C_15
REMARK                            x       y       z     vdW  Elec       q    Type
REMARK                         _______ _______ _______ _____ _____    ______ ____
ROOT
ATOM      1  C   UNL     1      -0.140   9.116  23.232  0.00  0.00    +0.000 C 
ATOM      2  N   UNL     1      -0.003   9.992  22.059  0.00  0.00    +0.000 N 
ATOM      3  C   UNL     1      -0.067   9.211  20.795  0.00  0.00    +0.000 C 
ATOM      4  C   UNL     1       0.795   9.718  19.705  0.00  0.00    +0.000 A 
ATOM      5  C   UNL     1       1.726   9.062  18.927  0.00  0.00    +0.000 A 
ATOM      6  N   UNL     1       2.304   9.984  18.087  0.00  0.00    +0.000 N 
ATOM      7  C   UNL     1       1.792  11.227  18.363  0.00  0.00    +0.000 A 
ATOM      8  N   UNL     1       2.184  12.371  17.772  0.00  0.00    +0.000 NA
ATOM      9  C   UNL     1       1.542  13.450  18.281  0.00  0.00    +0.000 A 
ATOM     10  C   UNL     1       0.564  13.425  19.272  0.00  0.00    +0.000 A 
ATOM     11  C   UNL     1       0.159  12.201  19.842  0.00  0.00    +0.000 A 
ATOM     12  C   UNL     1       0.840  11.082  19.353  0.00  0.00    +0.000 A 
ATOM     13  C   UNL     1      -0.872  12.069  20.904  0.00  0.00    +0.000 A 
ATOM     14  C   UNL     1      -1.989  12.929  20.817  0.00  0.00    +0.000 A 
ATOM     15  C   UNL     1      -2.888  13.055  21.863  0.00  0.00    +0.000 A 
ATOM     16  F   UNL     1      -3.960  13.845  21.727  0.00  0.00    +0.000 F 
ATOM     17  C   UNL     1      -2.667  12.402  23.056  0.00  0.00    +0.000 A 
ATOM     18  C   UNL     1      -1.624  11.485  23.138  0.00  0.00    +0.000 A 
ATOM     19  C   UNL     1      -0.802  11.176  22.026  0.00  0.00    +0.000 A 
ATOM     20  H   UNL     1       3.033   9.813  17.412  0.00  0.00    +0.000 HD
ENDROOT
BRANCH   5  21
ATOM     21  C   UNL     1       2.190   7.728  18.956  0.00  0.00    +0.000 C 
ATOM     22  C   UNL     1       2.441   7.134  17.770  0.00  0.00    +0.000 C 
ATOM     23  C   UNL     1       2.802   5.666  17.679  0.00  0.00    +0.000 C 
ATOM     24  C   UNL     1       4.262   5.486  18.096  0.00  0.00    +0.000 C 
ATOM     25  C   UNL     1       4.219   5.430  19.625  0.00  0.00    +0.000 C 
ATOM     26  C   UNL     1       2.726   5.457  19.992  0.00  0.00    +0.000 C 
ATOM     27  C   UNL     1       2.226   6.897  20.235  0.00  0.00    +0.000 C 
ATOM     28  N   UNL     1       2.028   4.990  18.760  0.00  0.00    +0.000 NA
BRANCH  28  29
ATOM     29  S   UNL     1       1.737   3.346  18.554  0.00  0.00    +0.000 S 
ATOM     30  C   UNL     1       2.857   2.614  19.730  0.00  0.00    +0.000 C 
ATOM     31  O   UNL     1       0.388   3.083  19.004  0.00  0.00    +0.000 OA
ATOM     32  O   UNL     1       2.167   2.974  17.224  0.00  0.00    +0.000 OA
ENDBRANCH  28  29
ENDBRANCH   5  21
TORSDOF 2
ENDMDL
MODEL 4
REMARK VINA RESULT:      -8.3      5.707      9.000
REMARK  Name = 
REMARK  4 active torsions:
REMARK  status: ('A' for Active; 'I' for Inactive)
REMARK    1  A    between atoms: C_1  and  N_2
REMARK    2  A    between atoms: C_5  and  C_6
REMARK    3  A    between atoms: N_13  and  S_14
REMARK    4  A    between atoms: S_14  and  C_15
REMARK                            x       y       z     vdW  Elec       q    Type
REMARK                         _______ _______ _______ _____ _____    ______ ____
ROOT
ATOM      1  C   UNL     1       0.060   9.627  22.638  0.00  0.00    +0.000 C 
ATOM      2  N   UNL     1      -0.391   9.965  21.280  0.00  0.00    +0.000 N 
ATOM      3  C   UNL     1      -0.515  11.437  21.106  0.00  0.00    +0.000 C 
ATOM      4  C   UNL     1      -1.622  11.868  20.226  0.00  0.00    +0.000 A 
ATOM      5  C   UNL     1      -2.630  12.785  20.446  0.00  0.00    +0.000 A 
ATOM      6  N   UNL     1      -3.447  12.793  19.340  0.00  0.00    +0.000 N 
ATOM      7  C   UNL     1      -3.004  11.851  18.447  0.00  0.00    +0.000 A 
ATOM      8  N   UNL     1      -3.608  11.545  17.284  0.00  0.00    +0.000 NA
ATOM      9  C   UNL     1      -2.976  10.540  16.632  0.00  0.00    +0.000 A 
ATOM     10  C   UNL     1      -1.818   9.893  17.058  0.00  0.00    +0.000 A 
ATOM     11  C   UNL     1      -1.198  10.265  18.267  0.00  0.00    +0.000 A 
ATOM     12  C   UNL     1      -1.861  11.276  18.970  0.00  0.00    +0.000 A 
ATOM     13  C   UNL     1       0.035   9.637  18.808  0.00  0.00    +0.000 A 
ATOM     14  C   UNL     1       1.029   9.277  17.871  0.00  0.00    +0.000 A 
ATOM     15  C   UNL     1       2.108   8.485  18.229  0.00  0.00    +0.000 A 
ATOM     16  F   UNL     1       3.054   8.201  17.325  0.00  0.00    +0.000 F 
ATOM     17  C   UNL     1       2.193   7.954  19.498  0.00  0.00    +0.000 A 
ATOM     18  C   UNL     1       1.275   8.360  20.461  0.00  0.00    +0.000 A 
ATOM     19  C   UNL     1       0.276   9.327  20.189  0.00  0.00    +0.000 A 
ATOM     20  H   UNL     1      -4.280  13.345  19.208  0.00  0.00    +0.000 HD
ENDROOT
BRANCH   5  21
ATOM     21  C   UNL     1      -2.957  13.555  21.584  0.00  0.00    +0.000 C 
ATOM     22  C   UNL     1      -2.938  14.898  21.451  0.00  0.00    +0.000 C 
ATOM     23  C   UNL     1      -3.130  15.817  22.639  0.00  0.00    +0.000 C 
ATOM     24  C   UNL     1      -4.615  15.858  23.002  0.00  0.00    +0.000 C 
ATOM     25  C   UNL     1      -4.832  14.613  23.867  0.00  0.00    +0.000 C 
ATOM     26  C   UNL     1      -3.435  13.998  24.053  0.00  0.00    +0.000 C 
ATOM     27  C   UNL     1      -3.131  12.940  22.970  0.00  0.00    +0.000 C 
ATOM     28  N   UNL     1      -2.491  15.123  23.795  0.00  0.00    +0.000 NA
BRANCH  28  29
ATOM     29  S   UNL     1      -2.007  16.099  25.076  0.00  0.00    +0.000 S 
ATOM     30  C   UNL     1      -0.400  16.654  24.543  0.00  0.00    +0.000 C 
ATOM     31  O   UNL     1      -2.885  17.247  25.105  0.00  0.00    +0.000 OA
ATOM     32  O   UNL     1      -1.835  15.260  26.243  0.00  0.00    +0.000 OA
ENDBRANCH  28  29
ENDBRANCH   5  21
TORSDOF 2
ENDMDL
MODEL 5
REMARK VINA RESULT:      -8.0      6.031      9.378
REMARK  Name = 
REMARK  4 active torsions:
REMARK  status: ('A' for Active; 'I' for Inactive)
REMARK    1  A    between atoms: C_1  and  N_2
REMARK    2  A    between atoms: C_5  and  C_6
REMARK    3  A    between atoms: N_13  and  S_14
REMARK    4  A    between atoms: S_14  and  C_15
REMARK                            x       y       z     vdW  Elec       q    Type
REMARK                         _______ _______ _______ _____ _____    ______ ____
ROOT
ATOM      1  C   UNL     1      -0.388  10.360  22.659  0.00  0.00    +0.000 C 
ATOM      2  N   UNL     1      -0.873  10.507  21.279  0.00  0.00    +0.000 N 
ATOM      3  C   UNL     1      -1.134  11.933  20.950  0.00  0.00    +0.000 C 
ATOM      4  C   UNL     1      -2.279  12.164  20.043  0.00  0.00    +0.000 A 
ATOM      5  C   UNL     1      -3.367  13.002  20.177  0.00  0.00    +0.000 A 
ATOM      6  N   UNL     1      -4.185  12.814  19.087  0.00  0.00    +0.000 N 
ATOM      7  C   UNL     1      -3.658  11.827  18.294  0.00  0.00    +0.000 A 
ATOM      8  N   UNL     1      -4.234  11.343  17.178  0.00  0.00    +0.000 NA
ATOM      9  C   UNL     1      -3.513  10.337  16.629  0.00  0.00    +0.000 A 
ATOM     10  C   UNL     1      -2.298   9.849  17.107  0.00  0.00    +0.000 A 
ATOM     11  C   UNL     1      -1.712  10.405  18.261  0.00  0.00    +0.000 A 
ATOM     12  C   UNL     1      -2.465  11.420  18.861  0.00  0.00    +0.000 A 
ATOM     13  C   UNL     1      -0.425   9.956  18.850  0.00  0.00    +0.000 A 
ATOM     14  C   UNL     1       0.596   9.591  17.944  0.00  0.00    +0.000 A 
ATOM     15  C   UNL     1       1.745   8.944  18.371  0.00  0.00    +0.000 A 
ATOM     16  F   UNL     1       2.711   8.654  17.491  0.00  0.00    +0.000 F 
ATOM     17  C   UNL     1       1.883   8.563  19.689  0.00  0.00    +0.000 A 
ATOM     18  C   UNL     1       0.934   8.984  20.614  0.00  0.00    +0.000 A 
ATOM     19  C   UNL     1      -0.152   9.820  20.253  0.00  0.00    +0.000 A 
ATOM     20  H   UNL     1      -5.065  13.270  18.907  0.00  0.00    +0.000 HD
ENDROOT
BRANCH   5  21
ATOM     21  C   UNL     1      -3.761  13.856  21.230  0.00  0.00    +0.000 C 
ATOM     22  C   UNL     1      -3.628  15.185  21.033  0.00  0.00    +0.000 C 
ATOM     23  C   UNL     1      -3.883  16.181  22.144  0.00  0.00    +0.000 C 
ATOM     24  C   UNL     1      -5.392  16.344  22.331  0.00  0.00    +0.000 C 
ATOM     25  C   UNL     1      -5.796  15.169  23.226  0.00  0.00    +0.000 C 
ATOM     26  C   UNL     1      -4.478  14.472  23.602  0.00  0.00    +0.000 C 
ATOM     27  C   UNL     1      -4.134  13.335  22.615  0.00  0.00    +0.000 C 
ATOM     28  N   UNL     1      -3.430  15.513  23.399  0.00  0.00    +0.000 NA
BRANCH  28  29
ATOM     29  S   UNL     1      -3.022  16.526  24.679  0.00  0.00    +0.000 S 
ATOM     30  C   UNL     1      -2.004  15.468  25.688  0.00  0.00    +0.000 C 
ATOM     31  O   UNL     1      -2.180  17.577  24.150  0.00  0.00    +0.000 OA
ATOM     32  O   UNL     1      -4.229  16.834  25.415  0.00  0.00    +0.000 OA
ENDBRANCH  28  29
ENDBRANCH   5  21
TORSDOF 2
ENDMDL
MODEL 6
REMARK VINA RESULT:      -8.0      6.295      9.580
REMARK  Name = 
REMARK  4 active torsions:
REMARK  status: ('A' for Active; 'I' for Inactive)
REMARK    1  A    between atoms: C_1  and  N_2
REMARK    2  A    between atoms: C_5  and  C_6
REMARK    3  A    between atoms: N_13  and  S_14
REMARK    4  A    between atoms: S_14  and  C_15
REMARK                            x       y       z     vdW  Elec       q    Type
REMARK                         _______ _______ _______ _____ _____    ______ ____
ROOT
ATOM      1  C   UNL     1      -0.692  11.168  19.592  0.00  0.00    +0.000 C 
ATOM      2  N   UNL     1      -2.138  11.363  19.414  0.00  0.00    +0.000 N 
ATOM      3  C   UNL     1      -2.537  12.757  19.744  0.00  0.00    +0.000 C 
ATOM      4  C   UNL     1      -3.868  12.891  20.373  0.00  0.00    +0.000 A 
ATOM      5  C   UNL     1      -4.245  13.541  21.531  0.00  0.00    +0.000 A 
ATOM      6  N   UNL     1      -5.591  13.330  21.718  0.00  0.00    +0.000 N 
ATOM      7  C   UNL     1      -6.060  12.508  20.724  0.00  0.00    +0.000 A 
ATOM      8  N   UNL     1      -7.321  12.044  20.637  0.00  0.00    +0.000 NA
ATOM      9  C   UNL     1      -7.483  11.211  19.581  0.00  0.00    +0.000 A 
ATOM     10  C   UNL     1      -6.502  10.871  18.652  0.00  0.00    +0.000 A 
ATOM     11  C   UNL     1      -5.203  11.405  18.761  0.00  0.00    +0.000 A 
ATOM     12  C   UNL     1      -5.010  12.237  19.868  0.00  0.00    +0.000 A 
ATOM     13  C   UNL     1      -4.089  11.104  17.825  0.00  0.00    +0.000 A 
ATOM     14  C   UNL     1      -4.424  10.980  16.458  0.00  0.00    +0.000 A 
ATOM     15  C   UNL     1      -3.520  10.479  15.535  0.00  0.00    +0.000 A 
ATOM     16  F   UNL     1      -3.856  10.417  14.240  0.00  0.00    +0.000 F 
ATOM     17  C   UNL     1      -2.292  10.007  15.945  0.00  0.00    +0.000 A 
ATOM     18  C   UNL     1      -1.906  10.196  17.268  0.00  0.00    +0.000 A 
ATOM     19  C   UNL     1      -2.720  10.887  18.200  0.00  0.00    +0.000 A 
ATOM     20  H   UNL     1      -6.154  13.662  22.485  0.00  0.00    +0.000 HD
ENDROOT
BRANCH   5  21
ATOM     21  C   UNL     1      -3.486  14.228  22.503  0.00  0.00    +0.000 C 
ATOM     22  C   UNL     1      -3.663  15.563  22.598  0.00  0.00    +0.000 C 
ATOM     23  C   UNL     1      -2.799  16.416  23.502  0.00  0.00    +0.000 C 
ATOM     24  C   UNL     1      -3.261  16.236  24.948  0.00  0.00    +0.000 C 
ATOM     25  C   UNL     1      -2.568  14.953  25.415  0.00  0.00    +0.000 C 
ATOM     26  C   UNL     1      -1.652  14.539  24.252  0.00  0.00    +0.000 C 
ATOM     27  C   UNL     1      -2.360  13.562  23.289  0.00  0.00    +0.000 C 
ATOM     28  N   UNL     1      -1.443  15.793  23.473  0.00  0.00    +0.000 NA
BRANCH  28  29
ATOM     29  S   UNL     1      -0.151  16.797  23.863  0.00  0.00    +0.000 S 
ATOM     30  C   UNL     1       1.044  16.381  22.609  0.00  0.00    +0.000 C 
ATOM     31  O   UNL     1      -0.575  18.161  23.637  0.00  0.00    +0.000 OA
ATOM     32  O   UNL     1       0.372  16.381  25.147  0.00  0.00    +0.000 OA
ENDBRANCH  28  29
ENDBRANCH   5  21
TORSDOF 2
ENDMDL
MODEL 7
REMARK VINA RESULT:      -7.9      6.020      9.233
REMARK  Name = 
REMARK  4 active torsions:
REMARK  status: ('A' for Active; 'I' for Inactive)
REMARK    1  A    between atoms: C_1  and  N_2
REMARK    2  A    between atoms: C_5  and  C_6
REMARK    3  A    between atoms: N_13  and  S_14
REMARK    4  A    between atoms: S_14  and  C_15
REMARK                            x       y       z     vdW  Elec       q    Type
REMARK                         _______ _______ _______ _____ _____    ______ ____
ROOT
ATOM      1  C   UNL     1       0.088   9.537  22.608  0.00  0.00    +0.000 C 
ATOM      2  N   UNL     1      -0.358   9.891  21.252  0.00  0.00    +0.000 N 
ATOM      3  C   UNL     1      -0.489  11.364  21.097  0.00  0.00    +0.000 C 
ATOM      4  C   UNL     1      -1.595  11.801  20.217  0.00  0.00    +0.000 A 
ATOM      5  C   UNL     1      -2.608  12.709  20.444  0.00  0.00    +0.000 A 
ATOM      6  N   UNL     1      -3.420  12.727  19.334  0.00  0.00    +0.000 N 
ATOM      7  C   UNL     1      -2.966  11.799  18.431  0.00  0.00    +0.000 A 
ATOM      8  N   UNL     1      -3.563  11.506  17.260  0.00  0.00    +0.000 NA
ATOM      9  C   UNL     1      -2.922  10.513  16.599  0.00  0.00    +0.000 A 
ATOM     10  C   UNL     1      -1.763   9.866  17.022  0.00  0.00    +0.000 A 
ATOM     11  C   UNL     1      -1.151  10.226  18.239  0.00  0.00    +0.000 A 
ATOM     12  C   UNL     1      -1.823  11.224  18.952  0.00  0.00    +0.000 A 
ATOM     13  C   UNL     1       0.082   9.598  18.778  0.00  0.00    +0.000 A 
ATOM     14  C   UNL     1       1.084   9.256  17.842  0.00  0.00    +0.000 A 
ATOM     15  C   UNL     1       2.165   8.464  18.195  0.00  0.00    +0.000 A 
ATOM     16  F   UNL     1       3.117   8.198  17.293  0.00  0.00    +0.000 F 
ATOM     17  C   UNL     1       2.247   7.917  19.457  0.00  0.00    +0.000 A 
ATOM     18  C   UNL     1       1.321   8.306  20.421  0.00  0.00    +0.000 A 
ATOM     19  C   UNL     1       0.318   9.271  20.156  0.00  0.00    +0.000 A 
ATOM     20  H   UNL     1      -4.255  13.276  19.205  0.00  0.00    +0.000 HD
ENDROOT
BRANCH   5  21
ATOM     21  C   UNL     1      -2.945  13.462  21.590  0.00  0.00    +0.000 C 
ATOM     22  C   UNL     1      -4.074  14.201  21.537  0.00  0.00    +0.000 C 
ATOM     23  C   UNL     1      -4.452  15.154  22.651  0.00  0.00    +0.000 C 
ATOM     24  C   UNL     1      -5.015  14.351  23.824  0.00  0.00    +0.000 C 
ATOM     25  C   UNL     1      -3.777  13.872  24.588  0.00  0.00    +0.000 C 
ATOM     26  C   UNL     1      -2.581  14.530  23.881  0.00  0.00    +0.000 C 
ATOM     27  C   UNL     1      -2.000  13.619  22.778  0.00  0.00    +0.000 C 
ATOM     28  N   UNL     1      -3.165  15.703  23.169  0.00  0.00    +0.000 NA
BRANCH  28  29
ATOM     29  S   UNL     1      -3.250  17.185  23.960  0.00  0.00    +0.000 S 
ATOM     30  C   UNL     1      -2.019  18.144  23.101  0.00  0.00    +0.000 C 
ATOM     31  O   UNL     1      -4.544  17.761  23.669  0.00  0.00    +0.000 OA
ATOM     32  O   UNL     1      -2.807  16.994  25.325  0.00  0.00    +0.000 OA
ENDBRANCH  28  29
ENDBRANCH   5  21
TORSDOF 2
ENDMDL
MODEL 8
REMARK VINA RESULT:      -7.8      1.413      2.022
REMARK  Name = 
REMARK  4 active torsions:
REMARK  status: ('A' for Active; 'I' for Inactive)
REMARK    1  A    between atoms: C_1  and  N_2
REMARK    2  A    between atoms: C_5  and  C_6
REMARK    3  A    between atoms: N_13  and  S_14
REMARK    4  A    between atoms: S_14  and  C_15
REMARK                            x       y       z     vdW  Elec       q    Type
REMARK                         _______ _______ _______ _____ _____    ______ ____
ROOT
ATOM      1  C   UNL     1       0.106   8.881  23.194  0.00  0.00    +0.000 C 
ATOM      2  N   UNL     1       0.230   9.711  21.987  0.00  0.00    +0.000 N 
ATOM      3  C   UNL     1       0.111   8.888  20.755  0.00  0.00    +0.000 C 
ATOM      4  C   UNL     1       0.952   9.335  19.624  0.00  0.00    +0.000 A 
ATOM      5  C   UNL     1       1.845   8.629  18.843  0.00  0.00    +0.000 A 
ATOM      6  N   UNL     1       2.420   9.507  17.954  0.00  0.00    +0.000 N 
ATOM      7  C   UNL     1       1.946  10.770  18.200  0.00  0.00    +0.000 A 
ATOM      8  N   UNL     1       2.347  11.883  17.557  0.00  0.00    +0.000 NA
ATOM      9  C   UNL     1       1.746  12.995  18.045  0.00  0.00    +0.000 A 
ATOM     10  C   UNL     1       0.797  13.029  19.065  0.00  0.00    +0.000 A 
ATOM     11  C   UNL     1       0.380  11.837  19.689  0.00  0.00    +0.000 A 
ATOM     12  C   UNL     1       1.020  10.684  19.222  0.00  0.00    +0.000 A 
ATOM     13  C   UNL     1      -0.622  11.767  20.783  0.00  0.00    +0.000 A 
ATOM     14  C   UNL     1      -1.721  12.651  20.697  0.00  0.00    +0.000 A 
ATOM     15  C   UNL     1      -2.586  12.836  21.763  0.00  0.00    +0.000 A 
ATOM     16  F   UNL     1      -3.642  13.648  21.630  0.00  0.00    +0.000 F 
ATOM     17  C   UNL     1      -2.346  12.220  22.973  0.00  0.00    +0.000 A 
ATOM     18  C   UNL     1      -1.322  11.281  23.058  0.00  0.00    +0.000 A 
ATOM     19  C   UNL     1      -0.542  10.913  21.935  0.00  0.00    +0.000 A 
ATOM     20  H   UNL     1       3.124   9.294  17.266  0.00  0.00    +0.000 HD
ENDROOT
BRANCH   5  21
ATOM     21  C   UNL     1       2.277   7.286  18.907  0.00  0.00    +0.000 C 
ATOM     22  C   UNL     1       1.797   6.435  17.975  0.00  0.00    +0.000 C 
ATOM     23  C   UNL     1       2.080   4.950  18.036  0.00  0.00    +0.000 C 
ATOM     24  C   UNL     1       3.509   4.694  17.554  0.00  0.00    +0.000 C 
ATOM     25  C   UNL     1       4.380   4.960  18.785  0.00  0.00    +0.000 C 
ATOM     26  C   UNL     1       3.393   5.231  19.932  0.00  0.00    +0.000 C 
ATOM     27  C   UNL     1       3.089   6.738  20.077  0.00  0.00    +0.000 C 
ATOM     28  N   UNL     1       2.116   4.603  19.487  0.00  0.00    +0.000 NA
BRANCH  28  29
ATOM     29  S   UNL     1       1.812   2.996  19.878  0.00  0.00    +0.000 S 
ATOM     30  C   UNL     1       0.708   2.491  18.574  0.00  0.00    +0.000 C 
ATOM     31  O   UNL     1       3.051   2.266  19.718  0.00  0.00    +0.000 OA
ATOM     32  O   UNL     1       1.084   2.965  21.129  0.00  0.00    +0.000 OA
ENDBRANCH  28  29
ENDBRANCH   5  21
TORSDOF 2
ENDMDL
MODEL 9
REMARK VINA RESULT:      -7.6      5.981      9.113
REMARK  Name = 
REMARK  4 active torsions:
REMARK  status: ('A' for Active; 'I' for Inactive)
REMARK    1  A    between atoms: C_1  and  N_2
REMARK    2  A    between atoms: C_5  and  C_6
REMARK    3  A    between atoms: N_13  and  S_14
REMARK    4  A    between atoms: S_14  and  C_15
REMARK                            x       y       z     vdW  Elec       q    Type
REMARK                         _______ _______ _______ _____ _____    ______ ____
ROOT
ATOM      1  C   UNL     1       0.762   9.620  22.639  0.00  0.00    +0.000 C 
ATOM      2  N   UNL     1       0.296   9.911  21.275  0.00  0.00    +0.000 N 
ATOM      3  C   UNL     1       0.375  11.366  20.980  0.00  0.00    +0.000 C 
ATOM      4  C   UNL     1      -0.703  11.883  20.109  0.00  0.00    +0.000 A 
ATOM      5  C   UNL     1      -1.557  12.953  20.287  0.00  0.00    +0.000 A 
ATOM      6  N   UNL     1      -2.419  12.992  19.217  0.00  0.00    +0.000 N 
ATOM      7  C   UNL     1      -2.161  11.926  18.392  0.00  0.00    +0.000 A 
ATOM      8  N   UNL     1      -2.861  11.621  17.284  0.00  0.00    +0.000 NA
ATOM      9  C   UNL     1      -2.413  10.485  16.698  0.00  0.00    +0.000 A 
ATOM     10  C   UNL     1      -1.339   9.711  17.133  0.00  0.00    +0.000 A 
ATOM     11  C   UNL     1      -0.611  10.084  18.281  0.00  0.00    +0.000 A 
ATOM     12  C   UNL     1      -1.087  11.234  18.919  0.00  0.00    +0.000 A 
ATOM     13  C   UNL     1       0.545   9.327  18.826  0.00  0.00    +0.000 A 
ATOM     14  C   UNL     1       1.429   8.752  17.886  0.00  0.00    +0.000 A 
ATOM     15  C   UNL     1       2.399   7.841  18.270  0.00  0.00    +0.000 A 
ATOM     16  F   UNL     1       3.249   7.350  17.358  0.00  0.00    +0.000 F 
ATOM     17  C   UNL     1       2.472   7.406  19.575  0.00  0.00    +0.000 A 
ATOM     18  C   UNL     1       1.672   8.019  20.534  0.00  0.00    +0.000 A 
ATOM     19  C   UNL     1       0.808   9.097  20.219  0.00  0.00    +0.000 A 
ATOM     20  H   UNL     1      -3.170  13.648  19.070  0.00  0.00    +0.000 HD
ENDROOT
BRANCH   5  21
ATOM     21  C   UNL     1      -1.712  13.851  21.366  0.00  0.00    +0.000 C 
ATOM     22  C   UNL     1      -2.453  13.436  22.415  0.00  0.00    +0.000 C 
ATOM     23  C   UNL     1      -2.803  14.367  23.557  0.00  0.00    +0.000 C 
ATOM     24  C   UNL     1      -1.582  14.526  24.463  0.00  0.00    +0.000 C 
ATOM     25  C   UNL     1      -0.736  15.604  23.779  0.00  0.00    +0.000 C 
ATOM     26  C   UNL     1      -1.579  16.089  22.589  0.00  0.00    +0.000 C 
ATOM     27  C   UNL     1      -1.249  15.304  21.301  0.00  0.00    +0.000 C 
ATOM     28  N   UNL     1      -2.979  15.715  22.942  0.00  0.00    +0.000 NA
BRANCH  28  29
ATOM     29  S   UNL     1      -3.929  16.808  23.796  0.00  0.00    +0.000 S 
ATOM     30  C   UNL     1      -4.777  17.675  22.490  0.00  0.00    +0.000 C 
ATOM     31  O   UNL     1      -4.913  16.047  24.534  0.00  0.00    +0.000 OA
ATOM     32  O   UNL     1      -3.051  17.743  24.467  0.00  0.00    +0.000 OA
ENDBRANCH  28  29
ENDBRANCH   5  21
TORSDOF 2
ENDMDL
