MODEL 1
REMARK VINA RESULT:      -7.6      0.000      0.000
REMARK  Name = 
REMARK  6 active torsions:
REMARK  status: ('A' for Active; 'I' for Inactive)
REMARK    1  A    between atoms: C_1  and  O_2
REMARK    2  A    between atoms: O_2  and  C_3
REMARK    3  A    between atoms: C_3  and  C_4
REMARK    4  A    between atoms: C_11  and  N_12
REMARK    5  A    between atoms: C_23  and  C_24
REMARK    6  A    between atoms: C_26  and  C_27
REMARK                            x       y       z     vdW  Elec       q    Type
REMARK                         _______ _______ _______ _____ _____    ______ ____
ROOT
ATOM      1  C   UNL     1       1.591   4.076  20.536  0.00  0.00    +0.000 C 
ATOM      2  C   UNL     1       2.161   3.351  21.762  0.00  0.00    +0.000 C 
ATOM      3  C   UNL     1       3.302   2.524  21.191  0.00  0.00    +0.000 C 
ATOM      4  C   UNL     1       3.870   3.398  20.074  0.00  0.00    +0.000 C 
ATOM      5  N   UNL     1       2.771   4.283  19.688  0.00  0.00    +0.000 N 
ATOM      6  C   UNL     1       3.012   5.492  19.067  0.00  0.00    +0.000 A 
ATOM      7  C   UNL     1       4.012   5.605  18.120  0.00  0.00    +0.000 A 
ATOM      8  C   UNL     1       4.230   6.837  17.541  0.00  0.00    +0.000 A 
ATOM      9  N   UNL     1       3.488   7.898  17.870  0.00  0.00    +0.000 NA
ATOM     10  C   UNL     1       2.516   7.734  18.782  0.00  0.00    +0.000 A 
ATOM     11  N   UNL     1       1.742   8.902  19.140  0.00  0.00    +0.000 N 
ATOM     12  N   UNL     1       1.916  10.090  18.477  0.00  0.00    +0.000 NA
ATOM     13  C   UNL     1       1.027  10.930  19.011  0.00  0.00    +0.000 A 
ATOM     14  C   UNL     1       0.903  12.319  18.504  0.00  0.00    +0.000 C 
ATOM     15  C   UNL     1       0.304  10.328  20.054  0.00  0.00    +0.000 A 
ATOM     16  C   UNL     1       0.781   9.036  20.140  0.00  0.00    +0.000 A 
ATOM     17  C   UNL     1       0.410   7.961  21.092  0.00  0.00    +0.000 C 
ATOM     18  N   UNL     1       2.249   6.553  19.382  0.00  0.00    +0.000 NA
ENDROOT
BRANCH   8  19
ATOM     19  N   UNL     1       5.279   6.977  16.614  0.00  0.00    +0.000 N 
ATOM     20  C   UNL     1       5.731   5.961  15.758  0.00  0.00    +0.000 A 
ATOM     21  C   UNL     1       4.832   5.116  15.115  0.00  0.00    +0.000 A 
ATOM     22  C   UNL     1       5.301   4.124  14.262  0.00  0.00    +0.000 A 
ATOM     23  C   UNL     1       6.667   4.007  14.060  0.00  0.00    +0.000 A 
ATOM     24  C   UNL     1       7.499   4.907  14.714  0.00  0.00    +0.000 A 
ATOM     25  N   UNL     1       7.064   5.887  15.540  0.00  0.00    +0.000 NA
ATOM     26  H   UNL     1       6.087   7.440  17.010  0.00  0.00    +0.000 HD
ENDBRANCH   8  19
BRANCH   1  27
ATOM     27  C   UNL     1       0.580   3.224  19.745  0.00  0.00    +0.000 C 
BRANCH  27  29
ATOM     28  C   UNL     1       1.486   1.786  18.128  0.00  0.00    +0.000 C 
ATOM     29  O   UNL     1       0.966   3.087  18.377  0.00  0.00    +0.000 OA
ENDBRANCH  27  29
ENDBRANCH   1  27
TORSDOF 3
ENDMDL
MODEL 2
REMARK VINA RESULT:      -7.0      1.936      5.497
REMARK  Name = 
REMARK  6 active torsions:
REMARK  status: ('A' for Active; 'I' for Inactive)
REMARK    1  A    between atoms: C_1  and  O_2
REMARK    2  A    between atoms: O_2  and  C_3
REMARK    3  A    between atoms: C_3  and  C_4
REMARK    4  A    between atoms: C_11  and  N_12
REMARK    5  A    between atoms: C_23  and  C_24
REMARK    6  A    between atoms: C_26  and  C_27
REMARK                            x       y       z     vdW  Elec       q    Type
REMARK                         _______ _______ _______ _____ _____    ______ ____
ROOT
ATOM      1  C   UNL     1       1.002   8.616  20.042  0.00  0.00    +0.000 C 
ATOM      2  C   UNL     1      -0.345   9.064  19.458  0.00  0.00    +0.000 C 
ATOM      3  C   UNL     1       0.047  10.050  18.369  0.00  0.00    +0.000 C 
ATOM      4  C   UNL     1       1.350   9.483  17.807  0.00  0.00    +0.000 C 
ATOM      5  N   UNL     1       1.903   8.663  18.884  0.00  0.00    +0.000 N 
ATOM      6  C   UNL     1       2.793   7.641  18.619  0.00  0.00    +0.000 A 
ATOM      7  C   UNL     1       3.764   7.795  17.648  0.00  0.00    +0.000 A 
ATOM      8  C   UNL     1       4.618   6.740  17.403  0.00  0.00    +0.000 A 
ATOM      9  N   UNL     1       4.526   5.600  18.093  0.00  0.00    +0.000 NA
ATOM     10  C   UNL     1       3.577   5.506  19.039  0.00  0.00    +0.000 A 
ATOM     11  N   UNL     1       3.480   4.253  19.756  0.00  0.00    +0.000 N 
ATOM     12  N   UNL     1       4.405   3.259  19.560  0.00  0.00    +0.000 NA
ATOM     13  C   UNL     1       4.059   2.280  20.397  0.00  0.00    +0.000 A 
ATOM     14  C   UNL     1       4.871   1.041  20.487  0.00  0.00    +0.000 C 
ATOM     15  C   UNL     1       2.887   2.593  21.107  0.00  0.00    +0.000 A 
ATOM     16  C   UNL     1       2.516   3.849  20.677  0.00  0.00    +0.000 A 
ATOM     17  C   UNL     1       1.332   4.659  21.056  0.00  0.00    +0.000 C 
ATOM     18  N   UNL     1       2.713   6.504  19.330  0.00  0.00    +0.000 NA
ENDROOT
BRANCH   8  19
ATOM     19  N   UNL     1       5.577   6.864  16.382  0.00  0.00    +0.000 N 
ATOM     20  C   UNL     1       5.903   5.855  15.463  0.00  0.00    +0.000 A 
ATOM     21  C   UNL     1       4.911   5.063  14.891  0.00  0.00    +0.000 A 
ATOM     22  C   UNL     1       5.255   4.076  13.974  0.00  0.00    +0.000 A 
ATOM     23  C   UNL     1       6.589   3.912  13.637  0.00  0.00    +0.000 A 
ATOM     24  C   UNL     1       7.516   4.762  14.228  0.00  0.00    +0.000 A 
ATOM     25  N   UNL     1       7.204   5.735  15.114  0.00  0.00    +0.000 NA
ATOM     26  H   UNL     1       6.438   7.285  16.707  0.00  0.00    +0.000 HD
ENDBRANCH   8  19
BRANCH   1  27
ATOM     27  C   UNL     1       1.549   9.581  21.110  0.00  0.00    +0.000 C 
BRANCH  27  29
ATOM     28  C   UNL     1       0.242   9.477  23.055  0.00  0.00    +0.000 C 
ATOM     29  O   UNL     1       0.496  10.195  21.853  0.00  0.00    +0.000 OA
ENDBRANCH  27  29
ENDBRANCH   1  27
TORSDOF 3
ENDMDL
MODEL 3
REMARK VINA RESULT:      -7.0      1.210      1.474
REMARK  Name = 
REMARK  6 active torsions:
REMARK  status: ('A' for Active; 'I' for Inactive)
REMARK    1  A    between atoms: C_1  and  O_2
REMARK    2  A    between atoms: O_2  and  C_3
REMARK    3  A    between atoms: C_3  and  C_4
REMARK    4  A    between atoms: C_11  and  N_12
REMARK    5  A    between atoms: C_23  and  C_24
REMARK    6  A    between atoms: C_26  and  C_27
REMARK                            x       y       z     vdW  Elec       q    Type
REMARK                         _______ _______ _______ _____ _____    ______ ____
ROOT
ATOM      1  C   UNL     1       2.891   3.062  20.028  0.00  0.00    +0.000 C 
ATOM      2  C   UNL     1       3.701   2.367  21.130  0.00  0.00    +0.000 C 
ATOM      3  C   UNL     1       4.816   1.668  20.369  0.00  0.00    +0.000 C 
ATOM      4  C   UNL     1       5.129   2.619  19.213  0.00  0.00    +0.000 C 
ATOM      5  N   UNL     1       3.908   3.402  19.025  0.00  0.00    +0.000 N 
ATOM      6  C   UNL     1       3.941   4.642  18.421  0.00  0.00    +0.000 A 
ATOM      7  C   UNL     1       4.774   4.872  17.342  0.00  0.00    +0.000 A 
ATOM      8  C   UNL     1       4.789   6.133  16.784  0.00  0.00    +0.000 A 
ATOM      9  N   UNL     1       4.010   7.109  17.256  0.00  0.00    +0.000 NA
ATOM     10  C   UNL     1       3.203   6.831  18.294  0.00  0.00    +0.000 A 
ATOM     11  N   UNL     1       2.387   7.911  18.804  0.00  0.00    +0.000 N 
ATOM     12  N   UNL     1       2.350   9.125  18.167  0.00  0.00    +0.000 NA
ATOM     13  C   UNL     1       1.477   9.862  18.855  0.00  0.00    +0.000 A 
ATOM     14  C   UNL     1       1.150  11.244  18.423  0.00  0.00    +0.000 C 
ATOM     15  C   UNL     1       0.975   9.169  19.970  0.00  0.00    +0.000 A 
ATOM     16  C   UNL     1       1.577   7.929  19.937  0.00  0.00    +0.000 A 
ATOM     17  C   UNL     1       1.452   6.801  20.893  0.00  0.00    +0.000 C 
ATOM     18  N   UNL     1       3.139   5.616  18.883  0.00  0.00    +0.000 NA
ENDROOT
BRANCH   8  19
ATOM     19  N   UNL     1       5.671   6.395  15.719  0.00  0.00    +0.000 N 
ATOM     20  C   UNL     1       6.014   5.473  14.719  0.00  0.00    +0.000 A 
ATOM     21  C   UNL     1       5.052   4.641  14.155  0.00  0.00    +0.000 A 
ATOM     22  C   UNL     1       5.412   3.742  13.157  0.00  0.00    +0.000 A 
ATOM     23  C   UNL     1       6.731   3.705  12.733  0.00  0.00    +0.000 A 
ATOM     24  C   UNL     1       7.626   4.588  13.325  0.00  0.00    +0.000 A 
ATOM     25  N   UNL     1       7.296   5.478  14.290  0.00  0.00    +0.000 NA
ATOM     26  H   UNL     1       6.516   6.862  16.022  0.00  0.00    +0.000 HD
ENDBRANCH   8  19
BRANCH   1  27
ATOM     27  C   UNL     1       1.857   2.134  19.362  0.00  0.00    +0.000 C 
BRANCH  27  29
ATOM     28  C   UNL     1       0.332   3.755  20.103  0.00  0.00    +0.000 C 
ATOM     29  O   UNL     1       0.642   2.826  19.071  0.00  0.00    +0.000 OA
ENDBRANCH  27  29
ENDBRANCH   1  27
TORSDOF 3
ENDMDL
MODEL 4
REMARK VINA RESULT:      -6.9      9.193     11.355
REMARK  Name = 
REMARK  6 active torsions:
REMARK  status: ('A' for Active; 'I' for Inactive)
REMARK    1  A    between atoms: C_1  and  O_2
REMARK    2  A    between atoms: O_2  and  C_3
REMARK    3  A    between atoms: C_3  and  C_4
REMARK    4  A    between atoms: C_11  and  N_12
REMARK    5  A    between atoms: C_23  and  C_24
REMARK    6  A    between atoms: C_26  and  C_27
REMARK                            x       y       z     vdW  Elec       q    Type
REMARK                         _______ _______ _______ _____ _____    ______ ____
ROOT
ATOM      1  C   UNL     1      10.618  13.438  18.227  0.00  0.00    +0.000 C 
ATOM      2  C   UNL     1      11.077  12.101  17.632  0.00  0.00    +0.000 C 
ATOM      3  C   UNL     1      11.960  11.508  18.719  0.00  0.00    +0.000 C 
ATOM      4  C   UNL     1      11.297  11.958  20.021  0.00  0.00    +0.000 C 
ATOM      5  N   UNL     1      10.538  13.156  19.666  0.00  0.00    +0.000 N 
ATOM      6  C   UNL     1       9.462  13.572  20.425  0.00  0.00    +0.000 A 
ATOM      7  C   UNL     1       9.501  13.474  21.804  0.00  0.00    +0.000 A 
ATOM      8  C   UNL     1       8.395  13.882  22.519  0.00  0.00    +0.000 A 
ATOM      9  N   UNL     1       7.315  14.375  21.906  0.00  0.00    +0.000 NA
ATOM     10  C   UNL     1       7.334  14.467  20.566  0.00  0.00    +0.000 A 
ATOM     11  N   UNL     1       6.144  14.980  19.923  0.00  0.00    +0.000 N 
ATOM     12  N   UNL     1       5.100  15.470  20.665  0.00  0.00    +0.000 NA
ATOM     13  C   UNL     1       4.203  15.902  19.777  0.00  0.00    +0.000 A 
ATOM     14  C   UNL     1       2.941  16.539  20.229  0.00  0.00    +0.000 C 
ATOM     15  C   UNL     1       4.618  15.658  18.457  0.00  0.00    +0.000 A 
ATOM     16  C   UNL     1       5.853  15.053  18.562  0.00  0.00    +0.000 A 
ATOM     17  C   UNL     1       6.738  14.536  17.490  0.00  0.00    +0.000 C 
ATOM     18  N   UNL     1       8.387  14.089  19.808  0.00  0.00    +0.000 NA
ENDROOT
BRANCH   8  19
ATOM     19  N   UNL     1       8.400  13.740  23.919  0.00  0.00    +0.000 N 
ATOM     20  C   UNL     1       7.434  13.038  24.656  0.00  0.00    +0.000 A 
ATOM     21  C   UNL     1       6.935  11.821  24.201  0.00  0.00    +0.000 A 
ATOM     22  C   UNL     1       5.986  11.137  24.952  0.00  0.00    +0.000 A 
ATOM     23  C   UNL     1       5.566  11.681  26.155  0.00  0.00    +0.000 A 
ATOM     24  C   UNL     1       6.134  12.885  26.555  0.00  0.00    +0.000 A 
ATOM     25  N   UNL     1       7.066  13.563  25.846  0.00  0.00    +0.000 NA
ATOM     26  H   UNL     1       8.591  14.611  24.397  0.00  0.00    +0.000 HD
ENDBRANCH   8  19
BRANCH   1  27
ATOM     27  C   UNL     1      11.637  14.574  18.021  0.00  0.00    +0.000 C 
BRANCH  27  29
ATOM     28  C   UNL     1      10.128  16.206  17.273  0.00  0.00    +0.000 C 
ATOM     29  O   UNL     1      11.061  15.853  18.288  0.00  0.00    +0.000 OA
ENDBRANCH  27  29
ENDBRANCH   1  27
TORSDOF 3
ENDMDL
MODEL 5
REMARK VINA RESULT:      -6.8      7.236     11.205
REMARK  Name = 
REMARK  6 active torsions:
REMARK  status: ('A' for Active; 'I' for Inactive)
REMARK    1  A    between atoms: C_1  and  O_2
REMARK    2  A    between atoms: O_2  and  C_3
REMARK    3  A    between atoms: C_3  and  C_4
REMARK    4  A    between atoms: C_11  and  N_12
REMARK    5  A    between atoms: C_23  and  C_24
REMARK    6  A    between atoms: C_26  and  C_27
REMARK                            x       y       z     vdW  Elec       q    Type
REMARK                         _______ _______ _______ _____ _____    ______ ____
ROOT
ATOM      1  C   UNL     1      -6.987  14.161  22.063  0.00  0.00    +0.000 C 
ATOM      2  C   UNL     1      -7.894  14.503  23.253  0.00  0.00    +0.000 C 
ATOM      3  C   UNL     1      -7.646  13.364  24.230  0.00  0.00    +0.000 C 
ATOM      4  C   UNL     1      -6.167  13.028  24.041  0.00  0.00    +0.000 C 
ATOM      5  N   UNL     1      -5.842  13.493  22.693  0.00  0.00    +0.000 N 
ATOM      6  C   UNL     1      -4.543  13.793  22.335  0.00  0.00    +0.000 A 
ATOM      7  C   UNL     1      -3.495  13.015  22.790  0.00  0.00    +0.000 A 
ATOM      8  C   UNL     1      -2.213  13.365  22.424  0.00  0.00    +0.000 A 
ATOM      9  N   UNL     1      -1.981  14.418  21.635  0.00  0.00    +0.000 NA
ATOM     10  C   UNL     1      -3.034  15.131  21.202  0.00  0.00    +0.000 A 
ATOM     11  N   UNL     1      -2.756  16.281  20.371  0.00  0.00    +0.000 N 
ATOM     12  N   UNL     1      -1.480  16.547  19.942  0.00  0.00    +0.000 NA
ATOM     13  C   UNL     1      -1.582  17.627  19.167  0.00  0.00    +0.000 A 
ATOM     14  C   UNL     1      -0.385  18.185  18.490  0.00  0.00    +0.000 C 
ATOM     15  C   UNL     1      -2.900  18.111  19.119  0.00  0.00    +0.000 A 
ATOM     16  C   UNL     1      -3.640  17.253  19.906  0.00  0.00    +0.000 A 
ATOM     17  C   UNL     1      -5.081  17.305  20.252  0.00  0.00    +0.000 C 
ATOM     18  N   UNL     1      -4.314  14.838  21.522  0.00  0.00    +0.000 NA
ENDROOT
BRANCH   8  19
ATOM     19  N   UNL     1      -1.134  12.614  22.923  0.00  0.00    +0.000 N 
ATOM     20  C   UNL     1      -0.740  11.358  22.437  0.00  0.00    +0.000 A 
ATOM     21  C   UNL     1      -0.721  11.096  21.070  0.00  0.00    +0.000 A 
ATOM     22  C   UNL     1      -0.317   9.848  20.609  0.00  0.00    +0.000 A 
ATOM     23  C   UNL     1       0.077   8.890  21.530  0.00  0.00    +0.000 A 
ATOM     24  C   UNL     1       0.059   9.238  22.875  0.00  0.00    +0.000 A 
ATOM     25  N   UNL     1      -0.321  10.449  23.346  0.00  0.00    +0.000 NA
ATOM     26  H   UNL     1      -1.121  12.580  23.935  0.00  0.00    +0.000 HD
ENDBRANCH   8  19
BRANCH   1  27
ATOM     27  C   UNL     1      -7.633  13.171  21.075  0.00  0.00    +0.000 C 
BRANCH  27  29
ATOM     28  C   UNL     1      -7.125  11.262  19.811  0.00  0.00    +0.000 C 
ATOM     29  O   UNL     1      -6.943  11.921  21.059  0.00  0.00    +0.000 OA
ENDBRANCH  27  29
ENDBRANCH   1  27
TORSDOF 3
ENDMDL
MODEL 6
REMARK VINA RESULT:      -6.7      6.122      9.842
REMARK  Name = 
REMARK  6 active torsions:
REMARK  status: ('A' for Active; 'I' for Inactive)
REMARK    1  A    between atoms: C_1  and  O_2
REMARK    2  A    between atoms: O_2  and  C_3
REMARK    3  A    between atoms: C_3  and  C_4
REMARK    4  A    between atoms: C_11  and  N_12
REMARK    5  A    between atoms: C_23  and  C_24
REMARK    6  A    between atoms: C_26  and  C_27
REMARK                            x       y       z     vdW  Elec       q    Type
REMARK                         _______ _______ _______ _____ _____    ______ ____
ROOT
ATOM      1  C   UNL     1      -0.731  10.542  19.755  0.00  0.00    +0.000 C 
ATOM      2  C   UNL     1       0.263   9.388  19.938  0.00  0.00    +0.000 C 
ATOM      3  C   UNL     1       1.367   9.704  18.942  0.00  0.00    +0.000 C 
ATOM      4  C   UNL     1       1.448  11.231  18.951  0.00  0.00    +0.000 C 
ATOM      5  N   UNL     1       0.132  11.678  19.407  0.00  0.00    +0.000 N 
ATOM      6  C   UNL     1      -0.040  12.920  19.982  0.00  0.00    +0.000 A 
ATOM      7  C   UNL     1       0.646  14.017  19.497  0.00  0.00    +0.000 A 
ATOM      8  C   UNL     1       0.458  15.234  20.116  0.00  0.00    +0.000 A 
ATOM      9  N   UNL     1      -0.377  15.363  21.151  0.00  0.00    +0.000 NA
ATOM     10  C   UNL     1      -1.035  14.272  21.575  0.00  0.00    +0.000 A 
ATOM     11  N   UNL     1      -1.914  14.430  22.712  0.00  0.00    +0.000 N 
ATOM     12  N   UNL     1      -2.157  15.671  23.245  0.00  0.00    +0.000 NA
ATOM     13  C   UNL     1      -3.034  15.471  24.230  0.00  0.00    +0.000 A 
ATOM     14  C   UNL     1      -3.560  16.615  25.015  0.00  0.00    +0.000 C 
ATOM     15  C   UNL     1      -3.335  14.108  24.389  0.00  0.00    +0.000 A 
ATOM     16  C   UNL     1      -2.601  13.450  23.425  0.00  0.00    +0.000 A 
ATOM     17  C   UNL     1      -2.496  11.994  23.157  0.00  0.00    +0.000 C 
ATOM     18  N   UNL     1      -0.898  13.052  21.008  0.00  0.00    +0.000 NA
ENDROOT
BRANCH   8  19
ATOM     19  N   UNL     1       1.190  16.348  19.665  0.00  0.00    +0.000 N 
ATOM     20  C   UNL     1       0.873  17.107  18.529  0.00  0.00    +0.000 A 
ATOM     21  C   UNL     1      -0.447  17.439  18.238  0.00  0.00    +0.000 A 
ATOM     22  C   UNL     1      -0.738  18.202  17.113  0.00  0.00    +0.000 A 
ATOM     23  C   UNL     1       0.305  18.631  16.307  0.00  0.00    +0.000 A 
ATOM     24  C   UNL     1       1.597  18.283  16.681  0.00  0.00    +0.000 A 
ATOM     25  N   UNL     1       1.905  17.551  17.777  0.00  0.00    +0.000 NA
ATOM     26  H   UNL     1       2.189  16.181  19.666  0.00  0.00    +0.000 HD
ENDBRANCH   8  19
BRANCH   1  27
ATOM     27  C   UNL     1      -1.714  10.316  18.590  0.00  0.00    +0.000 C 
BRANCH  27  29
ATOM     28  C   UNL     1      -3.231  11.427  17.189  0.00  0.00    +0.000 C 
ATOM     29  O   UNL     1      -2.666  11.375  18.494  0.00  0.00    +0.000 OA
ENDBRANCH  27  29
ENDBRANCH   1  27
TORSDOF 3
ENDMDL
MODEL 7
REMARK VINA RESULT:      -6.7      6.540     11.670
REMARK  Name = 
REMARK  6 active torsions:
REMARK  status: ('A' for Active; 'I' for Inactive)
REMARK    1  A    between atoms: C_1  and  O_2
REMARK    2  A    between atoms: O_2  and  C_3
REMARK    3  A    between atoms: C_3  and  C_4
REMARK    4  A    between atoms: C_11  and  N_12
REMARK    5  A    between atoms: C_23  and  C_24
REMARK    6  A    between atoms: C_26  and  C_27
REMARK                            x       y       z     vdW  Elec       q    Type
REMARK                         _______ _______ _______ _____ _____    ______ ____
ROOT
ATOM      1  C   UNL     1      -6.461  11.715  18.941  0.00  0.00    +0.000 C 
ATOM      2  C   UNL     1      -7.446  12.396  17.982  0.00  0.00    +0.000 C 
ATOM      3  C   UNL     1      -7.862  13.654  18.727  0.00  0.00    +0.000 C 
ATOM      4  C   UNL     1      -6.599  14.073  19.479  0.00  0.00    +0.000 C 
ATOM      5  N   UNL     1      -5.815  12.847  19.618  0.00  0.00    +0.000 N 
ATOM      6  C   UNL     1      -4.449  12.889  19.810  0.00  0.00    +0.000 A 
ATOM      7  C   UNL     1      -3.887  13.858  20.621  0.00  0.00    +0.000 A 
ATOM      8  C   UNL     1      -2.516  13.874  20.767  0.00  0.00    +0.000 A 
ATOM      9  N   UNL     1      -1.743  12.972  20.156  0.00  0.00    +0.000 NA
ATOM     10  C   UNL     1      -2.338  12.040  19.393  0.00  0.00    +0.000 A 
ATOM     11  N   UNL     1      -1.479  11.090  18.722  0.00  0.00    +0.000 N 
ATOM     12  N   UNL     1      -0.129  11.070  18.964  0.00  0.00    +0.000 NA
ATOM     13  C   UNL     1       0.350  10.059  18.237  0.00  0.00    +0.000 A 
ATOM     14  C   UNL     1       1.792   9.712  18.282  0.00  0.00    +0.000 C 
ATOM     15  C   UNL     1      -0.659   9.442  17.476  0.00  0.00    +0.000 A 
ATOM     16  C   UNL     1      -1.821  10.120  17.781  0.00  0.00    +0.000 A 
ATOM     17  C   UNL     1      -3.189   9.928  17.240  0.00  0.00    +0.000 C 
ATOM     18  N   UNL     1      -3.675  11.967  19.213  0.00  0.00    +0.000 NA
ENDROOT
BRANCH   8  19
ATOM     19  N   UNL     1      -1.927  14.886  21.547  0.00  0.00    +0.000 N 
ATOM     20  C   UNL     1      -2.331  15.232  22.846  0.00  0.00    +0.000 A 
ATOM     21  C   UNL     1      -2.667  14.251  23.774  0.00  0.00    +0.000 A 
ATOM     22  C   UNL     1      -3.055  14.616  25.058  0.00  0.00    +0.000 A 
ATOM     23  C   UNL     1      -3.083  15.961  25.392  0.00  0.00    +0.000 A 
ATOM     24  C   UNL     1      -2.705  16.878  24.419  0.00  0.00    +0.000 A 
ATOM     25  N   UNL     1      -2.315  16.546  23.166  0.00  0.00    +0.000 NA
ATOM     26  H   UNL     1      -1.775  15.740  21.025  0.00  0.00    +0.000 HD
ENDBRANCH   8  19
BRANCH   1  27
ATOM     27  C   UNL     1      -7.156  10.853  20.011  0.00  0.00    +0.000 C 
BRANCH  27  29
ATOM     28  C   UNL     1      -7.913  11.555  22.118  0.00  0.00    +0.000 C 
ATOM     29  O   UNL     1      -6.770  11.241  21.330  0.00  0.00    +0.000 OA
ENDBRANCH  27  29
ENDBRANCH   1  27
TORSDOF 3
ENDMDL
MODEL 8
REMARK VINA RESULT:      -6.7      5.520      9.310
REMARK  Name = 
REMARK  6 active torsions:
REMARK  status: ('A' for Active; 'I' for Inactive)
REMARK    1  A    between atoms: C_1  and  O_2
REMARK    2  A    between atoms: O_2  and  C_3
REMARK    3  A    between atoms: C_3  and  C_4
REMARK    4  A    between atoms: C_11  and  N_12
REMARK    5  A    between atoms: C_23  and  C_24
REMARK    6  A    between atoms: C_26  and  C_27
REMARK                            x       y       z     vdW  Elec       q    Type
REMARK                         _______ _______ _______ _____ _____    ______ ____
ROOT
ATOM      1  C   UNL     1       0.055  10.142  18.932  0.00  0.00    +0.000 C 
ATOM      2  C   UNL     1       1.093   9.012  18.915  0.00  0.00    +0.000 C 
ATOM      3  C   UNL     1       2.088   9.455  17.855  0.00  0.00    +0.000 C 
ATOM      4  C   UNL     1       2.128  10.976  17.996  0.00  0.00    +0.000 C 
ATOM      5  N   UNL     1       0.850  11.333  18.610  0.00  0.00    +0.000 N 
ATOM      6  C   UNL     1       0.699  12.513  19.311  0.00  0.00    +0.000 A 
ATOM      7  C   UNL     1       1.306  13.673  18.866  0.00  0.00    +0.000 A 
ATOM      8  C   UNL     1       1.145  14.823  19.609  0.00  0.00    +0.000 A 
ATOM      9  N   UNL     1       0.410  14.830  20.725  0.00  0.00    +0.000 NA
ATOM     10  C   UNL     1      -0.175  13.682  21.106  0.00  0.00    +0.000 A 
ATOM     11  N   UNL     1      -0.945  13.708  22.330  0.00  0.00    +0.000 N 
ATOM     12  N   UNL     1      -1.169  14.887  22.994  0.00  0.00    +0.000 NA
ATOM     13  C   UNL     1      -1.942  14.570  24.034  0.00  0.00    +0.000 A 
ATOM     14  C   UNL     1      -2.422  15.620  24.966  0.00  0.00    +0.000 C 
ATOM     15  C   UNL     1      -2.190  13.187  24.095  0.00  0.00    +0.000 A 
ATOM     16  C   UNL     1      -1.534  12.644  23.010  0.00  0.00    +0.000 A 
ATOM     17  C   UNL     1      -1.415  11.223  22.602  0.00  0.00    +0.000 C 
ATOM     18  N   UNL     1      -0.060  12.523  20.420  0.00  0.00    +0.000 NA
ENDROOT
BRANCH   8  19
ATOM     19  N   UNL     1       1.801  15.997  19.196  0.00  0.00    +0.000 N 
ATOM     20  C   UNL     1       1.324  16.874  18.210  0.00  0.00    +0.000 A 
ATOM     21  C   UNL     1      -0.025  17.207  18.142  0.00  0.00    +0.000 A 
ATOM     22  C   UNL     1      -0.474  18.087  17.164  0.00  0.00    +0.000 A 
ATOM     23  C   UNL     1       0.445  18.629  16.280  0.00  0.00    +0.000 A 
ATOM     24  C   UNL     1       1.779  18.271  16.431  0.00  0.00    +0.000 A 
ATOM     25  N   UNL     1       2.240  17.425  17.382  0.00  0.00    +0.000 NA
ATOM     26  H   UNL     1       2.791  15.855  19.042  0.00  0.00    +0.000 HD
ENDBRANCH   8  19
BRANCH   1  27
ATOM     27  C   UNL     1      -1.028   9.985  17.848  0.00  0.00    +0.000 C 
BRANCH  27  29
ATOM     28  C   UNL     1      -3.010  11.124  18.371  0.00  0.00    +0.000 C 
ATOM     29  O   UNL     1      -1.773  11.190  17.671  0.00  0.00    +0.000 OA
ENDBRANCH  27  29
ENDBRANCH   1  27
TORSDOF 3
ENDMDL
MODEL 9
REMARK VINA RESULT:      -6.6      8.319     10.271
REMARK  Name = 
REMARK  6 active torsions:
REMARK  status: ('A' for Active; 'I' for Inactive)
REMARK    1  A    between atoms: C_1  and  O_2
REMARK    2  A    between atoms: O_2  and  C_3
REMARK    3  A    between atoms: C_3  and  C_4
REMARK    4  A    between atoms: C_11  and  N_12
REMARK    5  A    between atoms: C_23  and  C_24
REMARK    6  A    between atoms: C_26  and  C_27
REMARK                            x       y       z     vdW  Elec       q    Type
REMARK                         _______ _______ _______ _____ _____    ______ ____
ROOT
ATOM      1  C   UNL     1      -4.582  13.863  22.835  0.00  0.00    +0.000 C 
ATOM      2  C   UNL     1      -5.102  15.258  23.210  0.00  0.00    +0.000 C 
ATOM      3  C   UNL     1      -3.960  15.863  24.011  0.00  0.00    +0.000 C 
ATOM      4  C   UNL     1      -2.703  15.305  23.343  0.00  0.00    +0.000 C 
ATOM      5  N   UNL     1      -3.136  14.071  22.689  0.00  0.00    +0.000 N 
ATOM      6  C   UNL     1      -2.434  13.542  21.625  0.00  0.00    +0.000 A 
ATOM      7  C   UNL     1      -1.052  13.578  21.612  0.00  0.00    +0.000 A 
ATOM      8  C   UNL     1      -0.394  13.056  20.519  0.00  0.00    +0.000 A 
ATOM      9  N   UNL     1      -1.066  12.513  19.499  0.00  0.00    +0.000 NA
ATOM     10  C   UNL     1      -2.407  12.485  19.567  0.00  0.00    +0.000 A 
ATOM     11  N   UNL     1      -3.114  11.915  18.441  0.00  0.00    +0.000 N 
ATOM     12  N   UNL     1      -2.431  11.316  17.414  0.00  0.00    +0.000 NA
ATOM     13  C   UNL     1      -3.367  10.859  16.581  0.00  0.00    +0.000 A 
ATOM     14  C   UNL     1      -2.989  10.109  15.358  0.00  0.00    +0.000 C 
ATOM     15  C   UNL     1      -4.660  11.195  17.018  0.00  0.00    +0.000 A 
ATOM     16  C   UNL     1      -4.486  11.885  18.199  0.00  0.00    +0.000 A 
ATOM     17  C   UNL     1      -5.503  12.515  19.076  0.00  0.00    +0.000 C 
ATOM     18  N   UNL     1      -3.111  12.975  20.612  0.00  0.00    +0.000 NA
ENDROOT
BRANCH   8  19
ATOM     19  N   UNL     1       1.010  13.133  20.469  0.00  0.00    +0.000 N 
ATOM     20  C   UNL     1       1.736  13.937  19.577  0.00  0.00    +0.000 A 
ATOM     21  C   UNL     1       1.322  15.234  19.287  0.00  0.00    +0.000 A 
ATOM     22  C   UNL     1       2.063  16.018  18.409  0.00  0.00    +0.000 A 
ATOM     23  C   UNL     1       3.215  15.488  17.849  0.00  0.00    +0.000 A 
ATOM     24  C   UNL     1       3.578  14.197  18.212  0.00  0.00    +0.000 A 
ATOM     25  N   UNL     1       2.878  13.420  19.072  0.00  0.00    +0.000 NA
ATOM     26  H   UNL     1       1.450  12.222  20.504  0.00  0.00    +0.000 HD
ENDBRANCH   8  19
BRANCH   1  27
ATOM     27  C   UNL     1      -4.803  12.817  23.945  0.00  0.00    +0.000 C 
BRANCH  27  29
ATOM     28  C   UNL     1      -7.090  12.356  23.700  0.00  0.00    +0.000 C 
ATOM     29  O   UNL     1      -6.097  12.942  24.534  0.00  0.00    +0.000 OA
ENDBRANCH  27  29
ENDBRANCH   1  27
TORSDOF 3
ENDMDL
