MODEL 1
REMARK VINA RESULT:      -7.7      0.000      0.000
REMARK  Name = 
REMARK  6 active torsions:
REMARK  status: ('A' for Active; 'I' for Inactive)
REMARK    1  A    between atoms: C_1  and  O_2
REMARK    2  A    between atoms: O_2  and  C_3
REMARK    3  A    between atoms: C_6  and  C_7
REMARK    4  A    between atoms: C_7  and  N_8
REMARK    5  A    between atoms: N_8  and  C_9
REMARK    6  A    between atoms: C_14  and  C_15
REMARK                            x       y       z     vdW  Elec       q    Type
REMARK                         _______ _______ _______ _____ _____    ______ ____
ROOT
ATOM      1  C   UNL     1       2.653   4.776  19.311  0.00  0.00    +0.000 A 
ATOM      2  N   UNL     1       1.386   4.314  19.480  0.00  0.00    +0.000 NA
ATOM      3  C   UNL     1       1.056   3.109  18.980  0.00  0.00    +0.000 A 
ATOM      4  C   UNL     1       1.915   2.342  18.226  0.00  0.00    +0.000 A 
ATOM      5  C   UNL     1       3.207   2.816  18.034  0.00  0.00    +0.000 A 
ATOM      6  C   UNL     1       3.629   3.990  18.671  0.00  0.00    +0.000 A 
ENDROOT
BRANCH   6   7
ATOM      7  C   UNL     1       5.060   4.395  18.621  0.00  0.00    +0.000 C 
ATOM      8  O   UNL     1       5.824   3.982  19.497  0.00  0.00    +0.000 OA
ATOM      9  N   UNL     1       5.550   5.183  17.571  0.00  0.00    +0.000 N 
ATOM     10  C   UNL     1       4.826   5.766  16.431  0.00  0.00    +0.000 C 
ATOM     11  C   UNL     1       5.405   5.298  15.094  0.00  0.00    +0.000 C 
ATOM     12  O   UNL     1       6.822   5.503  15.026  0.00  0.00    +0.000 OA
ATOM     13  C   UNL     1       7.485   4.826  16.107  0.00  0.00    +0.000 C 
ATOM     14  C   UNL     1       7.003   5.370  17.457  0.00  0.00    +0.000 C 
ENDBRANCH   6   7
BRANCH   1  15
ATOM     15  N   UNL     1       2.921   6.054  19.793  0.00  0.00    +0.000 N 
ATOM     16  H   UNL     1       2.693   6.150  20.774  0.00  0.00    +0.000 HD
BRANCH  15  17
ATOM     17  C   UNL     1       2.586   7.197  18.961  0.00  0.00    +0.000 C 
BRANCH  17  21
ATOM     18  C   UNL     1       0.080  10.004  21.128  0.00  0.00    +0.000 A 
ATOM     19  C   UNL     1       0.449  10.261  19.807  0.00  0.00    +0.000 A 
ATOM     20  C   UNL     1       1.252   9.356  19.106  0.00  0.00    +0.000 A 
ATOM     21  C   UNL     1       1.722   8.187  19.723  0.00  0.00    +0.000 A 
ATOM     22  C   UNL     1       1.384   7.964  21.065  0.00  0.00    +0.000 A 
ATOM     23  C   UNL     1       0.565   8.862  21.762  0.00  0.00    +0.000 A 
BRANCH  18  25
ATOM     24  C   UNL     1      -1.056  10.727  23.070  0.00  0.00    +0.000 C 
ATOM     25  O   UNL     1      -0.720  10.954  21.707  0.00  0.00    +0.000 OA
ENDBRANCH  18  25
ENDBRANCH  17  21
ENDBRANCH  15  17
ENDBRANCH   1  15
TORSDOF 5
ENDMDL
MODEL 2
REMARK VINA RESULT:      -7.7      1.856      3.908
REMARK  Name = 
REMARK  6 active torsions:
REMARK  status: ('A' for Active; 'I' for Inactive)
REMARK    1  A    between atoms: C_1  and  O_2
REMARK    2  A    between atoms: O_2  and  C_3
REMARK    3  A    between atoms: C_6  and  C_7
REMARK    4  A    between atoms: C_7  and  N_8
REMARK    5  A    between atoms: N_8  and  C_9
REMARK    6  A    between atoms: C_14  and  C_15
REMARK                            x       y       z     vdW  Elec       q    Type
REMARK                         _______ _______ _______ _____ _____    ______ ____
ROOT
ATOM      1  C   UNL     1       5.058   5.871  16.818  0.00  0.00    +0.000 A 
ATOM      2  N   UNL     1       5.138   6.309  15.535  0.00  0.00    +0.000 NA
ATOM      3  C   UNL     1       5.800   5.564  14.629  0.00  0.00    +0.000 A 
ATOM      4  C   UNL     1       6.479   4.410  14.949  0.00  0.00    +0.000 A 
ATOM      5  C   UNL     1       6.415   3.966  16.264  0.00  0.00    +0.000 A 
ATOM      6  C   UNL     1       5.608   4.632  17.195  0.00  0.00    +0.000 A 
ENDROOT
BRANCH   6   7
ATOM      7  C   UNL     1       5.389   4.050  18.548  0.00  0.00    +0.000 C 
ATOM      8  O   UNL     1       6.061   4.474  19.491  0.00  0.00    +0.000 OA
ATOM      9  N   UNL     1       4.400   3.079  18.764  0.00  0.00    +0.000 N 
ATOM     10  C   UNL     1       3.489   2.450  17.795  0.00  0.00    +0.000 C 
ATOM     11  C   UNL     1       2.023   2.668  18.174  0.00  0.00    +0.000 C 
ATOM     12  O   UNL     1       1.760   2.282  19.529  0.00  0.00    +0.000 OA
ATOM     13  C   UNL     1       2.609   3.004  20.436  0.00  0.00    +0.000 C 
ATOM     14  C   UNL     1       4.084   2.701  20.148  0.00  0.00    +0.000 C 
ENDBRANCH   6   7
BRANCH   1  15
ATOM     15  N   UNL     1       4.418   6.711  17.726  0.00  0.00    +0.000 N 
ATOM     16  H   UNL     1       5.038   7.026  18.460  0.00  0.00    +0.000 HD
BRANCH  15  17
ATOM     17  C   UNL     1       3.068   6.381  18.148  0.00  0.00    +0.000 C 
BRANCH  17  21
ATOM     18  C   UNL     1       0.945   9.897  19.558  0.00  0.00    +0.000 A 
ATOM     19  C   UNL     1       1.433   9.844  18.252  0.00  0.00    +0.000 A 
ATOM     20  C   UNL     1       2.114   8.711  17.795  0.00  0.00    +0.000 A 
ATOM     21  C   UNL     1       2.339   7.617  18.645  0.00  0.00    +0.000 A 
ATOM     22  C   UNL     1       1.885   7.703  19.969  0.00  0.00    +0.000 A 
ATOM     23  C   UNL     1       1.189   8.831  20.422  0.00  0.00    +0.000 A 
BRANCH  18  25
ATOM     24  C   UNL     1       1.032  11.994  20.646  0.00  0.00    +0.000 C 
ATOM     25  O   UNL     1       0.283  11.050  19.889  0.00  0.00    +0.000 OA
ENDBRANCH  18  25
ENDBRANCH  17  21
ENDBRANCH  15  17
ENDBRANCH   1  15
TORSDOF 5
ENDMDL
MODEL 3
REMARK VINA RESULT:      -7.6      1.870      4.032
REMARK  Name = 
REMARK  6 active torsions:
REMARK  status: ('A' for Active; 'I' for Inactive)
REMARK    1  A    between atoms: C_1  and  O_2
REMARK    2  A    between atoms: O_2  and  C_3
REMARK    3  A    between atoms: C_6  and  C_7
REMARK    4  A    between atoms: C_7  and  N_8
REMARK    5  A    between atoms: N_8  and  C_9
REMARK    6  A    between atoms: C_14  and  C_15
REMARK                            x       y       z     vdW  Elec       q    Type
REMARK                         _______ _______ _______ _____ _____    ______ ____
ROOT
ATOM      1  C   UNL     1       5.056   5.881  16.796  0.00  0.00    +0.000 A 
ATOM      2  N   UNL     1       5.157   6.312  15.511  0.00  0.00    +0.000 NA
ATOM      3  C   UNL     1       5.834   5.563  14.621  0.00  0.00    +0.000 A 
ATOM      4  C   UNL     1       6.509   4.412  14.958  0.00  0.00    +0.000 A 
ATOM      5  C   UNL     1       6.424   3.975  16.275  0.00  0.00    +0.000 A 
ATOM      6  C   UNL     1       5.601   4.645  17.189  0.00  0.00    +0.000 A 
ENDROOT
BRANCH   6   7
ATOM      7  C   UNL     1       5.361   4.070  18.541  0.00  0.00    +0.000 C 
ATOM      8  O   UNL     1       5.980   4.534  19.501  0.00  0.00    +0.000 OA
ATOM      9  N   UNL     1       4.408   3.060  18.736  0.00  0.00    +0.000 N 
ATOM     10  C   UNL     1       3.558   2.381  17.745  0.00  0.00    +0.000 C 
ATOM     11  C   UNL     1       2.072   2.540  18.071  0.00  0.00    +0.000 C 
ATOM     12  O   UNL     1       1.778   2.159  19.421  0.00  0.00    +0.000 OA
ATOM     13  C   UNL     1       2.565   2.928  20.347  0.00  0.00    +0.000 C 
ATOM     14  C   UNL     1       4.060   2.685  20.113  0.00  0.00    +0.000 C 
ENDBRANCH   6   7
BRANCH   1  15
ATOM     15  N   UNL     1       4.399   6.726  17.688  0.00  0.00    +0.000 N 
ATOM     16  H   UNL     1       5.021   7.094  18.396  0.00  0.00    +0.000 HD
BRANCH  15  17
ATOM     17  C   UNL     1       3.075   6.353  18.154  0.00  0.00    +0.000 C 
BRANCH  17  21
ATOM     18  C   UNL     1       0.938   9.853  19.584  0.00  0.00    +0.000 A 
ATOM     19  C   UNL     1       1.210   8.790  20.447  0.00  0.00    +0.000 A 
ATOM     20  C   UNL     1       1.902   7.664  19.988  0.00  0.00    +0.000 A 
ATOM     21  C   UNL     1       2.314   7.570  18.651  0.00  0.00    +0.000 A 
ATOM     22  C   UNL     1       1.992   8.623  17.783  0.00  0.00    +0.000 A 
ATOM     23  C   UNL     1       1.314   9.758  18.245  0.00  0.00    +0.000 A 
BRANCH  18  25
ATOM     24  C   UNL     1      -0.915  11.315  19.472  0.00  0.00    +0.000 C 
ATOM     25  O   UNL     1       0.268  10.906  20.147  0.00  0.00    +0.000 OA
ENDBRANCH  18  25
ENDBRANCH  17  21
ENDBRANCH  15  17
ENDBRANCH   1  15
TORSDOF 5
ENDMDL
MODEL 4
REMARK VINA RESULT:      -7.5      0.478      1.092
REMARK  Name = 
REMARK  6 active torsions:
REMARK  status: ('A' for Active; 'I' for Inactive)
REMARK    1  A    between atoms: C_1  and  O_2
REMARK    2  A    between atoms: O_2  and  C_3
REMARK    3  A    between atoms: C_6  and  C_7
REMARK    4  A    between atoms: C_7  and  N_8
REMARK    5  A    between atoms: N_8  and  C_9
REMARK    6  A    between atoms: C_14  and  C_15
REMARK                            x       y       z     vdW  Elec       q    Type
REMARK                         _______ _______ _______ _____ _____    ______ ____
ROOT
ATOM      1  C   UNL     1       2.611   4.721  19.353  0.00  0.00    +0.000 A 
ATOM      2  N   UNL     1       1.342   4.261  19.510  0.00  0.00    +0.000 NA
ATOM      3  C   UNL     1       1.009   3.066  18.987  0.00  0.00    +0.000 A 
ATOM      4  C   UNL     1       1.868   2.309  18.222  0.00  0.00    +0.000 A 
ATOM      5  C   UNL     1       3.162   2.782  18.043  0.00  0.00    +0.000 A 
ATOM      6  C   UNL     1       3.586   3.943  18.702  0.00  0.00    +0.000 A 
ENDROOT
BRANCH   6   7
ATOM      7  C   UNL     1       5.019   4.344  18.664  0.00  0.00    +0.000 C 
ATOM      8  O   UNL     1       5.776   3.920  19.541  0.00  0.00    +0.000 OA
ATOM      9  N   UNL     1       5.518   5.139  17.623  0.00  0.00    +0.000 N 
ATOM     10  C   UNL     1       4.803   5.733  16.483  0.00  0.00    +0.000 C 
ATOM     11  C   UNL     1       5.388   5.274  15.147  0.00  0.00    +0.000 C 
ATOM     12  O   UNL     1       6.806   5.475  15.088  0.00  0.00    +0.000 OA
ATOM     13  C   UNL     1       7.460   4.787  16.168  0.00  0.00    +0.000 C 
ATOM     14  C   UNL     1       6.973   5.322  17.519  0.00  0.00    +0.000 C 
ENDBRANCH   6   7
BRANCH   1  15
ATOM     15  N   UNL     1       2.882   5.989  19.859  0.00  0.00    +0.000 N 
ATOM     16  H   UNL     1       2.600   6.086  20.825  0.00  0.00    +0.000 HD
BRANCH  15  17
ATOM     17  C   UNL     1       2.626   7.144  19.016  0.00  0.00    +0.000 C 
BRANCH  17  21
ATOM     18  C   UNL     1       0.121  10.038  21.069  0.00  0.00    +0.000 A 
ATOM     19  C   UNL     1       0.515   8.863  21.712  0.00  0.00    +0.000 A 
ATOM     20  C   UNL     1       1.325   7.932  21.053  0.00  0.00    +0.000 A 
ATOM     21  C   UNL     1       1.737   8.148  19.730  0.00  0.00    +0.000 A 
ATOM     22  C   UNL     1       1.295   9.310  19.080  0.00  0.00    +0.000 A 
ATOM     23  C   UNL     1       0.498  10.250  19.744  0.00  0.00    +0.000 A 
BRANCH  18  25
ATOM     24  C   UNL     1      -1.368  11.873  21.087  0.00  0.00    +0.000 C 
ATOM     25  O   UNL     1      -0.658  10.880  21.817  0.00  0.00    +0.000 OA
ENDBRANCH  18  25
ENDBRANCH  17  21
ENDBRANCH  15  17
ENDBRANCH   1  15
TORSDOF 5
ENDMDL
MODEL 5
REMARK VINA RESULT:      -7.4      1.691      3.866
REMARK  Name = 
REMARK  6 active torsions:
REMARK  status: ('A' for Active; 'I' for Inactive)
REMARK    1  A    between atoms: C_1  and  O_2
REMARK    2  A    between atoms: O_2  and  C_3
REMARK    3  A    between atoms: C_6  and  C_7
REMARK    4  A    between atoms: C_7  and  N_8
REMARK    5  A    between atoms: N_8  and  C_9
REMARK    6  A    between atoms: C_14  and  C_15
REMARK                            x       y       z     vdW  Elec       q    Type
REMARK                         _______ _______ _______ _____ _____    ______ ____
ROOT
ATOM      1  C   UNL     1       4.907   6.117  16.890  0.00  0.00    +0.000 A 
ATOM      2  N   UNL     1       5.187   6.383  15.588  0.00  0.00    +0.000 NA
ATOM      3  C   UNL     1       5.837   5.459  14.856  0.00  0.00    +0.000 A 
ATOM      4  C   UNL     1       6.313   4.278  15.379  0.00  0.00    +0.000 A 
ATOM      5  C   UNL     1       6.046   4.008  16.715  0.00  0.00    +0.000 A 
ATOM      6  C   UNL     1       5.239   4.875  17.462  0.00  0.00    +0.000 A 
ENDROOT
BRANCH   6   7
ATOM      7  C   UNL     1       4.796   4.493  18.831  0.00  0.00    +0.000 C 
ATOM      8  O   UNL     1       5.433   4.913  19.799  0.00  0.00    +0.000 OA
ATOM      9  N   UNL     1       3.644   3.718  19.025  0.00  0.00    +0.000 N 
ATOM     10  C   UNL     1       2.740   3.131  18.025  0.00  0.00    +0.000 C 
ATOM     11  C   UNL     1       1.300   3.614  18.210  0.00  0.00    +0.000 C 
ATOM     12  O   UNL     1       0.845   3.432  19.556  0.00  0.00    +0.000 OA
ATOM     13  C   UNL     1       1.710   4.113  20.481  0.00  0.00    +0.000 C 
ATOM     14  C   UNL     1       3.135   3.554  20.394  0.00  0.00    +0.000 C 
ENDBRANCH   6   7
BRANCH   1  15
ATOM     15  N   UNL     1       4.291   7.133  17.616  0.00  0.00    +0.000 N 
ATOM     16  H   UNL     1       4.400   7.012  18.615  0.00  0.00    +0.000 HD
BRANCH  15  17
ATOM     17  C   UNL     1       2.987   7.606  17.184  0.00  0.00    +0.000 C 
BRANCH  17  21
ATOM     18  C   UNL     1       0.752   9.306  20.497  0.00  0.00    +0.000 A 
ATOM     19  C   UNL     1       0.785   9.953  19.261  0.00  0.00    +0.000 A 
ATOM     20  C   UNL     1       1.501   9.405  18.192  0.00  0.00    +0.000 A 
ATOM     21  C   UNL     1       2.218   8.209  18.346  0.00  0.00    +0.000 A 
ATOM     22  C   UNL     1       2.216   7.594  19.607  0.00  0.00    +0.000 A 
ATOM     23  C   UNL     1       1.485   8.133  20.673  0.00  0.00    +0.000 A 
BRANCH  18  25
ATOM     24  C   UNL     1       0.072   9.347  22.760  0.00  0.00    +0.000 C 
ATOM     25  O   UNL     1       0.008   9.928  21.464  0.00  0.00    +0.000 OA
ENDBRANCH  18  25
ENDBRANCH  17  21
ENDBRANCH  15  17
ENDBRANCH   1  15
TORSDOF 5
ENDMDL
MODEL 6
REMARK VINA RESULT:      -7.4      1.131      1.700
REMARK  Name = 
REMARK  6 active torsions:
REMARK  status: ('A' for Active; 'I' for Inactive)
REMARK    1  A    between atoms: C_1  and  O_2
REMARK    2  A    between atoms: O_2  and  C_3
REMARK    3  A    between atoms: C_6  and  C_7
REMARK    4  A    between atoms: C_7  and  N_8
REMARK    5  A    between atoms: N_8  and  C_9
REMARK    6  A    between atoms: C_14  and  C_15
REMARK                            x       y       z     vdW  Elec       q    Type
REMARK                         _______ _______ _______ _____ _____    ______ ____
ROOT
ATOM      1  C   UNL     1       2.591   4.635  19.410  0.00  0.00    +0.000 A 
ATOM      2  N   UNL     1       1.324   4.162  19.541  0.00  0.00    +0.000 NA
ATOM      3  C   UNL     1       0.987   3.014  18.925  0.00  0.00    +0.000 A 
ATOM      4  C   UNL     1       1.838   2.324  18.092  0.00  0.00    +0.000 A 
ATOM      5  C   UNL     1       3.131   2.811  17.940  0.00  0.00    +0.000 A 
ATOM      6  C   UNL     1       3.561   3.914  18.688  0.00  0.00    +0.000 A 
ENDROOT
BRANCH   6   7
ATOM      7  C   UNL     1       4.993   4.319  18.670  0.00  0.00    +0.000 C 
ATOM      8  O   UNL     1       5.755   3.841  19.515  0.00  0.00    +0.000 OA
ATOM      9  N   UNL     1       5.487   5.179  17.679  0.00  0.00    +0.000 N 
ATOM     10  C   UNL     1       4.766   5.843  16.582  0.00  0.00    +0.000 C 
ATOM     11  C   UNL     1       5.346   5.471  15.217  0.00  0.00    +0.000 C 
ATOM     12  O   UNL     1       6.763   5.677  15.165  0.00  0.00    +0.000 OA
ATOM     13  C   UNL     1       7.423   4.923  16.196  0.00  0.00    +0.000 C 
ATOM     14  C   UNL     1       6.941   5.370  17.581  0.00  0.00    +0.000 C 
ENDBRANCH   6   7
BRANCH   1  15
ATOM     15  N   UNL     1       2.867   5.858  20.015  0.00  0.00    +0.000 N 
ATOM     16  H   UNL     1       3.768   5.865  20.475  0.00  0.00    +0.000 HD
BRANCH  15  17
ATOM     17  C   UNL     1       1.800   6.540  20.726  0.00  0.00    +0.000 C 
BRANCH  17  21
ATOM     18  C   UNL     1       1.116  10.506  19.096  0.00  0.00    +0.000 A 
ATOM     19  C   UNL     1       1.741   9.525  18.326  0.00  0.00    +0.000 A 
ATOM     20  C   UNL     1       1.958   8.246  18.848  0.00  0.00    +0.000 A 
ATOM     21  C   UNL     1       1.575   7.931  20.160  0.00  0.00    +0.000 A 
ATOM     22  C   UNL     1       0.991   8.941  20.940  0.00  0.00    +0.000 A 
ATOM     23  C   UNL     1       0.758  10.217  20.412  0.00  0.00    +0.000 A 
BRANCH  18  25
ATOM     24  C   UNL     1       2.071  12.583  18.494  0.00  0.00    +0.000 C 
ATOM     25  O   UNL     1       0.944  11.715  18.475  0.00  0.00    +0.000 OA
ENDBRANCH  18  25
ENDBRANCH  17  21
ENDBRANCH  15  17
ENDBRANCH   1  15
TORSDOF 5
ENDMDL
MODEL 7
REMARK VINA RESULT:      -7.4      1.142      1.670
REMARK  Name = 
REMARK  6 active torsions:
REMARK  status: ('A' for Active; 'I' for Inactive)
REMARK    1  A    between atoms: C_1  and  O_2
REMARK    2  A    between atoms: O_2  and  C_3
REMARK    3  A    between atoms: C_6  and  C_7
REMARK    4  A    between atoms: C_7  and  N_8
REMARK    5  A    between atoms: N_8  and  C_9
REMARK    6  A    between atoms: C_14  and  C_15
REMARK                            x       y       z     vdW  Elec       q    Type
REMARK                         _______ _______ _______ _____ _____    ______ ____
ROOT
ATOM      1  C   UNL     1       2.698   4.760  19.308  0.00  0.00    +0.000 A 
ATOM      2  N   UNL     1       1.432   4.296  19.472  0.00  0.00    +0.000 NA
ATOM      3  C   UNL     1       1.093   3.112  18.928  0.00  0.00    +0.000 A 
ATOM      4  C   UNL     1       1.942   2.373  18.135  0.00  0.00    +0.000 A 
ATOM      5  C   UNL     1       3.233   2.851  17.949  0.00  0.00    +0.000 A 
ATOM      6  C   UNL     1       3.665   3.998  18.627  0.00  0.00    +0.000 A 
ENDROOT
BRANCH   6   7
ATOM      7  C   UNL     1       5.097   4.401  18.579  0.00  0.00    +0.000 C 
ATOM      8  O   UNL     1       5.863   3.974  19.447  0.00  0.00    +0.000 OA
ATOM      9  N   UNL     1       5.586   5.202  17.538  0.00  0.00    +0.000 N 
ATOM     10  C   UNL     1       4.860   5.802  16.408  0.00  0.00    +0.000 C 
ATOM     11  C   UNL     1       5.434   5.351  15.064  0.00  0.00    +0.000 C 
ATOM     12  O   UNL     1       6.851   5.554  14.994  0.00  0.00    +0.000 OA
ATOM     13  C   UNL     1       7.516   4.861  16.064  0.00  0.00    +0.000 C 
ATOM     14  C   UNL     1       7.039   5.388  17.423  0.00  0.00    +0.000 C 
ENDBRANCH   6   7
BRANCH   1  15
ATOM     15  N   UNL     1       2.975   6.018  19.837  0.00  0.00    +0.000 N 
ATOM     16  H   UNL     1       3.912   6.078  20.214  0.00  0.00    +0.000 HD
BRANCH  15  17
ATOM     17  C   UNL     1       1.946   6.690  20.612  0.00  0.00    +0.000 C 
BRANCH  17  21
ATOM     18  C   UNL     1       1.085  10.607  18.946  0.00  0.00    +0.000 A 
ATOM     19  C   UNL     1       0.678  10.286  20.242  0.00  0.00    +0.000 A 
ATOM     20  C   UNL     1       0.959   9.026  20.781  0.00  0.00    +0.000 A 
ATOM     21  C   UNL     1       1.631   8.055  20.025  0.00  0.00    +0.000 A 
ATOM     22  C   UNL     1       1.992   8.374  18.708  0.00  0.00    +0.000 A 
ATOM     23  C   UNL     1       1.726   9.640  18.173  0.00  0.00    +0.000 A 
BRANCH  18  25
ATOM     24  C   UNL     1       0.683  12.855  19.556  0.00  0.00    +0.000 C 
ATOM     25  O   UNL     1       0.768  11.873  18.531  0.00  0.00    +0.000 OA
ENDBRANCH  18  25
ENDBRANCH  17  21
ENDBRANCH  15  17
ENDBRANCH   1  15
TORSDOF 5
ENDMDL
MODEL 8
REMARK VINA RESULT:      -7.3      2.059      4.268
REMARK  Name = 
REMARK  6 active torsions:
REMARK  status: ('A' for Active; 'I' for Inactive)
REMARK    1  A    between atoms: C_1  and  O_2
REMARK    2  A    between atoms: O_2  and  C_3
REMARK    3  A    between atoms: C_6  and  C_7
REMARK    4  A    between atoms: C_7  and  N_8
REMARK    5  A    between atoms: N_8  and  C_9
REMARK    6  A    between atoms: C_14  and  C_15
REMARK                            x       y       z     vdW  Elec       q    Type
REMARK                         _______ _______ _______ _____ _____    ______ ____
ROOT
ATOM      1  C   UNL     1       4.112   6.072  17.348  0.00  0.00    +0.000 A 
ATOM      2  N   UNL     1       5.201   6.322  16.576  0.00  0.00    +0.000 NA
ATOM      3  C   UNL     1       5.730   5.321  15.847  0.00  0.00    +0.000 A 
ATOM      4  C   UNL     1       5.277   4.023  15.903  0.00  0.00    +0.000 A 
ATOM      5  C   UNL     1       4.173   3.757  16.705  0.00  0.00    +0.000 A 
ATOM      6  C   UNL     1       3.504   4.803  17.353  0.00  0.00    +0.000 A 
ENDROOT
BRANCH   6   7
ATOM      7  C   UNL     1       2.216   4.546  18.053  0.00  0.00    +0.000 C 
ATOM      8  O   UNL     1       1.177   4.509  17.389  0.00  0.00    +0.000 OA
ATOM      9  N   UNL     1       2.183   4.293  19.432  0.00  0.00    +0.000 N 
ATOM     10  C   UNL     1       3.291   4.276  20.399  0.00  0.00    +0.000 C 
ATOM     11  C   UNL     1       3.399   2.926  21.111  0.00  0.00    +0.000 C 
ATOM     12  O   UNL     1       2.147   2.522  21.680  0.00  0.00    +0.000 OA
ATOM     13  C   UNL     1       1.127   2.459  20.669  0.00  0.00    +0.000 C 
ATOM     14  C   UNL     1       0.920   3.835  20.028  0.00  0.00    +0.000 C 
ENDBRANCH   6   7
BRANCH   1  15
ATOM     15  N   UNL     1       3.645   7.126  18.129  0.00  0.00    +0.000 N 
ATOM     16  H   UNL     1       3.498   6.854  19.092  0.00  0.00    +0.000 HD
BRANCH  15  17
ATOM     17  C   UNL     1       2.640   8.015  17.571  0.00  0.00    +0.000 C 
BRANCH  17  21
ATOM     18  C   UNL     1       0.190   9.735  20.717  0.00  0.00    +0.000 A 
ATOM     19  C   UNL     1       1.005   8.633  20.980  0.00  0.00    +0.000 A 
ATOM     20  C   UNL     1       1.798   8.081  19.969  0.00  0.00    +0.000 A 
ATOM     21  C   UNL     1       1.772   8.606  18.668  0.00  0.00    +0.000 A 
ATOM     22  C   UNL     1       0.913   9.682  18.406  0.00  0.00    +0.000 A 
ATOM     23  C   UNL     1       0.131  10.247  19.421  0.00  0.00    +0.000 A 
BRANCH  18  25
ATOM     24  C   UNL     1      -0.307   9.523  23.018  0.00  0.00    +0.000 C 
ATOM     25  O   UNL     1      -0.530  10.198  21.786  0.00  0.00    +0.000 OA
ENDBRANCH  18  25
ENDBRANCH  17  21
ENDBRANCH  15  17
ENDBRANCH   1  15
TORSDOF 5
ENDMDL
MODEL 9
REMARK VINA RESULT:      -7.3      1.601      2.147
REMARK  Name = 
REMARK  6 active torsions:
REMARK  status: ('A' for Active; 'I' for Inactive)
REMARK    1  A    between atoms: C_1  and  O_2
REMARK    2  A    between atoms: O_2  and  C_3
REMARK    3  A    between atoms: C_6  and  C_7
REMARK    4  A    between atoms: C_7  and  N_8
REMARK    5  A    between atoms: N_8  and  C_9
REMARK    6  A    between atoms: C_14  and  C_15
REMARK                            x       y       z     vdW  Elec       q    Type
REMARK                         _______ _______ _______ _____ _____    ______ ____
ROOT
ATOM      1  C   UNL     1       2.591   4.485  18.059  0.00  0.00    +0.000 A 
ATOM      2  N   UNL     1       1.643   4.066  18.937  0.00  0.00    +0.000 NA
ATOM      3  C   UNL     1       1.645   2.781  19.338  0.00  0.00    +0.000 A 
ATOM      4  C   UNL     1       2.511   1.834  18.841  0.00  0.00    +0.000 A 
ATOM      5  C   UNL     1       3.472   2.252  17.928  0.00  0.00    +0.000 A 
ATOM      6  C   UNL     1       3.598   3.610  17.609  0.00  0.00    +0.000 A 
ENDROOT
BRANCH   6   7
ATOM      7  C   UNL     1       4.743   4.082  16.784  0.00  0.00    +0.000 C 
ATOM      8  O   UNL     1       4.584   4.211  15.568  0.00  0.00    +0.000 OA
ATOM      9  N   UNL     1       5.964   4.431  17.378  0.00  0.00    +0.000 N 
ATOM     10  C   UNL     1       6.360   4.368  18.793  0.00  0.00    +0.000 C 
ATOM     11  C   UNL     1       6.793   5.737  19.320  0.00  0.00    +0.000 C 
ATOM     12  O   UNL     1       7.787   6.341  18.484  0.00  0.00    +0.000 OA
ATOM     13  C   UNL     1       7.305   6.470  17.135  0.00  0.00    +0.000 C 
ATOM     14  C   UNL     1       6.981   5.092  16.547  0.00  0.00    +0.000 C 
ENDBRANCH   6   7
BRANCH   1  15
ATOM     15  N   UNL     1       2.504   5.807  17.629  0.00  0.00    +0.000 N 
ATOM     16  H   UNL     1       2.572   5.889  16.623  0.00  0.00    +0.000 HD
BRANCH  15  17
ATOM     17  C   UNL     1       3.199   6.833  18.387  0.00  0.00    +0.000 C 
BRANCH  17  21
ATOM     18  C   UNL     1       0.405   9.877  19.720  0.00  0.00    +0.000 A 
ATOM     19  C   UNL     1       0.874   9.877  18.406  0.00  0.00    +0.000 A 
ATOM     20  C   UNL     1       1.771   8.894  17.974  0.00  0.00    +0.000 A 
ATOM     21  C   UNL     1       2.234   7.907  18.856  0.00  0.00    +0.000 A 
ATOM     22  C   UNL     1       1.793   7.948  20.187  0.00  0.00    +0.000 A 
ATOM     23  C   UNL     1       0.881   8.921  20.616  0.00  0.00    +0.000 A 
BRANCH  18  25
ATOM     24  C   UNL     1      -1.268  11.355  18.941  0.00  0.00    +0.000 C 
ATOM     25  O   UNL     1      -0.480  10.878  20.025  0.00  0.00    +0.000 OA
ENDBRANCH  18  25
ENDBRANCH  17  21
ENDBRANCH  15  17
ENDBRANCH   1  15
TORSDOF 5
ENDMDL
