MODEL 1
REMARK VINA RESULT:      -6.7      0.000      0.000
REMARK  Name = 
REMARK  15 active torsions:
REMARK  status: ('A' for Active; 'I' for Inactive)
REMARK    1  A    between atoms: C_1  and  C_2
REMARK    2  A    between atoms: C_2  and  C_3
REMARK    3  A    between atoms: C_3  and  C_4
REMARK    4  A    between atoms: C_4  and  C_5
REMARK    5  A    between atoms: C_5  and  C_6
REMARK    6  A    between atoms: C_6  and  C_7
REMARK    7  A    between atoms: C_9  and  N_10
REMARK    8  A    between atoms: C_11  and  C_12
REMARK    9  A    between atoms: C_14  and  C_15
REMARK   10  A    between atoms: C_14  and  C_16
REMARK   11  A    between atoms: C_16  and  C_17
REMARK   12  A    between atoms: C_17  and  C_18
REMARK   13  A    between atoms: C_18  and  C_19
REMARK   14  A    between atoms: C_19  and  C_20
REMARK   15  A    between atoms: C_20  and  C_21
REMARK                            x       y       z     vdW  Elec       q    Type
REMARK                         _______ _______ _______ _____ _____    ______ ____
ROOT
ATOM      1  C   UNL     1       4.339   3.809  18.218  0.00  0.00    +0.000 C 
ATOM      2  C   UNL     1       5.489   3.969  18.891  0.00  0.00    +0.000 C 
ATOM      3  C   UNL     1       6.322   5.152  18.772  0.00  0.00    +0.000 C 
ATOM      4  C   UNL     1       6.027   6.070  17.825  0.00  0.00    +0.000 C 
ATOM      5  C   UNL     1       4.796   6.020  16.926  0.00  0.00    +0.000 C 
ATOM      6  C   UNL     1       5.287   5.749  15.483  0.00  0.00    +0.000 C 
ATOM      7  C   UNL     1       3.794   4.913  17.353  0.00  0.00    +0.000 C 
ENDROOT
BRANCH   3   8
ATOM      8  N   UNL     1       7.394   5.220  19.637  0.00  0.00    +0.000 N 
ATOM      9  H   UNL     1       7.978   4.389  19.674  0.00  0.00    +0.000 HD
ATOM     10  H   UNL     1       7.927   6.082  19.629  0.00  0.00    +0.000 HD
ENDBRANCH   3   8
BRANCH   4  11
ATOM     11  C   UNL     1       6.979   7.230  17.584  0.00  0.00    +0.000 C 
ATOM     12  N   UNL     1       7.769   8.192  17.385  0.00  0.00    +0.000 NA
ENDBRANCH   4  11
BRANCH   1  13
ATOM     13  C   UNL     1       3.484   2.572  18.337  0.00  0.00    +0.000 C 
BRANCH  13  14
ATOM     14  C   UNL     1       2.067   2.847  17.830  0.00  0.00    +0.000 C 
BRANCH  14  15
ATOM     15  C   UNL     1       0.988   2.350  18.785  0.00  0.00    +0.000 C 
BRANCH  15  16
ATOM     16  C   UNL     1       1.301   2.848  20.196  0.00  0.00    +0.000 C 
BRANCH  16  18
ATOM     17  C   UNL     1       2.148   5.117  20.826  0.00  0.00    +0.000 C 
ATOM     18  C   UNL     1       0.937   4.314  20.379  0.00  0.00    +0.000 C 
ENDBRANCH  16  18
ENDBRANCH  15  16
ENDBRANCH  14  15
ENDBRANCH  13  14
ENDBRANCH   1  13
BRANCH   5  19
ATOM     19  C   UNL     1       4.056   7.390  17.009  0.00  0.00    +0.000 C 
BRANCH  19  20
ATOM     20  C   UNL     1       2.888   7.415  17.991  0.00  0.00    +0.000 C 
BRANCH  20  21
ATOM     21  C   UNL     1       1.948   8.582  17.702  0.00  0.00    +0.000 C 
BRANCH  21  22
ATOM     22  C   UNL     1       1.486   9.188  19.020  0.00  0.00    +0.000 C 
BRANCH  22  23
ATOM     23  C   UNL     1       0.251  10.061  18.837  0.00  0.00    +0.000 C 
ATOM     24  C   UNL     1      -0.492  10.198  20.157  0.00  0.00    +0.000 C 
ENDBRANCH  22  23
ENDBRANCH  21  22
ENDBRANCH  20  21
ENDBRANCH  19  20
ENDBRANCH   5  19
TORSDOF 12
ENDMDL
MODEL 2
REMARK VINA RESULT:      -6.6      2.402      5.001
REMARK  Name = 
REMARK  15 active torsions:
REMARK  status: ('A' for Active; 'I' for Inactive)
REMARK    1  A    between atoms: C_1  and  C_2
REMARK    2  A    between atoms: C_2  and  C_3
REMARK    3  A    between atoms: C_3  and  C_4
REMARK    4  A    between atoms: C_4  and  C_5
REMARK    5  A    between atoms: C_5  and  C_6
REMARK    6  A    between atoms: C_6  and  C_7
REMARK    7  A    between atoms: C_9  and  N_10
REMARK    8  A    between atoms: C_11  and  C_12
REMARK    9  A    between atoms: C_14  and  C_15
REMARK   10  A    between atoms: C_14  and  C_16
REMARK   11  A    between atoms: C_16  and  C_17
REMARK   12  A    between atoms: C_17  and  C_18
REMARK   13  A    between atoms: C_18  and  C_19
REMARK   14  A    between atoms: C_19  and  C_20
REMARK   15  A    between atoms: C_20  and  C_21
REMARK                            x       y       z     vdW  Elec       q    Type
REMARK                         _______ _______ _______ _____ _____    ______ ____
ROOT
ATOM      1  C   UNL     1       3.626   4.061  17.264  0.00  0.00    +0.000 C 
ATOM      2  C   UNL     1       3.300   5.321  17.595  0.00  0.00    +0.000 C 
ATOM      3  C   UNL     1       4.224   6.435  17.487  0.00  0.00    +0.000 C 
ATOM      4  C   UNL     1       5.521   6.188  17.199  0.00  0.00    +0.000 C 
ATOM      5  C   UNL     1       6.084   4.812  16.858  0.00  0.00    +0.000 C 
ATOM      6  C   UNL     1       7.011   4.389  18.024  0.00  0.00    +0.000 C 
ATOM      7  C   UNL     1       4.970   3.747  16.665  0.00  0.00    +0.000 C 
ENDROOT
BRANCH   3   8
ATOM      8  N   UNL     1       3.689   7.683  17.730  0.00  0.00    +0.000 N 
ATOM      9  H   UNL     1       2.677   7.745  17.658  0.00  0.00    +0.000 HD
ATOM     10  H   UNL     1       4.064   8.188  18.525  0.00  0.00    +0.000 HD
ENDBRANCH   3   8
BRANCH   4  11
ATOM     11  C   UNL     1       6.528   7.326  17.241  0.00  0.00    +0.000 C 
ATOM     12  N   UNL     1       7.363   8.269  17.275  0.00  0.00    +0.000 NA
ENDBRANCH   4  11
BRANCH   1  13
ATOM     13  C   UNL     1       2.665   2.906  17.389  0.00  0.00    +0.000 C 
BRANCH  13  14
ATOM     14  C   UNL     1       3.282   1.781  18.223  0.00  0.00    +0.000 C 
BRANCH  14  15
ATOM     15  C   UNL     1       3.399   2.133  19.701  0.00  0.00    +0.000 C 
BRANCH  15  16
ATOM     16  C   UNL     1       2.019   2.520  20.234  0.00  0.00    +0.000 C 
BRANCH  16  18
ATOM     17  C   UNL     1       1.381   4.904  20.654  0.00  0.00    +0.000 C 
ATOM     18  C   UNL     1       2.091   3.683  21.214  0.00  0.00    +0.000 C 
ENDBRANCH  16  18
ENDBRANCH  15  16
ENDBRANCH  14  15
ENDBRANCH  13  14
ENDBRANCH   1  13
BRANCH   5  19
ATOM     19  C   UNL     1       6.884   4.911  15.524  0.00  0.00    +0.000 C 
BRANCH  19  20
ATOM     20  C   UNL     1       6.044   4.694  14.269  0.00  0.00    +0.000 C 
BRANCH  20  21
ATOM     21  C   UNL     1       6.927   4.434  13.051  0.00  0.00    +0.000 C 
BRANCH  21  22
ATOM     22  C   UNL     1       6.285   3.352  12.193  0.00  0.00    +0.000 C 
BRANCH  22  23
ATOM     23  C   UNL     1       4.777   3.291  12.397  0.00  0.00    +0.000 C 
ATOM     24  C   UNL     1       4.073   3.175  11.054  0.00  0.00    +0.000 C 
ENDBRANCH  22  23
ENDBRANCH  21  22
ENDBRANCH  20  21
ENDBRANCH  19  20
ENDBRANCH   5  19
TORSDOF 12
ENDMDL
MODEL 3
REMARK VINA RESULT:      -6.5      2.555      5.485
REMARK  Name = 
REMARK  15 active torsions:
REMARK  status: ('A' for Active; 'I' for Inactive)
REMARK    1  A    between atoms: C_1  and  C_2
REMARK    2  A    between atoms: C_2  and  C_3
REMARK    3  A    between atoms: C_3  and  C_4
REMARK    4  A    between atoms: C_4  and  C_5
REMARK    5  A    between atoms: C_5  and  C_6
REMARK    6  A    between atoms: C_6  and  C_7
REMARK    7  A    between atoms: C_9  and  N_10
REMARK    8  A    between atoms: C_11  and  C_12
REMARK    9  A    between atoms: C_14  and  C_15
REMARK   10  A    between atoms: C_14  and  C_16
REMARK   11  A    between atoms: C_16  and  C_17
REMARK   12  A    between atoms: C_17  and  C_18
REMARK   13  A    between atoms: C_18  and  C_19
REMARK   14  A    between atoms: C_19  and  C_20
REMARK   15  A    between atoms: C_20  and  C_21
REMARK                            x       y       z     vdW  Elec       q    Type
REMARK                         _______ _______ _______ _____ _____    ______ ____
ROOT
ATOM      1  C   UNL     1       3.467   3.986  17.274  0.00  0.00    +0.000 C 
ATOM      2  C   UNL     1       3.169   5.251  17.610  0.00  0.00    +0.000 C 
ATOM      3  C   UNL     1       4.109   6.350  17.481  0.00  0.00    +0.000 C 
ATOM      4  C   UNL     1       5.396   6.080  17.165  0.00  0.00    +0.000 C 
ATOM      5  C   UNL     1       5.928   4.695  16.814  0.00  0.00    +0.000 C 
ATOM      6  C   UNL     1       6.873   4.258  17.960  0.00  0.00    +0.000 C 
ATOM      7  C   UNL     1       4.793   3.649  16.646  0.00  0.00    +0.000 C 
ENDROOT
BRANCH   3   8
ATOM      8  N   UNL     1       3.601   7.606  17.733  0.00  0.00    +0.000 N 
ATOM      9  H   UNL     1       4.290   8.319  17.955  0.00  0.00    +0.000 HD
ATOM     10  H   UNL     1       2.876   7.935  17.105  0.00  0.00    +0.000 HD
ENDBRANCH   3   8
BRANCH   4  11
ATOM     11  C   UNL     1       6.422   7.201  17.183  0.00  0.00    +0.000 C 
ATOM     12  N   UNL     1       7.273   8.131  17.197  0.00  0.00    +0.000 NA
ENDBRANCH   4  11
BRANCH   1  13
ATOM     13  C   UNL     1       2.490   2.847  17.422  0.00  0.00    +0.000 C 
BRANCH  13  14
ATOM     14  C   UNL     1       1.357   3.230  18.376  0.00  0.00    +0.000 C 
BRANCH  14  15
ATOM     15  C   UNL     1       1.401   2.459  19.690  0.00  0.00    +0.000 C 
BRANCH  15  16
ATOM     16  C   UNL     1       1.200   3.436  20.849  0.00  0.00    +0.000 C 
BRANCH  16  18
ATOM     17  C   UNL     1       1.707   5.887  20.812  0.00  0.00    +0.000 C 
ATOM     18  C   UNL     1       2.297   4.489  20.905  0.00  0.00    +0.000 C 
ENDBRANCH  16  18
ENDBRANCH  15  16
ENDBRANCH  14  15
ENDBRANCH  13  14
ENDBRANCH   1  13
BRANCH   5  19
ATOM     19  C   UNL     1       6.701   4.779  15.463  0.00  0.00    +0.000 C 
BRANCH  19  20
ATOM     20  C   UNL     1       5.881   4.369  14.243  0.00  0.00    +0.000 C 
BRANCH  20  21
ATOM     21  C   UNL     1       6.770   4.183  13.016  0.00  0.00    +0.000 C 
BRANCH  21  22
ATOM     22  C   UNL     1       6.064   3.271  12.023  0.00  0.00    +0.000 C 
BRANCH  22  23
ATOM     23  C   UNL     1       7.033   2.298  11.364  0.00  0.00    +0.000 C 
ATOM     24  C   UNL     1       6.356   0.952  11.149  0.00  0.00    +0.000 C 
ENDBRANCH  22  23
ENDBRANCH  21  22
ENDBRANCH  20  21
ENDBRANCH  19  20
ENDBRANCH   5  19
TORSDOF 12
ENDMDL
MODEL 4
REMARK VINA RESULT:      -6.4      2.609      4.784
REMARK  Name = 
REMARK  15 active torsions:
REMARK  status: ('A' for Active; 'I' for Inactive)
REMARK    1  A    between atoms: C_1  and  C_2
REMARK    2  A    between atoms: C_2  and  C_3
REMARK    3  A    between atoms: C_3  and  C_4
REMARK    4  A    between atoms: C_4  and  C_5
REMARK    5  A    between atoms: C_5  and  C_6
REMARK    6  A    between atoms: C_6  and  C_7
REMARK    7  A    between atoms: C_9  and  N_10
REMARK    8  A    between atoms: C_11  and  C_12
REMARK    9  A    between atoms: C_14  and  C_15
REMARK   10  A    between atoms: C_14  and  C_16
REMARK   11  A    between atoms: C_16  and  C_17
REMARK   12  A    between atoms: C_17  and  C_18
REMARK   13  A    between atoms: C_18  and  C_19
REMARK   14  A    between atoms: C_19  and  C_20
REMARK   15  A    between atoms: C_20  and  C_21
REMARK                            x       y       z     vdW  Elec       q    Type
REMARK                         _______ _______ _______ _____ _____    ______ ____
ROOT
ATOM      1  C   UNL     1       4.763   4.087  16.459  0.00  0.00    +0.000 C 
ATOM      2  C   UNL     1       4.123   2.960  16.808  0.00  0.00    +0.000 C 
ATOM      3  C   UNL     1       2.996   2.937  17.724  0.00  0.00    +0.000 C 
ATOM      4  C   UNL     1       2.669   4.067  18.391  0.00  0.00    +0.000 C 
ATOM      5  C   UNL     1       3.329   5.424  18.170  0.00  0.00    +0.000 C 
ATOM      6  C   UNL     1       4.132   5.762  19.449  0.00  0.00    +0.000 C 
ATOM      7  C   UNL     1       4.278   5.428  16.941  0.00  0.00    +0.000 C 
ENDROOT
BRANCH   3   8
ATOM      8  N   UNL     1       2.364   1.721  17.865  0.00  0.00    +0.000 N 
ATOM      9  H   UNL     1       2.702   1.139  18.626  0.00  0.00    +0.000 HD
ATOM     10  H   UNL     1       1.353   1.725  17.786  0.00  0.00    +0.000 HD
ENDBRANCH   3   8
BRANCH   4  11
ATOM     11  C   UNL     1       1.598   4.016  19.468  0.00  0.00    +0.000 C 
ATOM     12  N   UNL     1       0.710   3.975  20.362  0.00  0.00    +0.000 NA
ENDBRANCH   4  11
BRANCH   1  13
ATOM     13  C   UNL     1       5.939   4.103  15.516  0.00  0.00    +0.000 C 
BRANCH  13  14
ATOM     14  C   UNL     1       7.076   4.953  16.088  0.00  0.00    +0.000 C 
BRANCH  14  15
ATOM     15  C   UNL     1       7.370   4.643  17.551  0.00  0.00    +0.000 C 
BRANCH  15  16
ATOM     16  C   UNL     1       7.692   5.947  18.283  0.00  0.00    +0.000 C 
BRANCH  16  18
ATOM     17  C   UNL     1       8.144   8.384  17.932  0.00  0.00    +0.000 C 
ATOM     18  C   UNL     1       7.373   7.171  17.437  0.00  0.00    +0.000 C 
ENDBRANCH  16  18
ENDBRANCH  15  16
ENDBRANCH  14  15
ENDBRANCH  13  14
ENDBRANCH   1  13
BRANCH   5  19
ATOM     19  C   UNL     1       2.219   6.489  17.918  0.00  0.00    +0.000 C 
BRANCH  19  20
ATOM     20  C   UNL     1       2.700   7.934  18.015  0.00  0.00    +0.000 C 
BRANCH  20  21
ATOM     21  C   UNL     1       1.744   8.779  18.853  0.00  0.00    +0.000 C 
BRANCH  21  22
ATOM     22  C   UNL     1       0.851   9.589  17.923  0.00  0.00    +0.000 C 
BRANCH  22  23
ATOM     23  C   UNL     1      -0.214  10.359  18.694  0.00  0.00    +0.000 C 
ATOM     24  C   UNL     1      -1.561  10.222  18.001  0.00  0.00    +0.000 C 
ENDBRANCH  22  23
ENDBRANCH  21  22
ENDBRANCH  20  21
ENDBRANCH  19  20
ENDBRANCH   5  19
TORSDOF 12
ENDMDL
MODEL 5
REMARK VINA RESULT:      -6.3      0.908      1.075
REMARK  Name = 
REMARK  15 active torsions:
REMARK  status: ('A' for Active; 'I' for Inactive)
REMARK    1  A    between atoms: C_1  and  C_2
REMARK    2  A    between atoms: C_2  and  C_3
REMARK    3  A    between atoms: C_3  and  C_4
REMARK    4  A    between atoms: C_4  and  C_5
REMARK    5  A    between atoms: C_5  and  C_6
REMARK    6  A    between atoms: C_6  and  C_7
REMARK    7  A    between atoms: C_9  and  N_10
REMARK    8  A    between atoms: C_11  and  C_12
REMARK    9  A    between atoms: C_14  and  C_15
REMARK   10  A    between atoms: C_14  and  C_16
REMARK   11  A    between atoms: C_16  and  C_17
REMARK   12  A    between atoms: C_17  and  C_18
REMARK   13  A    between atoms: C_18  and  C_19
REMARK   14  A    between atoms: C_19  and  C_20
REMARK   15  A    between atoms: C_20  and  C_21
REMARK                            x       y       z     vdW  Elec       q    Type
REMARK                         _______ _______ _______ _____ _____    ______ ____
ROOT
ATOM      1  C   UNL     1       4.429   3.679  18.114  0.00  0.00    +0.000 C 
ATOM      2  C   UNL     1       5.536   3.923  18.834  0.00  0.00    +0.000 C 
ATOM      3  C   UNL     1       6.276   5.170  18.757  0.00  0.00    +0.000 C 
ATOM      4  C   UNL     1       5.946   6.071  17.804  0.00  0.00    +0.000 C 
ATOM      5  C   UNL     1       4.760   5.932  16.856  0.00  0.00    +0.000 C 
ATOM      6  C   UNL     1       5.328   5.715  15.433  0.00  0.00    +0.000 C 
ATOM      7  C   UNL     1       3.833   4.745  17.235  0.00  0.00    +0.000 C 
ENDROOT
BRANCH   3   8
ATOM      8  N   UNL     1       7.303   5.314  19.664  0.00  0.00    +0.000 N 
ATOM      9  H   UNL     1       7.016   5.442  20.631  0.00  0.00    +0.000 HD
ATOM     10  H   UNL     1       8.089   4.681  19.562  0.00  0.00    +0.000 HD
ENDBRANCH   3   8
BRANCH   4  11
ATOM     11  C   UNL     1       6.812   7.305  17.610  0.00  0.00    +0.000 C 
ATOM     12  N   UNL     1       7.530   8.328  17.449  0.00  0.00    +0.000 NA
ENDBRANCH   4  11
BRANCH   1  13
ATOM     13  C   UNL     1       3.671   2.378  18.191  0.00  0.00    +0.000 C 
BRANCH  13  14
ATOM     14  C   UNL     1       2.199   2.590  17.830  0.00  0.00    +0.000 C 
BRANCH  14  15
ATOM     15  C   UNL     1       1.261   2.368  19.010  0.00  0.00    +0.000 C 
BRANCH  15  16
ATOM     16  C   UNL     1       1.059   3.693  19.746  0.00  0.00    +0.000 C 
BRANCH  16  18
ATOM     17  C   UNL     1       2.532   2.676  21.496  0.00  0.00    +0.000 C 
ATOM     18  C   UNL     1       1.326   3.564  21.239  0.00  0.00    +0.000 C 
ENDBRANCH  16  18
ENDBRANCH  15  16
ENDBRANCH  14  15
ENDBRANCH  13  14
ENDBRANCH   1  13
BRANCH   5  19
ATOM     19  C   UNL     1       3.910   7.238  16.917  0.00  0.00    +0.000 C 
BRANCH  19  20
ATOM     20  C   UNL     1       2.575   7.085  17.641  0.00  0.00    +0.000 C 
BRANCH  20  21
ATOM     21  C   UNL     1       2.409   8.148  18.724  0.00  0.00    +0.000 C 
BRANCH  21  22
ATOM     22  C   UNL     1       2.028   7.470  20.033  0.00  0.00    +0.000 C 
BRANCH  22  23
ATOM     23  C   UNL     1       1.167   8.374  20.906  0.00  0.00    +0.000 C 
ATOM     24  C   UNL     1       0.701   9.582  20.107  0.00  0.00    +0.000 C 
ENDBRANCH  22  23
ENDBRANCH  21  22
ENDBRANCH  20  21
ENDBRANCH  19  20
ENDBRANCH   5  19
TORSDOF 12
ENDMDL
MODEL 6
REMARK VINA RESULT:      -6.2      1.763      5.247
REMARK  Name = 
REMARK  15 active torsions:
REMARK  status: ('A' for Active; 'I' for Inactive)
REMARK    1  A    between atoms: C_1  and  C_2
REMARK    2  A    between atoms: C_2  and  C_3
REMARK    3  A    between atoms: C_3  and  C_4
REMARK    4  A    between atoms: C_4  and  C_5
REMARK    5  A    between atoms: C_5  and  C_6
REMARK    6  A    between atoms: C_6  and  C_7
REMARK    7  A    between atoms: C_9  and  N_10
REMARK    8  A    between atoms: C_11  and  C_12
REMARK    9  A    between atoms: C_14  and  C_15
REMARK   10  A    between atoms: C_14  and  C_16
REMARK   11  A    between atoms: C_16  and  C_17
REMARK   12  A    between atoms: C_17  and  C_18
REMARK   13  A    between atoms: C_18  and  C_19
REMARK   14  A    between atoms: C_19  and  C_20
REMARK   15  A    between atoms: C_20  and  C_21
REMARK                            x       y       z     vdW  Elec       q    Type
REMARK                         _______ _______ _______ _____ _____    ______ ____
ROOT
ATOM      1  C   UNL     1       2.946   6.891  18.478  0.00  0.00    +0.000 C 
ATOM      2  C   UNL     1       3.777   7.339  17.523  0.00  0.00    +0.000 C 
ATOM      3  C   UNL     1       4.513   6.460  16.633  0.00  0.00    +0.000 C 
ATOM      4  C   UNL     1       4.500   5.129  16.867  0.00  0.00    +0.000 C 
ATOM      5  C   UNL     1       3.666   4.447  17.946  0.00  0.00    +0.000 C 
ATOM      6  C   UNL     1       4.645   3.895  19.009  0.00  0.00    +0.000 C 
ATOM      7  C   UNL     1       2.659   5.421  18.619  0.00  0.00    +0.000 C 
ENDROOT
BRANCH   3   8
ATOM      8  N   UNL     1       5.209   7.081  15.618  0.00  0.00    +0.000 N 
ATOM      9  H   UNL     1       5.684   7.941  15.878  0.00  0.00    +0.000 HD
ATOM     10  H   UNL     1       5.768   6.482  15.021  0.00  0.00    +0.000 HD
ENDBRANCH   3   8
BRANCH   4  11
ATOM     11  C   UNL     1       5.392   4.215  16.041  0.00  0.00    +0.000 C 
ATOM     12  N   UNL     1       6.132   3.458  15.357  0.00  0.00    +0.000 NA
ENDBRANCH   4  11
BRANCH   1  13
ATOM     13  C   UNL     1       2.193   7.809  19.407  0.00  0.00    +0.000 C 
BRANCH  13  14
ATOM     14  C   UNL     1       1.406   8.853  18.611  0.00  0.00    +0.000 C 
BRANCH  14  15
ATOM     15  C   UNL     1       0.693   9.864  19.501  0.00  0.00    +0.000 C 
BRANCH  15  16
ATOM     16  C   UNL     1       0.938   9.502  20.966  0.00  0.00    +0.000 C 
BRANCH  16  18
ATOM     17  C   UNL     1      -0.371   9.708  23.090  0.00  0.00    +0.000 C 
ATOM     18  C   UNL     1      -0.351   9.128  21.686  0.00  0.00    +0.000 C 
ENDBRANCH  16  18
ENDBRANCH  15  16
ENDBRANCH  14  15
ENDBRANCH  13  14
ENDBRANCH   1  13
BRANCH   5  19
ATOM     19  C   UNL     1       2.847   3.291  17.296  0.00  0.00    +0.000 C 
BRANCH  19  20
ATOM     20  C   UNL     1       2.396   2.212  18.276  0.00  0.00    +0.000 C 
BRANCH  20  21
ATOM     21  C   UNL     1       0.900   2.317  18.563  0.00  0.00    +0.000 C 
BRANCH  21  22
ATOM     22  C   UNL     1       0.699   2.994  19.912  0.00  0.00    +0.000 C 
BRANCH  22  23
ATOM     23  C   UNL     1       1.677   2.471  20.956  0.00  0.00    +0.000 C 
ATOM     24  C   UNL     1       2.253   3.628  21.758  0.00  0.00    +0.000 C 
ENDBRANCH  22  23
ENDBRANCH  21  22
ENDBRANCH  20  21
ENDBRANCH  19  20
ENDBRANCH   5  19
TORSDOF 12
ENDMDL
MODEL 7
REMARK VINA RESULT:      -6.2      2.519      4.976
REMARK  Name = 
REMARK  15 active torsions:
REMARK  status: ('A' for Active; 'I' for Inactive)
REMARK    1  A    between atoms: C_1  and  C_2
REMARK    2  A    between atoms: C_2  and  C_3
REMARK    3  A    between atoms: C_3  and  C_4
REMARK    4  A    between atoms: C_4  and  C_5
REMARK    5  A    between atoms: C_5  and  C_6
REMARK    6  A    between atoms: C_6  and  C_7
REMARK    7  A    between atoms: C_9  and  N_10
REMARK    8  A    between atoms: C_11  and  C_12
REMARK    9  A    between atoms: C_14  and  C_15
REMARK   10  A    between atoms: C_14  and  C_16
REMARK   11  A    between atoms: C_16  and  C_17
REMARK   12  A    between atoms: C_17  and  C_18
REMARK   13  A    between atoms: C_18  and  C_19
REMARK   14  A    between atoms: C_19  and  C_20
REMARK   15  A    between atoms: C_20  and  C_21
REMARK                            x       y       z     vdW  Elec       q    Type
REMARK                         _______ _______ _______ _____ _____    ______ ____
ROOT
ATOM      1  C   UNL     1       3.379   3.924  17.452  0.00  0.00    +0.000 C 
ATOM      2  C   UNL     1       3.222   5.064  18.142  0.00  0.00    +0.000 C 
ATOM      3  C   UNL     1       4.083   6.221  17.973  0.00  0.00    +0.000 C 
ATOM      4  C   UNL     1       5.195   6.106  17.213  0.00  0.00    +0.000 C 
ATOM      5  C   UNL     1       5.568   4.866  16.407  0.00  0.00    +0.000 C 
ATOM      6  C   UNL     1       6.827   4.250  17.062  0.00  0.00    +0.000 C 
ATOM      7  C   UNL     1       4.426   3.814  16.376  0.00  0.00    +0.000 C 
ENDROOT
BRANCH   3   8
ATOM      8  N   UNL     1       3.699   7.358  18.652  0.00  0.00    +0.000 N 
ATOM      9  H   UNL     1       2.709   7.422  18.870  0.00  0.00    +0.000 HD
ATOM     10  H   UNL     1       4.295   7.650  19.418  0.00  0.00    +0.000 HD
ENDBRANCH   3   8
BRANCH   4  11
ATOM     11  C   UNL     1       6.185   7.258  17.157  0.00  0.00    +0.000 C 
ATOM     12  N   UNL     1       7.006   8.213  17.111  0.00  0.00    +0.000 NA
ENDBRANCH   4  11
BRANCH   1  13
ATOM     13  C   UNL     1       2.489   2.721  17.640  0.00  0.00    +0.000 C 
BRANCH  13  14
ATOM     14  C   UNL     1       1.113   3.147  18.158  0.00  0.00    +0.000 C 
BRANCH  14  15
ATOM     15  C   UNL     1       0.818   2.623  19.559  0.00  0.00    +0.000 C 
BRANCH  15  16
ATOM     16  C   UNL     1       0.798   3.797  20.538  0.00  0.00    +0.000 C 
BRANCH  16  18
ATOM     17  C   UNL     1       2.753   2.552  21.483  0.00  0.00    +0.000 C 
ATOM     18  C   UNL     1       2.101   3.915  21.316  0.00  0.00    +0.000 C 
ENDBRANCH  16  18
ENDBRANCH  15  16
ENDBRANCH  14  15
ENDBRANCH  13  14
ENDBRANCH   1  13
BRANCH   5  19
ATOM     19  C   UNL     1       5.863   5.291  14.936  0.00  0.00    +0.000 C 
BRANCH  19  20
ATOM     20  C   UNL     1       7.145   4.701  14.357  0.00  0.00    +0.000 C 
BRANCH  20  21
ATOM     21  C   UNL     1       6.895   4.074  12.987  0.00  0.00    +0.000 C 
BRANCH  21  22
ATOM     22  C   UNL     1       5.439   3.640  12.897  0.00  0.00    +0.000 C 
BRANCH  22  23
ATOM     23  C   UNL     1       5.177   2.801  11.652  0.00  0.00    +0.000 C 
ATOM     24  C   UNL     1       3.869   3.226  11.002  0.00  0.00    +0.000 C 
ENDBRANCH  22  23
ENDBRANCH  21  22
ENDBRANCH  20  21
ENDBRANCH  19  20
ENDBRANCH   5  19
TORSDOF 12
ENDMDL
MODEL 8
REMARK VINA RESULT:      -6.1      1.727      5.517
REMARK  Name = 
REMARK  15 active torsions:
REMARK  status: ('A' for Active; 'I' for Inactive)
REMARK    1  A    between atoms: C_1  and  C_2
REMARK    2  A    between atoms: C_2  and  C_3
REMARK    3  A    between atoms: C_3  and  C_4
REMARK    4  A    between atoms: C_4  and  C_5
REMARK    5  A    between atoms: C_5  and  C_6
REMARK    6  A    between atoms: C_6  and  C_7
REMARK    7  A    between atoms: C_9  and  N_10
REMARK    8  A    between atoms: C_11  and  C_12
REMARK    9  A    between atoms: C_14  and  C_15
REMARK   10  A    between atoms: C_14  and  C_16
REMARK   11  A    between atoms: C_16  and  C_17
REMARK   12  A    between atoms: C_17  and  C_18
REMARK   13  A    between atoms: C_18  and  C_19
REMARK   14  A    between atoms: C_19  and  C_20
REMARK   15  A    between atoms: C_20  and  C_21
REMARK                            x       y       z     vdW  Elec       q    Type
REMARK                         _______ _______ _______ _____ _____    ______ ____
ROOT
ATOM      1  C   UNL     1       2.927   6.963  18.320  0.00  0.00    +0.000 C 
ATOM      2  C   UNL     1       3.848   7.397  17.445  0.00  0.00    +0.000 C 
ATOM      3  C   UNL     1       4.610   6.508  16.586  0.00  0.00    +0.000 C 
ATOM      4  C   UNL     1       4.520   5.173  16.778  0.00  0.00    +0.000 C 
ATOM      5  C   UNL     1       3.575   4.503  17.770  0.00  0.00    +0.000 C 
ATOM      6  C   UNL     1       4.444   3.877  18.887  0.00  0.00    +0.000 C 
ATOM      7  C   UNL     1       2.564   5.505  18.394  0.00  0.00    +0.000 C 
ENDROOT
BRANCH   3   8
ATOM      8  N   UNL     1       5.410   7.123  15.647  0.00  0.00    +0.000 N 
ATOM      9  H   UNL     1       5.022   7.962  15.226  0.00  0.00    +0.000 HD
ATOM     10  H   UNL     1       6.393   7.211  15.878  0.00  0.00    +0.000 HD
ENDBRANCH   3   8
BRANCH   4  11
ATOM     11  C   UNL     1       5.430   4.241  15.995  0.00  0.00    +0.000 C 
ATOM     12  N   UNL     1       6.185   3.468  15.346  0.00  0.00    +0.000 NA
ENDBRANCH   4  11
BRANCH   1  13
ATOM     13  C   UNL     1       2.148   7.891  19.218  0.00  0.00    +0.000 C 
BRANCH  13  14
ATOM     14  C   UNL     1       1.557   9.049  18.411  0.00  0.00    +0.000 C 
BRANCH  14  15
ATOM     15  C   UNL     1       0.607   9.918  19.228  0.00  0.00    +0.000 C 
BRANCH  15  16
ATOM     16  C   UNL     1      -0.328  10.666  18.278  0.00  0.00    +0.000 C 
BRANCH  16  18
ATOM     17  C   UNL     1      -2.221  10.160  16.720  0.00  0.00    +0.000 C 
ATOM     18  C   UNL     1      -1.668   9.961  18.122  0.00  0.00    +0.000 C 
ENDBRANCH  16  18
ENDBRANCH  15  16
ENDBRANCH  14  15
ENDBRANCH  13  14
ENDBRANCH   1  13
BRANCH   5  19
ATOM     19  C   UNL     1       2.757   3.405  17.025  0.00  0.00    +0.000 C 
BRANCH  19  20
ATOM     20  C   UNL     1       2.459   2.165  17.864  0.00  0.00    +0.000 C 
BRANCH  20  21
ATOM     21  C   UNL     1       1.110   2.286  18.567  0.00  0.00    +0.000 C 
BRANCH  21  22
ATOM     22  C   UNL     1       1.314   2.125  20.067  0.00  0.00    +0.000 C 
BRANCH  22  23
ATOM     23  C   UNL     1       1.081   3.434  20.811  0.00  0.00    +0.000 C 
ATOM     24  C   UNL     1       2.262   3.734  21.722  0.00  0.00    +0.000 C 
ENDBRANCH  22  23
ENDBRANCH  21  22
ENDBRANCH  20  21
ENDBRANCH  19  20
ENDBRANCH   5  19
TORSDOF 12
ENDMDL
MODEL 9
REMARK VINA RESULT:      -6.1      2.266      4.819
REMARK  Name = 
REMARK  15 active torsions:
REMARK  status: ('A' for Active; 'I' for Inactive)
REMARK    1  A    between atoms: C_1  and  C_2
REMARK    2  A    between atoms: C_2  and  C_3
REMARK    3  A    between atoms: C_3  and  C_4
REMARK    4  A    between atoms: C_4  and  C_5
REMARK    5  A    between atoms: C_5  and  C_6
REMARK    6  A    between atoms: C_6  and  C_7
REMARK    7  A    between atoms: C_9  and  N_10
REMARK    8  A    between atoms: C_11  and  C_12
REMARK    9  A    between atoms: C_14  and  C_15
REMARK   10  A    between atoms: C_14  and  C_16
REMARK   11  A    between atoms: C_16  and  C_17
REMARK   12  A    between atoms: C_17  and  C_18
REMARK   13  A    between atoms: C_18  and  C_19
REMARK   14  A    between atoms: C_19  and  C_20
REMARK   15  A    between atoms: C_20  and  C_21
REMARK                            x       y       z     vdW  Elec       q    Type
REMARK                         _______ _______ _______ _____ _____    ______ ____
ROOT
ATOM      1  C   UNL     1       5.407   4.856  19.138  0.00  0.00    +0.000 C 
ATOM      2  C   UNL     1       5.195   3.570  18.817  0.00  0.00    +0.000 C 
ATOM      3  C   UNL     1       3.879   3.029  18.530  0.00  0.00    +0.000 C 
ATOM      4  C   UNL     1       2.790   3.799  18.751  0.00  0.00    +0.000 C 
ATOM      5  C   UNL     1       2.837   5.262  19.178  0.00  0.00    +0.000 C 
ATOM      6  C   UNL     1       2.293   5.340  20.624  0.00  0.00    +0.000 C 
ATOM      7  C   UNL     1       4.275   5.847  19.129  0.00  0.00    +0.000 C 
ENDROOT
BRANCH   3   8
ATOM      8  N   UNL     1       3.851   1.727  18.079  0.00  0.00    +0.000 N 
ATOM      9  H   UNL     1       4.310   1.047  18.680  0.00  0.00    +0.000 HD
ATOM     10  H   UNL     1       2.969   1.396  17.704  0.00  0.00    +0.000 HD
ENDBRANCH   3   8
BRANCH   4  11
ATOM     11  C   UNL     1       1.403   3.194  18.607  0.00  0.00    +0.000 C 
ATOM     12  N   UNL     1       0.253   2.691  18.488  0.00  0.00    +0.000 NA
ENDBRANCH   4  11
BRANCH   1  13
ATOM     13  C   UNL     1       6.776   5.409  19.446  0.00  0.00    +0.000 C 
BRANCH  13  14
ATOM     14  C   UNL     1       7.722   5.196  18.262  0.00  0.00    +0.000 C 
BRANCH  14  15
ATOM     15  C   UNL     1       7.286   5.949  17.011  0.00  0.00    +0.000 C 
BRANCH  15  16
ATOM     16  C   UNL     1       7.022   4.945  15.889  0.00  0.00    +0.000 C 
BRANCH  16  18
ATOM     17  C   UNL     1       5.075   6.490  15.588  0.00  0.00    +0.000 C 
ATOM     18  C   UNL     1       5.630   5.105  15.295  0.00  0.00    +0.000 C 
ENDBRANCH  16  18
ENDBRANCH  15  16
ENDBRANCH  14  15
ENDBRANCH  13  14
ENDBRANCH   1  13
BRANCH   5  19
ATOM     19  C   UNL     1       1.950   6.100  18.208  0.00  0.00    +0.000 C 
BRANCH  19  20
ATOM     20  C   UNL     1       2.515   7.476  17.869  0.00  0.00    +0.000 C 
BRANCH  20  21
ATOM     21  C   UNL     1       1.410   8.528  17.813  0.00  0.00    +0.000 C 
BRANCH  21  22
ATOM     22  C   UNL     1       1.318   9.225  19.164  0.00  0.00    +0.000 C 
BRANCH  22  23
ATOM     23  C   UNL     1       0.532  10.527  19.074  0.00  0.00    +0.000 C 
ATOM     24  C   UNL     1      -0.759  10.306  18.300  0.00  0.00    +0.000 C 
ENDBRANCH  22  23
ENDBRANCH  21  22
ENDBRANCH  20  21
ENDBRANCH  19  20
ENDBRANCH   5  19
TORSDOF 12
ENDMDL
