MODEL 1
REMARK VINA RESULT:      -8.4      0.000      0.000
REMARK  Name = 
REMARK  9 active torsions:
REMARK  status: ('A' for Active; 'I' for Inactive)
REMARK    1  A    between atoms: C_1  and  C_2
REMARK    2  A    between atoms: C_2  and  C_3
REMARK    3  A    between atoms: C_3  and  C_4
REMARK    4  A    between atoms: C_4  and  C_5
REMARK    5  A    between atoms: C_5  and  C_6
REMARK    6  A    between atoms: C_12  and  C_13
REMARK    7  A    between atoms: C_17  and  N_18
REMARK    8  A    between atoms: C_19  and  C_21
REMARK    9  A    between atoms: C_31  and  C_32
REMARK                            x       y       z     vdW  Elec       q    Type
REMARK                         _______ _______ _______ _____ _____    ______ ____
ROOT
ATOM      1  C   UNL     1       6.102   4.529  16.257  0.00  0.00    +0.000 C 
ATOM      2  O   UNL     1       7.184   5.098  16.405  0.00  0.00    +0.000 OA
ATOM      3  N   UNL     1       5.065   4.731  17.130  0.00  0.00    +0.000 N 
ATOM      4  C   UNL     1       5.101   5.768  18.141  0.00  0.00    +0.000 C 
ATOM      5  C   UNL     1       3.653   6.215  18.252  0.00  0.00    +0.000 C 
ATOM      6  C   UNL     1       3.302   6.831  19.585  0.00  0.00    +0.000 C 
ATOM      7  C   UNL     1       2.339   7.865  19.103  0.00  0.00    +0.000 C 
ATOM      8  N   UNL     1       2.422   8.125  17.838  0.00  0.00    +0.000 NA
ATOM      9  O   UNL     1       3.415   7.270  17.301  0.00  0.00    +0.000 OA
ATOM     10  C   UNL     1       2.813   4.982  17.859  0.00  0.00    +0.000 C 
ATOM     11  C   UNL     1       3.800   4.005  17.197  0.00  0.00    +0.000 C 
ENDROOT
BRANCH   7  12
ATOM     12  C   UNL     1       1.376   8.528  20.012  0.00  0.00    +0.000 A 
ATOM     13  C   UNL     1       0.866   7.841  21.115  0.00  0.00    +0.000 A 
ATOM     14  C   UNL     1      -0.096   8.447  21.913  0.00  0.00    +0.000 A 
ATOM     15  C   UNL     1      -0.544   9.734  21.619  0.00  0.00    +0.000 A 
ATOM     16  C   UNL     1      -0.025  10.454  20.538  0.00  0.00    +0.000 A 
ATOM     17  C   UNL     1       0.943   9.841  19.733  0.00  0.00    +0.000 A 
BRANCH  16  18
ATOM     18  N   UNL     1      -0.433  11.779  20.234  0.00  0.00    +0.000 N 
ATOM     19  C   UNL     1       0.195  12.943  20.683  0.00  0.00    +0.000 C 
ATOM     20  O   UNL     1       1.110  13.000  21.497  0.00  0.00    +0.000 OA
ATOM     21  H   UNL     1      -1.177  11.898  19.550  0.00  0.00    +0.000 HD
BRANCH  19  22
ATOM     22  C   UNL     1      -0.389  14.247  20.132  0.00  0.00    +0.000 C 
ATOM     23  C   UNL     1      -0.082  14.542  18.671  0.00  0.00    +0.000 C 
ATOM     24  C   UNL     1      -0.043  16.071  18.582  0.00  0.00    +0.000 C 
ATOM     25  C   UNL     1       0.001  16.523  20.018  0.00  0.00    +0.000 C 
ATOM     26  O   UNL     1      -0.042  17.673  20.418  0.00  0.00    +0.000 OA
ATOM     27  N   UNL     1       0.069  15.418  20.834  0.00  0.00    +0.000 N 
ATOM     28  H   UNL     1      -0.113  15.568  21.822  0.00  0.00    +0.000 HD
ENDBRANCH  19  22
ENDBRANCH  16  18
ENDBRANCH   7  12
BRANCH  11  29
ATOM     29  C   UNL     1       3.943   2.707  18.026  0.00  0.00    +0.000 C 
ATOM     30  N   UNL     1       4.885   2.696  19.012  0.00  0.00    +0.000 N 
ATOM     31  O   UNL     1       3.249   1.709  17.817  0.00  0.00    +0.000 OA
ATOM     32  H   UNL     1       5.406   3.525  19.274  0.00  0.00    +0.000 HD
ATOM     33  H   UNL     1       5.022   1.849  19.549  0.00  0.00    +0.000 HD
ENDBRANCH  11  29
BRANCH   1  34
ATOM     34  C   UNL     1       5.873   3.603  15.077  0.00  0.00    +0.000 C 
BRANCH  34  35
ATOM     35  C   UNL     1       6.407   4.191  13.769  0.00  0.00    +0.000 C 
BRANCH  35  36
ATOM     36  C   UNL     1       6.001   3.371  12.539  0.00  0.00    +0.000 C 
BRANCH  36  38
ATOM     37  C   UNL     1       3.997   2.833  11.110  0.00  0.00    +0.000 C 
ATOM     38  C   UNL     1       4.720   3.910  11.902  0.00  0.00    +0.000 C 
ENDBRANCH  36  38
ENDBRANCH  35  36
ENDBRANCH  34  35
ENDBRANCH   1  34
TORSDOF 8
ENDMDL
MODEL 2
REMARK VINA RESULT:      -8.3      0.828      1.121
REMARK  Name = 
REMARK  9 active torsions:
REMARK  status: ('A' for Active; 'I' for Inactive)
REMARK    1  A    between atoms: C_1  and  C_2
REMARK    2  A    between atoms: C_2  and  C_3
REMARK    3  A    between atoms: C_3  and  C_4
REMARK    4  A    between atoms: C_4  and  C_5
REMARK    5  A    between atoms: C_5  and  C_6
REMARK    6  A    between atoms: C_12  and  C_13
REMARK    7  A    between atoms: C_17  and  N_18
REMARK    8  A    between atoms: C_19  and  C_21
REMARK    9  A    between atoms: C_31  and  C_32
REMARK                            x       y       z     vdW  Elec       q    Type
REMARK                         _______ _______ _______ _____ _____    ______ ____
ROOT
ATOM      1  C   UNL     1       5.968   4.369  16.649  0.00  0.00    +0.000 C 
ATOM      2  O   UNL     1       7.078   4.815  16.944  0.00  0.00    +0.000 OA
ATOM      3  N   UNL     1       4.866   4.629  17.423  0.00  0.00    +0.000 N 
ATOM      4  C   UNL     1       4.892   5.600  18.497  0.00  0.00    +0.000 C 
ATOM      5  C   UNL     1       3.491   6.187  18.488  0.00  0.00    +0.000 C 
ATOM      6  C   UNL     1       3.058   6.763  19.814  0.00  0.00    +0.000 C 
ATOM      7  C   UNL     1       2.258   7.915  19.304  0.00  0.00    +0.000 C 
ATOM      8  N   UNL     1       2.502   8.233  18.073  0.00  0.00    +0.000 NA
ATOM      9  O   UNL     1       3.461   7.311  17.587  0.00  0.00    +0.000 OA
ATOM     10  C   UNL     1       2.584   5.070  17.931  0.00  0.00    +0.000 C 
ATOM     11  C   UNL     1       3.537   4.035  17.312  0.00  0.00    +0.000 C 
ENDROOT
BRANCH   7  12
ATOM     12  C   UNL     1       1.270   8.623  20.150  0.00  0.00    +0.000 A 
ATOM     13  C   UNL     1       0.765   8.012  21.299  0.00  0.00    +0.000 A 
ATOM     14  C   UNL     1      -0.220   8.654  22.040  0.00  0.00    +0.000 A 
ATOM     15  C   UNL     1      -0.694   9.904  21.642  0.00  0.00    +0.000 A 
ATOM     16  C   UNL     1      -0.180  10.550  20.513  0.00  0.00    +0.000 A 
ATOM     17  C   UNL     1       0.810   9.899  19.766  0.00  0.00    +0.000 A 
BRANCH  16  18
ATOM     18  N   UNL     1      -0.616  11.837  20.103  0.00  0.00    +0.000 N 
ATOM     19  C   UNL     1      -0.177  13.049  20.640  0.00  0.00    +0.000 C 
ATOM     20  O   UNL     1       0.551  13.183  21.617  0.00  0.00    +0.000 OA
ATOM     21  H   UNL     1      -1.216  11.893  19.283  0.00  0.00    +0.000 HD
BRANCH  19  22
ATOM     22  C   UNL     1      -0.735  14.300  19.954  0.00  0.00    +0.000 C 
ATOM     23  C   UNL     1      -0.024  14.724  18.676  0.00  0.00    +0.000 C 
ATOM     24  C   UNL     1      -0.176  16.248  18.633  0.00  0.00    +0.000 C 
ATOM     25  C   UNL     1      -0.655  16.610  20.015  0.00  0.00    +0.000 C 
ATOM     26  O   UNL     1      -0.985  17.717  20.400  0.00  0.00    +0.000 OA
ATOM     27  N   UNL     1      -0.694  15.473  20.787  0.00  0.00    +0.000 N 
ATOM     28  H   UNL     1      -1.200  15.537  21.666  0.00  0.00    +0.000 HD
ENDBRANCH  19  22
ENDBRANCH  16  18
ENDBRANCH   7  12
BRANCH  11  29
ATOM     29  C   UNL     1       3.463   2.685  18.065  0.00  0.00    +0.000 C 
ATOM     30  N   UNL     1       2.588   1.753  17.591  0.00  0.00    +0.000 N 
ATOM     31  O   UNL     1       4.152   2.444  19.059  0.00  0.00    +0.000 OA
ATOM     32  H   UNL     1       2.077   1.879  16.725  0.00  0.00    +0.000 HD
ATOM     33  H   UNL     1       2.496   0.873  18.082  0.00  0.00    +0.000 HD
ENDBRANCH  11  29
BRANCH   1  34
ATOM     34  C   UNL     1       5.781   3.537  15.394  0.00  0.00    +0.000 C 
BRANCH  34  35
ATOM     35  C   UNL     1       5.574   4.404  14.151  0.00  0.00    +0.000 C 
BRANCH  35  36
ATOM     36  C   UNL     1       5.637   3.600  12.848  0.00  0.00    +0.000 C 
BRANCH  36  38
ATOM     37  C   UNL     1       7.650   5.090  12.569  0.00  0.00    +0.000 C 
ATOM     38  C   UNL     1       6.967   3.807  12.123  0.00  0.00    +0.000 C 
ENDBRANCH  36  38
ENDBRANCH  35  36
ENDBRANCH  34  35
ENDBRANCH   1  34
TORSDOF 8
ENDMDL
MODEL 3
REMARK VINA RESULT:      -8.2      2.481     10.864
REMARK  Name = 
REMARK  9 active torsions:
REMARK  status: ('A' for Active; 'I' for Inactive)
REMARK    1  A    between atoms: C_1  and  C_2
REMARK    2  A    between atoms: C_2  and  C_3
REMARK    3  A    between atoms: C_3  and  C_4
REMARK    4  A    between atoms: C_4  and  C_5
REMARK    5  A    between atoms: C_5  and  C_6
REMARK    6  A    between atoms: C_12  and  C_13
REMARK    7  A    between atoms: C_17  and  N_18
REMARK    8  A    between atoms: C_19  and  C_21
REMARK    9  A    between atoms: C_31  and  C_32
REMARK                            x       y       z     vdW  Elec       q    Type
REMARK                         _______ _______ _______ _____ _____    ______ ____
ROOT
ATOM      1  C   UNL     1      -0.064  13.081  21.186  0.00  0.00    +0.000 C 
ATOM      2  O   UNL     1       0.936  13.628  21.652  0.00  0.00    +0.000 OA
ATOM      3  N   UNL     1       0.028  11.914  20.472  0.00  0.00    +0.000 N 
ATOM      4  C   UNL     1       1.256  11.150  20.402  0.00  0.00    +0.000 C 
ATOM      5  C   UNL     1       0.783   9.709  20.330  0.00  0.00    +0.000 C 
ATOM      6  C   UNL     1       1.768   8.770  19.676  0.00  0.00    +0.000 C 
ATOM      7  C   UNL     1       1.513   7.562  20.515  0.00  0.00    +0.000 C 
ATOM      8  N   UNL     1       0.909   7.806  21.634  0.00  0.00    +0.000 NA
ATOM      9  O   UNL     1       0.641   9.196  21.669  0.00  0.00    +0.000 OA
ATOM     10  C   UNL     1      -0.607   9.768  19.663  0.00  0.00    +0.000 C 
ATOM     11  C   UNL     1      -1.024  11.247  19.711  0.00  0.00    +0.000 C 
ENDROOT
BRANCH   7  12
ATOM     12  C   UNL     1       1.924   6.206  20.087  0.00  0.00    +0.000 A 
ATOM     13  C   UNL     1       1.383   5.080  20.712  0.00  0.00    +0.000 A 
ATOM     14  C   UNL     1       1.836   3.816  20.355  0.00  0.00    +0.000 A 
ATOM     15  C   UNL     1       2.817   3.673  19.375  0.00  0.00    +0.000 A 
ATOM     16  C   UNL     1       3.350   4.784  18.712  0.00  0.00    +0.000 A 
ATOM     17  C   UNL     1       2.895   6.057  19.076  0.00  0.00    +0.000 A 
BRANCH  16  18
ATOM     18  N   UNL     1       4.324   4.669  17.686  0.00  0.00    +0.000 N 
ATOM     19  C   UNL     1       5.686   4.432  17.885  0.00  0.00    +0.000 C 
ATOM     20  O   UNL     1       6.263   4.409  18.967  0.00  0.00    +0.000 OA
ATOM     21  H   UNL     1       3.995   4.650  16.724  0.00  0.00    +0.000 HD
BRANCH  19  22
ATOM     22  C   UNL     1       6.507   4.257  16.604  0.00  0.00    +0.000 C 
ATOM     23  C   UNL     1       7.091   5.533  16.015  0.00  0.00    +0.000 C 
ATOM     24  C   UNL     1       7.141   5.278  14.505  0.00  0.00    +0.000 C 
ATOM     25  C   UNL     1       6.298   4.044  14.311  0.00  0.00    +0.000 C 
ATOM     26  O   UNL     1       6.131   3.437  13.269  0.00  0.00    +0.000 OA
ATOM     27  N   UNL     1       5.756   3.678  15.521  0.00  0.00    +0.000 N 
ATOM     28  H   UNL     1       5.347   2.750  15.575  0.00  0.00    +0.000 HD
ENDBRANCH  19  22
ENDBRANCH  16  18
ENDBRANCH   7  12
BRANCH  11  29
ATOM     29  C   UNL     1      -1.147  11.840  18.287  0.00  0.00    +0.000 C 
ATOM     30  N   UNL     1      -1.642  11.025  17.312  0.00  0.00    +0.000 N 
ATOM     31  O   UNL     1      -0.809  12.996  18.021  0.00  0.00    +0.000 OA
ATOM     32  H   UNL     1      -2.016  10.105  17.512  0.00  0.00    +0.000 HD
ATOM     33  H   UNL     1      -1.704  11.377  16.365  0.00  0.00    +0.000 HD
ENDBRANCH  11  29
BRANCH   1  34
ATOM     34  C   UNL     1      -1.443  13.671  21.416  0.00  0.00    +0.000 C 
BRANCH  34  35
ATOM     35  C   UNL     1      -1.489  14.567  22.655  0.00  0.00    +0.000 C 
BRANCH  35  36
ATOM     36  C   UNL     1      -2.694  14.273  23.557  0.00  0.00    +0.000 C 
BRANCH  36  38
ATOM     37  C   UNL     1      -4.185  12.469  24.488  0.00  0.00    +0.000 C 
ATOM     38  C   UNL     1      -3.146  12.819  23.435  0.00  0.00    +0.000 C 
ENDBRANCH  36  38
ENDBRANCH  35  36
ENDBRANCH  34  35
ENDBRANCH   1  34
TORSDOF 8
ENDMDL
MODEL 4
REMARK VINA RESULT:      -8.1      1.194      1.342
REMARK  Name = 
REMARK  9 active torsions:
REMARK  status: ('A' for Active; 'I' for Inactive)
REMARK    1  A    between atoms: C_1  and  C_2
REMARK    2  A    between atoms: C_2  and  C_3
REMARK    3  A    between atoms: C_3  and  C_4
REMARK    4  A    between atoms: C_4  and  C_5
REMARK    5  A    between atoms: C_5  and  C_6
REMARK    6  A    between atoms: C_12  and  C_13
REMARK    7  A    between atoms: C_17  and  N_18
REMARK    8  A    between atoms: C_19  and  C_21
REMARK    9  A    between atoms: C_31  and  C_32
REMARK                            x       y       z     vdW  Elec       q    Type
REMARK                         _______ _______ _______ _____ _____    ______ ____
ROOT
ATOM      1  C   UNL     1       5.535   4.225  17.023  0.00  0.00    +0.000 C 
ATOM      2  O   UNL     1       6.671   4.572  17.350  0.00  0.00    +0.000 OA
ATOM      3  N   UNL     1       4.437   4.593  17.758  0.00  0.00    +0.000 N 
ATOM      4  C   UNL     1       4.518   5.569  18.824  0.00  0.00    +0.000 C 
ATOM      5  C   UNL     1       3.176   6.281  18.764  0.00  0.00    +0.000 C 
ATOM      6  C   UNL     1       2.756   6.908  20.071  0.00  0.00    +0.000 C 
ATOM      7  C   UNL     1       2.080   8.122  19.526  0.00  0.00    +0.000 C 
ATOM      8  N   UNL     1       2.391   8.403  18.301  0.00  0.00    +0.000 NA
ATOM      9  O   UNL     1       3.277   7.392  17.854  0.00  0.00    +0.000 OA
ATOM     10  C   UNL     1       2.190   5.244  18.188  0.00  0.00    +0.000 C 
ATOM     11  C   UNL     1       3.064   4.120  17.609  0.00  0.00    +0.000 C 
ENDROOT
BRANCH   7  12
ATOM     12  C   UNL     1       1.135   8.926  20.333  0.00  0.00    +0.000 A 
ATOM     13  C   UNL     1       0.350   8.313  21.311  0.00  0.00    +0.000 A 
ATOM     14  C   UNL     1      -0.589   9.065  22.006  0.00  0.00    +0.000 A 
ATOM     15  C   UNL     1      -0.741  10.423  21.734  0.00  0.00    +0.000 A 
ATOM     16  C   UNL     1       0.055  11.067  20.781  0.00  0.00    +0.000 A 
ATOM     17  C   UNL     1       0.999  10.307  20.079  0.00  0.00    +0.000 A 
BRANCH  16  18
ATOM     18  N   UNL     1      -0.051  12.456  20.506  0.00  0.00    +0.000 N 
ATOM     19  C   UNL     1       0.899  13.422  20.845  0.00  0.00    +0.000 C 
ATOM     20  O   UNL     1       1.900  13.241  21.529  0.00  0.00    +0.000 OA
ATOM     21  H   UNL     1      -0.826  12.764  19.925  0.00  0.00    +0.000 HD
BRANCH  19  22
ATOM     22  C   UNL     1       0.587  14.838  20.350  0.00  0.00    +0.000 C 
ATOM     23  C   UNL     1      -0.669  14.978  19.502  0.00  0.00    +0.000 C 
ATOM     24  C   UNL     1      -0.368  16.138  18.548  0.00  0.00    +0.000 C 
ATOM     25  C   UNL     1       1.117  16.354  18.686  0.00  0.00    +0.000 C 
ATOM     26  O   UNL     1       1.773  17.238  18.166  0.00  0.00    +0.000 OA
ATOM     27  N   UNL     1       1.631  15.399  19.533  0.00  0.00    +0.000 N 
ATOM     28  H   UNL     1       2.572  15.558  19.881  0.00  0.00    +0.000 HD
ENDBRANCH  19  22
ENDBRANCH  16  18
ENDBRANCH   7  12
BRANCH  11  29
ATOM     29  C   UNL     1       2.844   2.791  18.371  0.00  0.00    +0.000 C 
ATOM     30  N   UNL     1       2.436   1.714  17.642  0.00  0.00    +0.000 N 
ATOM     31  O   UNL     1       3.017   2.690  19.588  0.00  0.00    +0.000 OA
ATOM     32  H   UNL     1       2.376   1.735  16.630  0.00  0.00    +0.000 HD
ATOM     33  H   UNL     1       2.255   0.840  18.119  0.00  0.00    +0.000 HD
ENDBRANCH  11  29
BRANCH   1  34
ATOM     34  C   UNL     1       5.312   3.399  15.769  0.00  0.00    +0.000 C 
BRANCH  34  35
ATOM     35  C   UNL     1       5.998   4.009  14.546  0.00  0.00    +0.000 C 
BRANCH  35  36
ATOM     36  C   UNL     1       5.107   4.002  13.299  0.00  0.00    +0.000 C 
BRANCH  36  38
ATOM     37  C   UNL     1       7.131   3.794  11.813  0.00  0.00    +0.000 C 
ATOM     38  C   UNL     1       5.757   3.235  12.147  0.00  0.00    +0.000 C 
ENDBRANCH  36  38
ENDBRANCH  35  36
ENDBRANCH  34  35
ENDBRANCH   1  34
TORSDOF 8
ENDMDL
MODEL 5
REMARK VINA RESULT:      -8.1      3.632      4.539
REMARK  Name = 
REMARK  9 active torsions:
REMARK  status: ('A' for Active; 'I' for Inactive)
REMARK    1  A    between atoms: C_1  and  C_2
REMARK    2  A    between atoms: C_2  and  C_3
REMARK    3  A    between atoms: C_3  and  C_4
REMARK    4  A    between atoms: C_4  and  C_5
REMARK    5  A    between atoms: C_5  and  C_6
REMARK    6  A    between atoms: C_12  and  C_13
REMARK    7  A    between atoms: C_17  and  N_18
REMARK    8  A    between atoms: C_19  and  C_21
REMARK    9  A    between atoms: C_31  and  C_32
REMARK                            x       y       z     vdW  Elec       q    Type
REMARK                         _______ _______ _______ _____ _____    ______ ____
ROOT
ATOM      1  C   UNL     1       4.523   4.127  18.585  0.00  0.00    +0.000 C 
ATOM      2  O   UNL     1       5.503   4.311  19.308  0.00  0.00    +0.000 OA
ATOM      3  N   UNL     1       3.419   4.937  18.661  0.00  0.00    +0.000 N 
ATOM      4  C   UNL     1       3.416   6.164  19.429  0.00  0.00    +0.000 C 
ATOM      5  C   UNL     1       2.507   7.086  18.634  0.00  0.00    +0.000 C 
ATOM      6  C   UNL     1       1.866   8.176  19.458  0.00  0.00    +0.000 C 
ATOM      7  C   UNL     1       1.880   9.264  18.436  0.00  0.00    +0.000 C 
ATOM      8  N   UNL     1       2.696   9.061  17.451  0.00  0.00    +0.000 NA
ATOM      9  O   UNL     1       3.297   7.797  17.661  0.00  0.00    +0.000 OA
ATOM     10  C   UNL     1       1.521   6.154  17.900  0.00  0.00    +0.000 C 
ATOM     11  C   UNL     1       2.125   4.744  18.013  0.00  0.00    +0.000 C 
ENDROOT
BRANCH   7  12
ATOM     12  C   UNL     1       1.026  10.467  18.555  0.00  0.00    +0.000 A 
ATOM     13  C   UNL     1       1.592  11.699  18.885  0.00  0.00    +0.000 A 
ATOM     14  C   UNL     1       0.768  12.803  19.071  0.00  0.00    +0.000 A 
ATOM     15  C   UNL     1      -0.612  12.682  18.921  0.00  0.00    +0.000 A 
ATOM     16  C   UNL     1      -1.200  11.465  18.558  0.00  0.00    +0.000 A 
ATOM     17  C   UNL     1      -0.369  10.353  18.375  0.00  0.00    +0.000 A 
BRANCH  16  18
ATOM     18  N   UNL     1      -2.598  11.319  18.363  0.00  0.00    +0.000 N 
ATOM     19  C   UNL     1      -3.236  11.228  17.124  0.00  0.00    +0.000 C 
ATOM     20  O   UNL     1      -2.708  11.381  16.028  0.00  0.00    +0.000 OA
ATOM     21  H   UNL     1      -3.175  11.160  19.184  0.00  0.00    +0.000 HD
BRANCH  19  22
ATOM     22  C   UNL     1      -4.746  10.978  17.190  0.00  0.00    +0.000 C 
ATOM     23  C   UNL     1      -5.625  12.217  17.091  0.00  0.00    +0.000 C 
ATOM     24  C   UNL     1      -6.870  11.879  17.915  0.00  0.00    +0.000 C 
ATOM     25  C   UNL     1      -6.482  10.641  18.680  0.00  0.00    +0.000 C 
ATOM     26  O   UNL     1      -7.204   9.978  19.402  0.00  0.00    +0.000 OA
ATOM     27  N   UNL     1      -5.166  10.344  18.412  0.00  0.00    +0.000 N 
ATOM     28  H   UNL     1      -4.841   9.422  18.689  0.00  0.00    +0.000 HD
ENDBRANCH  19  22
ENDBRANCH  16  18
ENDBRANCH   7  12
BRANCH  11  29
ATOM     29  C   UNL     1       1.215   3.812  18.847  0.00  0.00    +0.000 C 
ATOM     30  N   UNL     1       0.908   4.209  20.115  0.00  0.00    +0.000 N 
ATOM     31  O   UNL     1       0.780   2.745  18.406  0.00  0.00    +0.000 OA
ATOM     32  H   UNL     1       1.168   5.120  20.476  0.00  0.00    +0.000 HD
ATOM     33  H   UNL     1       0.339   3.603  20.693  0.00  0.00    +0.000 HD
ENDBRANCH  11  29
BRANCH   1  34
ATOM     34  C   UNL     1       4.521   3.009  17.560  0.00  0.00    +0.000 C 
BRANCH  34  35
ATOM     35  C   UNL     1       4.761   3.525  16.140  0.00  0.00    +0.000 C 
BRANCH  35  36
ATOM     36  C   UNL     1       6.241   3.793  15.847  0.00  0.00    +0.000 C 
BRANCH  36  38
ATOM     37  C   UNL     1       7.148   4.831  13.738  0.00  0.00    +0.000 C 
ATOM     38  C   UNL     1       6.433   5.086  15.056  0.00  0.00    +0.000 C 
ENDBRANCH  36  38
ENDBRANCH  35  36
ENDBRANCH  34  35
ENDBRANCH   1  34
TORSDOF 8
ENDMDL
MODEL 6
REMARK VINA RESULT:      -8.0      2.269     10.637
REMARK  Name = 
REMARK  9 active torsions:
REMARK  status: ('A' for Active; 'I' for Inactive)
REMARK    1  A    between atoms: C_1  and  C_2
REMARK    2  A    between atoms: C_2  and  C_3
REMARK    3  A    between atoms: C_3  and  C_4
REMARK    4  A    between atoms: C_4  and  C_5
REMARK    5  A    between atoms: C_5  and  C_6
REMARK    6  A    between atoms: C_12  and  C_13
REMARK    7  A    between atoms: C_17  and  N_18
REMARK    8  A    between atoms: C_19  and  C_21
REMARK    9  A    between atoms: C_31  and  C_32
REMARK                            x       y       z     vdW  Elec       q    Type
REMARK                         _______ _______ _______ _____ _____    ______ ____
ROOT
ATOM      1  C   UNL     1      -0.354  13.636  19.723  0.00  0.00    +0.000 C 
ATOM      2  O   UNL     1       0.649  14.323  19.529  0.00  0.00    +0.000 OA
ATOM      3  N   UNL     1      -0.370  12.297  19.426  0.00  0.00    +0.000 N 
ATOM      4  C   UNL     1       0.834  11.573  19.072  0.00  0.00    +0.000 C 
ATOM      5  C   UNL     1       0.604  10.186  19.647  0.00  0.00    +0.000 C 
ATOM      6  C   UNL     1       1.383   9.097  18.951  0.00  0.00    +0.000 C 
ATOM      7  C   UNL     1       1.676   8.241  20.139  0.00  0.00    +0.000 C 
ATOM      8  N   UNL     1       1.535   8.841  21.278  0.00  0.00    +0.000 NA
ATOM      9  O   UNL     1       1.088  10.157  21.003  0.00  0.00    +0.000 OA
ATOM     10  C   UNL     1      -0.927   9.995  19.653  0.00  0.00    +0.000 C 
ATOM     11  C   UNL     1      -1.518  11.396  19.426  0.00  0.00    +0.000 C 
ENDROOT
BRANCH   7  12
ATOM     12  C   UNL     1       2.092   6.827  20.007  0.00  0.00    +0.000 A 
ATOM     13  C   UNL     1       1.502   5.846  20.806  0.00  0.00    +0.000 A 
ATOM     14  C   UNL     1       1.957   4.535  20.728  0.00  0.00    +0.000 A 
ATOM     15  C   UNL     1       2.989   4.201  19.853  0.00  0.00    +0.000 A 
ATOM     16  C   UNL     1       3.574   5.160  19.020  0.00  0.00    +0.000 A 
ATOM     17  C   UNL     1       3.116   6.481  19.102  0.00  0.00    +0.000 A 
BRANCH  16  18
ATOM     18  N   UNL     1       4.602   4.845  18.093  0.00  0.00    +0.000 N 
ATOM     19  C   UNL     1       4.590   3.764  17.209  0.00  0.00    +0.000 C 
ATOM     20  O   UNL     1       3.758   2.863  17.181  0.00  0.00    +0.000 OA
ATOM     21  H   UNL     1       5.360   5.513  17.984  0.00  0.00    +0.000 HD
BRANCH  19  22
ATOM     22  C   UNL     1       5.780   3.702  16.246  0.00  0.00    +0.000 C 
ATOM     23  C   UNL     1       6.797   4.826  16.382  0.00  0.00    +0.000 C 
ATOM     24  C   UNL     1       7.364   5.012  14.972  0.00  0.00    +0.000 C 
ATOM     25  C   UNL     1       6.420   4.236  14.090  0.00  0.00    +0.000 C 
ATOM     26  O   UNL     1       6.539   4.044  12.893  0.00  0.00    +0.000 OA
ATOM     27  N   UNL     1       5.395   3.739  14.860  0.00  0.00    +0.000 N 
ATOM     28  H   UNL     1       4.812   3.023  14.436  0.00  0.00    +0.000 HD
ENDBRANCH  19  22
ENDBRANCH  16  18
ENDBRANCH   7  12
BRANCH  11  29
ATOM     29  C   UNL     1      -2.287  11.468  18.086  0.00  0.00    +0.000 C 
ATOM     30  N   UNL     1      -1.604  11.129  16.955  0.00  0.00    +0.000 N 
ATOM     31  O   UNL     1      -3.466  11.823  18.018  0.00  0.00    +0.000 OA
ATOM     32  H   UNL     1      -0.667  10.743  16.982  0.00  0.00    +0.000 HD
ATOM     33  H   UNL     1      -2.074  11.197  16.061  0.00  0.00    +0.000 HD
ENDBRANCH  11  29
BRANCH   1  34
ATOM     34  C   UNL     1      -1.603  14.248  20.330  0.00  0.00    +0.000 C 
BRANCH  34  35
ATOM     35  C   UNL     1      -1.406  14.626  21.799  0.00  0.00    +0.000 C 
BRANCH  35  36
ATOM     36  C   UNL     1      -0.857  13.470  22.642  0.00  0.00    +0.000 C 
BRANCH  36  38
ATOM     37  C   UNL     1      -1.410  11.072  23.184  0.00  0.00    +0.000 C 
ATOM     38  C   UNL     1      -1.958  12.482  23.025  0.00  0.00    +0.000 C 
ENDBRANCH  36  38
ENDBRANCH  35  36
ENDBRANCH  34  35
ENDBRANCH   1  34
TORSDOF 8
ENDMDL
MODEL 7
REMARK VINA RESULT:      -8.0      2.477      3.134
REMARK  Name = 
REMARK  9 active torsions:
REMARK  status: ('A' for Active; 'I' for Inactive)
REMARK    1  A    between atoms: C_1  and  C_2
REMARK    2  A    between atoms: C_2  and  C_3
REMARK    3  A    between atoms: C_3  and  C_4
REMARK    4  A    between atoms: C_4  and  C_5
REMARK    5  A    between atoms: C_5  and  C_6
REMARK    6  A    between atoms: C_12  and  C_13
REMARK    7  A    between atoms: C_17  and  N_18
REMARK    8  A    between atoms: C_19  and  C_21
REMARK    9  A    between atoms: C_31  and  C_32
REMARK                            x       y       z     vdW  Elec       q    Type
REMARK                         _______ _______ _______ _____ _____    ______ ____
ROOT
ATOM      1  C   UNL     1       5.544   5.016  18.343  0.00  0.00    +0.000 C 
ATOM      2  O   UNL     1       6.415   5.420  19.113  0.00  0.00    +0.000 OA
ATOM      3  N   UNL     1       4.239   5.419  18.466  0.00  0.00    +0.000 N 
ATOM      4  C   UNL     1       3.846   6.489  19.359  0.00  0.00    +0.000 C 
ATOM      5  C   UNL     1       2.688   7.156  18.636  0.00  0.00    +0.000 C 
ATOM      6  C   UNL     1       1.734   7.887  19.550  0.00  0.00    +0.000 C 
ATOM      7  C   UNL     1       1.398   9.030  18.649  0.00  0.00    +0.000 C 
ATOM      8  N   UNL     1       2.234   9.208  17.676  0.00  0.00    +0.000 NA
ATOM      9  O   UNL     1       3.208   8.184  17.771  0.00  0.00    +0.000 OA
ATOM     10  C   UNL     1       2.050   6.047  17.775  0.00  0.00    +0.000 C 
ATOM     11  C   UNL     1       3.073   4.899  17.759  0.00  0.00    +0.000 C 
ENDROOT
BRANCH   7  12
ATOM     12  C   UNL     1       0.204   9.878  18.866  0.00  0.00    +0.000 A 
ATOM     13  C   UNL     1      -0.645  10.177  17.800  0.00  0.00    +0.000 A 
ATOM     14  C   UNL     1      -1.717  11.039  18.000  0.00  0.00    +0.000 A 
ATOM     15  C   UNL     1      -1.947  11.593  19.258  0.00  0.00    +0.000 A 
ATOM     16  C   UNL     1      -1.128  11.282  20.349  0.00  0.00    +0.000 A 
ATOM     17  C   UNL     1      -0.047  10.417  20.145  0.00  0.00    +0.000 A 
BRANCH  16  18
ATOM     18  N   UNL     1      -1.357  11.802  21.650  0.00  0.00    +0.000 N 
ATOM     19  C   UNL     1      -1.023  13.089  22.078  0.00  0.00    +0.000 C 
ATOM     20  O   UNL     1      -0.380  13.916  21.440  0.00  0.00    +0.000 OA
ATOM     21  H   UNL     1      -1.901  11.235  22.296  0.00  0.00    +0.000 HD
BRANCH  19  22
ATOM     22  C   UNL     1      -1.463  13.432  23.504  0.00  0.00    +0.000 C 
ATOM     23  C   UNL     1      -2.966  13.469  23.739  0.00  0.00    +0.000 C 
ATOM     24  C   UNL     1      -3.162  14.511  24.845  0.00  0.00    +0.000 C 
ATOM     25  C   UNL     1      -1.834  15.217  24.926  0.00  0.00    +0.000 C 
ATOM     26  O   UNL     1      -1.515  16.071  25.734  0.00  0.00    +0.000 OA
ATOM     27  N   UNL     1      -1.003  14.722  23.948  0.00  0.00    +0.000 N 
ATOM     28  H   UNL     1      -0.018  14.953  24.027  0.00  0.00    +0.000 HD
ENDBRANCH  19  22
ENDBRANCH  16  18
ENDBRANCH   7  12
BRANCH  11  29
ATOM     29  C   UNL     1       2.510   3.639  18.457  0.00  0.00    +0.000 C 
ATOM     30  N   UNL     1       1.407   3.801  19.243  0.00  0.00    +0.000 N 
ATOM     31  O   UNL     1       3.025   2.525  18.330  0.00  0.00    +0.000 OA
ATOM     32  H   UNL     1       0.902   4.678  19.295  0.00  0.00    +0.000 HD
ATOM     33  H   UNL     1       1.035   2.999  19.737  0.00  0.00    +0.000 HD
ENDBRANCH  11  29
BRANCH   1  34
ATOM     34  C   UNL     1       5.897   4.075  17.205  0.00  0.00    +0.000 C 
BRANCH  34  35
ATOM     35  C   UNL     1       7.202   4.471  16.511  0.00  0.00    +0.000 C 
BRANCH  35  36
ATOM     36  C   UNL     1       7.006   4.824  15.033  0.00  0.00    +0.000 C 
BRANCH  36  38
ATOM     37  C   UNL     1       5.971   3.647  13.061  0.00  0.00    +0.000 C 
ATOM     38  C   UNL     1       5.740   4.184  14.464  0.00  0.00    +0.000 C 
ENDBRANCH  36  38
ENDBRANCH  35  36
ENDBRANCH  34  35
ENDBRANCH   1  34
TORSDOF 8
ENDMDL
MODEL 8
REMARK VINA RESULT:      -8.0      2.506     10.906
REMARK  Name = 
REMARK  9 active torsions:
REMARK  status: ('A' for Active; 'I' for Inactive)
REMARK    1  A    between atoms: C_1  and  C_2
REMARK    2  A    between atoms: C_2  and  C_3
REMARK    3  A    between atoms: C_3  and  C_4
REMARK    4  A    between atoms: C_4  and  C_5
REMARK    5  A    between atoms: C_5  and  C_6
REMARK    6  A    between atoms: C_12  and  C_13
REMARK    7  A    between atoms: C_17  and  N_18
REMARK    8  A    between atoms: C_19  and  C_21
REMARK    9  A    between atoms: C_31  and  C_32
REMARK                            x       y       z     vdW  Elec       q    Type
REMARK                         _______ _______ _______ _____ _____    ______ ____
ROOT
ATOM      1  C   UNL     1      -0.152  13.564  20.055  0.00  0.00    +0.000 C 
ATOM      2  O   UNL     1       0.887  14.225  20.097  0.00  0.00    +0.000 OA
ATOM      3  N   UNL     1      -0.153  12.264  19.618  0.00  0.00    +0.000 N 
ATOM      4  C   UNL     1       1.073  11.530  19.384  0.00  0.00    +0.000 C 
ATOM      5  C   UNL     1       0.718  10.103  19.764  0.00  0.00    +0.000 C 
ATOM      6  C   UNL     1       1.572   9.057  19.088  0.00  0.00    +0.000 C 
ATOM      7  C   UNL     1       1.647   8.075  20.209  0.00  0.00    +0.000 C 
ATOM      8  N   UNL     1       1.339   8.562  21.369  0.00  0.00    +0.000 NA
ATOM      9  O   UNL     1       0.975   9.916  21.169  0.00  0.00    +0.000 OA
ATOM     10  C   UNL     1      -0.798   9.976  19.507  0.00  0.00    +0.000 C 
ATOM     11  C   UNL     1      -1.309  11.417  19.341  0.00  0.00    +0.000 C 
ENDROOT
BRANCH   7  12
ATOM     12  C   UNL     1       2.042   6.664  19.995  0.00  0.00    +0.000 A 
ATOM     13  C   UNL     1       1.600   5.671  20.871  0.00  0.00    +0.000 A 
ATOM     14  C   UNL     1       2.043   4.365  20.704  0.00  0.00    +0.000 A 
ATOM     15  C   UNL     1       2.916   4.047  19.665  0.00  0.00    +0.000 A 
ATOM     16  C   UNL     1       3.348   5.018  18.755  0.00  0.00    +0.000 A 
ATOM     17  C   UNL     1       2.903   6.335  18.927  0.00  0.00    +0.000 A 
BRANCH  16  18
ATOM     18  N   UNL     1       4.208   4.720  17.666  0.00  0.00    +0.000 N 
ATOM     19  C   UNL     1       5.604   4.712  17.717  0.00  0.00    +0.000 C 
ATOM     20  O   UNL     1       6.293   5.075  18.663  0.00  0.00    +0.000 OA
ATOM     21  H   UNL     1       3.781   4.381  16.808  0.00  0.00    +0.000 HD
BRANCH  19  22
ATOM     22  C   UNL     1       6.295   4.263  16.426  0.00  0.00    +0.000 C 
ATOM     23  C   UNL     1       7.261   5.267  15.811  0.00  0.00    +0.000 C 
ATOM     24  C   UNL     1       7.195   4.998  14.305  0.00  0.00    +0.000 C 
ATOM     25  C   UNL     1       5.985   4.117  14.139  0.00  0.00    +0.000 C 
ATOM     26  O   UNL     1       5.606   3.593  13.107  0.00  0.00    +0.000 OA
ATOM     27  N   UNL     1       5.374   3.961  15.361  0.00  0.00    +0.000 N 
ATOM     28  H   UNL     1       4.680   3.223  15.433  0.00  0.00    +0.000 HD
ENDBRANCH  19  22
ENDBRANCH  16  18
ENDBRANCH   7  12
BRANCH  11  29
ATOM     29  C   UNL     1      -1.849  11.657  17.911  0.00  0.00    +0.000 C 
ATOM     30  N   UNL     1      -1.311  12.694  17.207  0.00  0.00    +0.000 N 
ATOM     31  O   UNL     1      -2.733  10.958  17.411  0.00  0.00    +0.000 OA
ATOM     32  H   UNL     1      -0.520  13.229  17.547  0.00  0.00    +0.000 HD
ATOM     33  H   UNL     1      -1.667  12.894  16.280  0.00  0.00    +0.000 HD
ENDBRANCH  11  29
BRANCH   1  34
ATOM     34  C   UNL     1      -1.466  14.164  20.519  0.00  0.00    +0.000 C 
BRANCH  34  35
ATOM     35  C   UNL     1      -1.633  14.089  22.037  0.00  0.00    +0.000 C 
BRANCH  35  36
ATOM     36  C   UNL     1      -1.476  15.452  22.721  0.00  0.00    +0.000 C 
BRANCH  36  38
ATOM     37  C   UNL     1      -2.150  15.196  25.135  0.00  0.00    +0.000 C 
ATOM     38  C   UNL     1      -0.987  15.305  24.162  0.00  0.00    +0.000 C 
ENDBRANCH  36  38
ENDBRANCH  35  36
ENDBRANCH  34  35
ENDBRANCH   1  34
TORSDOF 8
ENDMDL
MODEL 9
REMARK VINA RESULT:      -7.9      2.283     10.925
REMARK  Name = 
REMARK  9 active torsions:
REMARK  status: ('A' for Active; 'I' for Inactive)
REMARK    1  A    between atoms: C_1  and  C_2
REMARK    2  A    between atoms: C_2  and  C_3
REMARK    3  A    between atoms: C_3  and  C_4
REMARK    4  A    between atoms: C_4  and  C_5
REMARK    5  A    between atoms: C_5  and  C_6
REMARK    6  A    between atoms: C_12  and  C_13
REMARK    7  A    between atoms: C_17  and  N_18
REMARK    8  A    between atoms: C_19  and  C_21
REMARK    9  A    between atoms: C_31  and  C_32
REMARK                            x       y       z     vdW  Elec       q    Type
REMARK                         _______ _______ _______ _____ _____    ______ ____
ROOT
ATOM      1  C   UNL     1       0.045  13.551  20.360  0.00  0.00    +0.000 C 
ATOM      2  O   UNL     1       1.100  14.177  20.457  0.00  0.00    +0.000 OA
ATOM      3  N   UNL     1       0.014  12.279  19.849  0.00  0.00    +0.000 N 
ATOM      4  C   UNL     1       1.223  11.523  19.594  0.00  0.00    +0.000 C 
ATOM      5  C   UNL     1       0.820  10.088  19.885  0.00  0.00    +0.000 C 
ATOM      6  C   UNL     1       1.656   9.058  19.165  0.00  0.00    +0.000 C 
ATOM      7  C   UNL     1       1.682   8.011  20.229  0.00  0.00    +0.000 C 
ATOM      8  N   UNL     1       1.367   8.440  21.409  0.00  0.00    +0.000 NA
ATOM      9  O   UNL     1       1.046   9.814  21.282  0.00  0.00    +0.000 OA
ATOM     10  C   UNL     1      -0.693  10.021  19.596  0.00  0.00    +0.000 C 
ATOM     11  C   UNL     1      -1.160  11.483  19.504  0.00  0.00    +0.000 C 
ENDROOT
BRANCH   7  12
ATOM     12  C   UNL     1       2.041   6.604  19.941  0.00  0.00    +0.000 A 
ATOM     13  C   UNL     1       1.533   5.574  20.735  0.00  0.00    +0.000 A 
ATOM     14  C   UNL     1       1.940   4.266  20.502  0.00  0.00    +0.000 A 
ATOM     15  C   UNL     1       2.844   3.984  19.479  0.00  0.00    +0.000 A 
ATOM     16  C   UNL     1       3.342   4.994  18.650  0.00  0.00    +0.000 A 
ATOM     17  C   UNL     1       2.932   6.312  18.888  0.00  0.00    +0.000 A 
BRANCH  16  18
ATOM     18  N   UNL     1       4.235   4.735  17.578  0.00  0.00    +0.000 N 
ATOM     19  C   UNL     1       5.591   4.429  17.710  0.00  0.00    +0.000 C 
ATOM     20  O   UNL     1       6.238   4.457  18.752  0.00  0.00    +0.000 OA
ATOM     21  H   UNL     1       3.841   4.660  16.643  0.00  0.00    +0.000 HD
BRANCH  19  22
ATOM     22  C   UNL     1       6.311   4.098  16.400  0.00  0.00    +0.000 C 
ATOM     23  C   UNL     1       7.218   5.191  15.851  0.00  0.00    +0.000 C 
ATOM     24  C   UNL     1       7.173   5.008  14.331  0.00  0.00    +0.000 C 
ATOM     25  C   UNL     1       6.017   4.069  14.107  0.00  0.00    +0.000 C 
ATOM     26  O   UNL     1       5.672   3.585  13.044  0.00  0.00    +0.000 OA
ATOM     27  N   UNL     1       5.413   3.806  15.314  0.00  0.00    +0.000 N 
ATOM     28  H   UNL     1       4.763   3.026  15.338  0.00  0.00    +0.000 HD
ENDBRANCH  19  22
ENDBRANCH  16  18
ENDBRANCH   7  12
BRANCH  11  29
ATOM     29  C   UNL     1      -1.666  11.820  18.081  0.00  0.00    +0.000 C 
ATOM     30  N   UNL     1      -1.044  12.840  17.423  0.00  0.00    +0.000 N 
ATOM     31  O   UNL     1      -2.596  11.211  17.548  0.00  0.00    +0.000 OA
ATOM     32  H   UNL     1      -0.218  13.299  17.789  0.00  0.00    +0.000 HD
ATOM     33  H   UNL     1      -1.375  13.102  16.503  0.00  0.00    +0.000 HD
ENDBRANCH  11  29
BRANCH   1  34
ATOM     34  C   UNL     1      -1.261  14.162  20.834  0.00  0.00    +0.000 C 
BRANCH  34  35
ATOM     35  C   UNL     1      -1.480  15.567  20.270  0.00  0.00    +0.000 C 
BRANCH  35  36
ATOM     36  C   UNL     1      -1.390  16.659  21.342  0.00  0.00    +0.000 C 
BRANCH  36  38
ATOM     37  C   UNL     1      -3.714  17.019  20.438  0.00  0.00    +0.000 C 
ATOM     38  C   UNL     1      -2.735  17.353  21.553  0.00  0.00    +0.000 C 
ENDBRANCH  36  38
ENDBRANCH  35  36
ENDBRANCH  34  35
ENDBRANCH   1  34
TORSDOF 8
ENDMDL
