MODEL 1
REMARK VINA RESULT:      -8.3      0.000      0.000
REMARK  Name = 
REMARK  12 active torsions:
REMARK  status: ('A' for Active; 'I' for Inactive)
REMARK    1  A    between atoms: C_1  and  C_2
REMARK    2  A    between atoms: C_2  and  C_3
REMARK    3  A    between atoms: C_2  and  C_4
REMARK    4  A    between atoms: C_2  and  C_26
REMARK    5  A    between atoms: C_4  and  C_5
REMARK    6  A    between atoms: C_5  and  C_6
REMARK    7  A    between atoms: C_6  and  C_7
REMARK    8  A    between atoms: C_7  and  O_8
REMARK    9  A    between atoms: O_8  and  C_9
REMARK   10  A    between atoms: C_11  and  C_12
REMARK   11  A    between atoms: C_15  and  N_16
REMARK   12  A    between atoms: C_26  and  O_28
REMARK                            x       y       z     vdW  Elec       q    Type
REMARK                         _______ _______ _______ _____ _____    ______ ____
ROOT
ATOM      1  C   UNL     1       5.380   4.494  19.189  0.00  0.00    +0.000 A 
ATOM      2  C   UNL     1       4.673   5.677  19.188  0.00  0.00    +0.000 A 
ATOM      3  C   UNL     1       3.272   5.655  19.116  0.00  0.00    +0.000 A 
ATOM      4  C   UNL     1       2.638   4.368  19.096  0.00  0.00    +0.000 A 
ATOM      5  C   UNL     1       1.236   4.145  18.989  0.00  0.00    +0.000 A 
ATOM      6  C   UNL     1       0.674   2.877  19.107  0.00  0.00    +0.000 A 
ATOM      7  C   UNL     1       1.501   1.781  19.249  0.00  0.00    +0.000 A 
ATOM      8  C   UNL     1       2.885   1.963  19.262  0.00  0.00    +0.000 A 
ATOM      9  C   UNL     1       3.470   3.221  19.186  0.00  0.00    +0.000 A 
ATOM     10  N   UNL     1       4.809   3.279  19.206  0.00  0.00    +0.000 NA
ENDROOT
BRANCH   3  11
ATOM     11  C   UNL     1       2.550   6.961  19.101  0.00  0.00    +0.000 A 
ATOM     12  C   UNL     1       1.951   7.479  20.266  0.00  0.00    +0.000 A 
ATOM     13  C   UNL     1       1.239   8.687  20.253  0.00  0.00    +0.000 A 
ATOM     14  C   UNL     1       1.179   9.470  19.103  0.00  0.00    +0.000 A 
ATOM     15  C   UNL     1       1.727   8.951  17.932  0.00  0.00    +0.000 A 
ATOM     16  C   UNL     1       2.373   7.710  17.928  0.00  0.00    +0.000 A 
BRANCH  14  17
ATOM     17  N   UNL     1       0.372  10.605  19.055  0.00  0.00    +0.000 N 
ATOM     18  H   UNL     1       0.886  11.477  19.008  0.00  0.00    +0.000 HD
ATOM     19  H   UNL     1      -0.365  10.553  18.359  0.00  0.00    +0.000 HD
ENDBRANCH  14  17
ENDBRANCH   3  11
BRANCH   1  20
ATOM     20  O   UNL     1       6.749   4.615  19.248  0.00  0.00    +0.000 OA
BRANCH  20  21
ATOM     21  C   UNL     1       7.190   5.912  19.659  0.00  0.00    +0.000 C 
BRANCH  21  22
ATOM     22  C   UNL     1       8.078   6.479  18.549  0.00  0.00    +0.000 C 
BRANCH  22  23
ATOM     23  C   UNL     1       7.310   6.557  17.224  0.00  0.00    +0.000 C 
BRANCH  23  24
ATOM     24  C   UNL     1       7.549   5.334  16.332  0.00  0.00    +0.000 C 
BRANCH  24  26
ATOM     25  C   UNL     1       5.711   3.651  15.811  0.00  0.00    +0.000 C 
ATOM     26  C   UNL     1       6.369   4.982  15.382  0.00  0.00    +0.000 C 
ATOM     27  C   UNL     1       5.285   6.074  15.386  0.00  0.00    +0.000 C 
BRANCH  26  28
ATOM     28  C   UNL     1       6.911   4.801  13.947  0.00  0.00    +0.000 C 
ATOM     29  O   UNL     1       6.456   4.010  13.131  0.00  0.00    +0.000 OA
BRANCH  28  30
ATOM     30  O   UNL     1       7.954   5.610  13.651  0.00  0.00    +0.000 OA
ATOM     31  H   UNL     1       8.027   6.414  14.179  0.00  0.00    +0.000 HD
ENDBRANCH  28  30
ENDBRANCH  26  28
ENDBRANCH  24  26
ENDBRANCH  23  24
ENDBRANCH  22  23
ENDBRANCH  21  22
ENDBRANCH  20  21
ENDBRANCH   1  20
TORSDOF 10
ENDMDL
MODEL 2
REMARK VINA RESULT:      -8.2      4.309      6.641
REMARK  Name = 
REMARK  12 active torsions:
REMARK  status: ('A' for Active; 'I' for Inactive)
REMARK    1  A    between atoms: C_1  and  C_2
REMARK    2  A    between atoms: C_2  and  C_3
REMARK    3  A    between atoms: C_2  and  C_4
REMARK    4  A    between atoms: C_2  and  C_26
REMARK    5  A    between atoms: C_4  and  C_5
REMARK    6  A    between atoms: C_5  and  C_6
REMARK    7  A    between atoms: C_6  and  C_7
REMARK    8  A    between atoms: C_7  and  O_8
REMARK    9  A    between atoms: O_8  and  C_9
REMARK   10  A    between atoms: C_11  and  C_12
REMARK   11  A    between atoms: C_15  and  N_16
REMARK   12  A    between atoms: C_26  and  O_28
REMARK                            x       y       z     vdW  Elec       q    Type
REMARK                         _______ _______ _______ _____ _____    ______ ____
ROOT
ATOM      1  C   UNL     1       7.257   6.610  17.664  0.00  0.00    +0.000 A 
ATOM      2  C   UNL     1       6.171   6.061  18.312  0.00  0.00    +0.000 A 
ATOM      3  C   UNL     1       5.310   5.195  17.622  0.00  0.00    +0.000 A 
ATOM      4  C   UNL     1       5.643   4.887  16.261  0.00  0.00    +0.000 A 
ATOM      5  C   UNL     1       4.873   4.062  15.393  0.00  0.00    +0.000 A 
ATOM      6  C   UNL     1       5.319   3.696  14.126  0.00  0.00    +0.000 A 
ATOM      7  C   UNL     1       6.508   4.213  13.652  0.00  0.00    +0.000 A 
ATOM      8  C   UNL     1       7.236   5.099  14.447  0.00  0.00    +0.000 A 
ATOM      9  C   UNL     1       6.833   5.450  15.730  0.00  0.00    +0.000 A 
ATOM     10  N   UNL     1       7.610   6.311  16.404  0.00  0.00    +0.000 NA
ENDROOT
BRANCH   3  11
ATOM     11  C   UNL     1       4.138   4.637  18.359  0.00  0.00    +0.000 A 
ATOM     12  C   UNL     1       4.288   3.581  19.278  0.00  0.00    +0.000 A 
ATOM     13  C   UNL     1       3.189   3.025  19.948  0.00  0.00    +0.000 A 
ATOM     14  C   UNL     1       1.914   3.565  19.801  0.00  0.00    +0.000 A 
ATOM     15  C   UNL     1       1.741   4.580  18.862  0.00  0.00    +0.000 A 
ATOM     16  C   UNL     1       2.827   5.084  18.138  0.00  0.00    +0.000 A 
BRANCH  14  17
ATOM     17  N   UNL     1       0.805   2.940  20.367  0.00  0.00    +0.000 N 
ATOM     18  H   UNL     1       0.478   2.130  19.852  0.00  0.00    +0.000 HD
ATOM     19  H   UNL     1       0.902   2.752  21.360  0.00  0.00    +0.000 HD
ENDBRANCH  14  17
ENDBRANCH   3  11
BRANCH   1  20
ATOM     20  O   UNL     1       8.036   7.457  18.417  0.00  0.00    +0.000 OA
BRANCH  20  21
ATOM     21  C   UNL     1       8.115   8.783  17.887  0.00  0.00    +0.000 C 
BRANCH  21  22
ATOM     22  C   UNL     1       8.944   9.628  18.858  0.00  0.00    +0.000 C 
BRANCH  22  23
ATOM     23  C   UNL     1       9.279  10.992  18.243  0.00  0.00    +0.000 C 
BRANCH  23  24
ATOM     24  C   UNL     1       9.625  12.045  19.302  0.00  0.00    +0.000 C 
BRANCH  24  26
ATOM     25  C   UNL     1      11.148  13.974  19.968  0.00  0.00    +0.000 C 
ATOM     26  C   UNL     1      11.051  12.654  19.171  0.00  0.00    +0.000 C 
ATOM     27  C   UNL     1      12.133  11.696  19.699  0.00  0.00    +0.000 C 
BRANCH  26  28
ATOM     28  C   UNL     1      11.329  12.975  17.686  0.00  0.00    +0.000 C 
ATOM     29  O   UNL     1      10.759  13.852  17.050  0.00  0.00    +0.000 OA
BRANCH  28  30
ATOM     30  O   UNL     1      12.283  12.194  17.128  0.00  0.00    +0.000 OA
ATOM     31  H   UNL     1      12.094  11.866  16.241  0.00  0.00    +0.000 HD
ENDBRANCH  28  30
ENDBRANCH  26  28
ENDBRANCH  24  26
ENDBRANCH  23  24
ENDBRANCH  22  23
ENDBRANCH  21  22
ENDBRANCH  20  21
ENDBRANCH   1  20
TORSDOF 10
ENDMDL
MODEL 3
REMARK VINA RESULT:      -8.2      0.277      1.118
REMARK  Name = 
REMARK  12 active torsions:
REMARK  status: ('A' for Active; 'I' for Inactive)
REMARK    1  A    between atoms: C_1  and  C_2
REMARK    2  A    between atoms: C_2  and  C_3
REMARK    3  A    between atoms: C_2  and  C_4
REMARK    4  A    between atoms: C_2  and  C_26
REMARK    5  A    between atoms: C_4  and  C_5
REMARK    6  A    between atoms: C_5  and  C_6
REMARK    7  A    between atoms: C_6  and  C_7
REMARK    8  A    between atoms: C_7  and  O_8
REMARK    9  A    between atoms: O_8  and  C_9
REMARK   10  A    between atoms: C_11  and  C_12
REMARK   11  A    between atoms: C_15  and  N_16
REMARK   12  A    between atoms: C_26  and  O_28
REMARK                            x       y       z     vdW  Elec       q    Type
REMARK                         _______ _______ _______ _____ _____    ______ ____
ROOT
ATOM      1  C   UNL     1       5.419   4.594  19.429  0.00  0.00    +0.000 A 
ATOM      2  C   UNL     1       4.683   5.758  19.384  0.00  0.00    +0.000 A 
ATOM      3  C   UNL     1       3.306   5.706  19.119  0.00  0.00    +0.000 A 
ATOM      4  C   UNL     1       2.721   4.407  18.952  0.00  0.00    +0.000 A 
ATOM      5  C   UNL     1       1.354   4.156  18.642  0.00  0.00    +0.000 A 
ATOM      6  C   UNL     1       0.820   2.870  18.623  0.00  0.00    +0.000 A 
ATOM      7  C   UNL     1       1.654   1.789  18.827  0.00  0.00    +0.000 A 
ATOM      8  C   UNL     1       3.016   2.003  19.040  0.00  0.00    +0.000 A 
ATOM      9  C   UNL     1       3.567   3.277  19.103  0.00  0.00    +0.000 A 
ATOM     10  N   UNL     1       4.889   3.366  19.311  0.00  0.00    +0.000 NA
ENDROOT
BRANCH   3  11
ATOM     11  C   UNL     1       2.554   6.993  19.064  0.00  0.00    +0.000 A 
ATOM     12  C   UNL     1       2.486   7.751  17.878  0.00  0.00    +0.000 A 
ATOM     13  C   UNL     1       1.813   8.980  17.826  0.00  0.00    +0.000 A 
ATOM     14  C   UNL     1       1.101   9.453  18.926  0.00  0.00    +0.000 A 
ATOM     15  C   UNL     1       1.195   8.738  20.119  0.00  0.00    +0.000 A 
ATOM     16  C   UNL     1       1.929   7.550  20.191  0.00  0.00    +0.000 A 
BRANCH  14  17
ATOM     17  N   UNL     1       0.537  10.727  18.917  0.00  0.00    +0.000 N 
ATOM     18  H   UNL     1       0.591  11.210  19.806  0.00  0.00    +0.000 HD
ATOM     19  H   UNL     1       0.847  11.306  18.143  0.00  0.00    +0.000 HD
ENDBRANCH  14  17
ENDBRANCH   3  11
BRANCH   1  20
ATOM     20  O   UNL     1       6.762   4.745  19.682  0.00  0.00    +0.000 OA
BRANCH  20  21
ATOM     21  C   UNL     1       7.180   6.111  19.752  0.00  0.00    +0.000 C 
BRANCH  21  22
ATOM     22  C   UNL     1       8.170   6.357  18.611  0.00  0.00    +0.000 C 
BRANCH  22  23
ATOM     23  C   UNL     1       7.440   6.446  17.266  0.00  0.00    +0.000 C 
BRANCH  23  24
ATOM     24  C   UNL     1       7.293   5.080  16.585  0.00  0.00    +0.000 C 
BRANCH  24  26
ATOM     25  C   UNL     1       5.250   3.782  15.798  0.00  0.00    +0.000 C 
ATOM     26  C   UNL     1       6.157   5.002  15.525  0.00  0.00    +0.000 C 
ATOM     27  C   UNL     1       5.277   6.264  15.534  0.00  0.00    +0.000 C 
BRANCH  26  28
ATOM     28  C   UNL     1       6.783   4.822  14.124  0.00  0.00    +0.000 C 
ATOM     29  O   UNL     1       7.740   5.463  13.708  0.00  0.00    +0.000 OA
BRANCH  28  30
ATOM     30  O   UNL     1       6.179   3.873  13.374  0.00  0.00    +0.000 OA
ATOM     31  H   UNL     1       5.961   3.051  13.829  0.00  0.00    +0.000 HD
ENDBRANCH  28  30
ENDBRANCH  26  28
ENDBRANCH  24  26
ENDBRANCH  23  24
ENDBRANCH  22  23
ENDBRANCH  21  22
ENDBRANCH  20  21
ENDBRANCH   1  20
TORSDOF 10
ENDMDL
MODEL 4
REMARK VINA RESULT:      -8.1      3.470      4.867
REMARK  Name = 
REMARK  12 active torsions:
REMARK  status: ('A' for Active; 'I' for Inactive)
REMARK    1  A    between atoms: C_1  and  C_2
REMARK    2  A    between atoms: C_2  and  C_3
REMARK    3  A    between atoms: C_2  and  C_4
REMARK    4  A    between atoms: C_2  and  C_26
REMARK    5  A    between atoms: C_4  and  C_5
REMARK    6  A    between atoms: C_5  and  C_6
REMARK    7  A    between atoms: C_6  and  C_7
REMARK    8  A    between atoms: C_7  and  O_8
REMARK    9  A    between atoms: O_8  and  C_9
REMARK   10  A    between atoms: C_11  and  C_12
REMARK   11  A    between atoms: C_15  and  N_16
REMARK   12  A    between atoms: C_26  and  O_28
REMARK                            x       y       z     vdW  Elec       q    Type
REMARK                         _______ _______ _______ _____ _____    ______ ____
ROOT
ATOM      1  C   UNL     1       5.625   5.573  17.539  0.00  0.00    +0.000 A 
ATOM      2  C   UNL     1       4.774   6.583  17.935  0.00  0.00    +0.000 A 
ATOM      3  C   UNL     1       3.424   6.299  18.191  0.00  0.00    +0.000 A 
ATOM      4  C   UNL     1       3.008   4.932  18.069  0.00  0.00    +0.000 A 
ATOM      5  C   UNL     1       1.678   4.459  18.253  0.00  0.00    +0.000 A 
ATOM      6  C   UNL     1       1.364   3.103  18.249  0.00  0.00    +0.000 A 
ATOM      7  C   UNL     1       2.353   2.181  17.975  0.00  0.00    +0.000 A 
ATOM      8  C   UNL     1       3.647   2.624  17.699  0.00  0.00    +0.000 A 
ATOM      9  C   UNL     1       3.995   3.969  17.735  0.00  0.00    +0.000 A 
ATOM     10  N   UNL     1       5.268   4.282  17.451  0.00  0.00    +0.000 NA
ENDROOT
BRANCH   3  11
ATOM     11  C   UNL     1       2.537   7.427  18.602  0.00  0.00    +0.000 A 
ATOM     12  C   UNL     1       2.170   8.437  17.692  0.00  0.00    +0.000 A 
ATOM     13  C   UNL     1       1.368   9.521  18.077  0.00  0.00    +0.000 A 
ATOM     14  C   UNL     1       0.822   9.586  19.357  0.00  0.00    +0.000 A 
ATOM     15  C   UNL     1       1.211   8.619  20.282  0.00  0.00    +0.000 A 
ATOM     16  C   UNL     1       2.072   7.579  19.917  0.00  0.00    +0.000 A 
BRANCH  14  17
ATOM     17  N   UNL     1       0.129  10.719  19.779  0.00  0.00    +0.000 N 
ATOM     18  H   UNL     1      -0.419  10.580  20.620  0.00  0.00    +0.000 HD
ATOM     19  H   UNL     1       0.701  11.556  19.825  0.00  0.00    +0.000 HD
ENDBRANCH  14  17
ENDBRANCH   3  11
BRANCH   1  20
ATOM     20  O   UNL     1       6.926   5.948  17.297  0.00  0.00    +0.000 OA
BRANCH  20  21
ATOM     21  C   UNL     1       7.084   7.353  17.082  0.00  0.00    +0.000 C 
BRANCH  21  22
ATOM     22  C   UNL     1       8.114   7.868  18.092  0.00  0.00    +0.000 C 
BRANCH  22  23
ATOM     23  C   UNL     1       8.279   9.388  17.973  0.00  0.00    +0.000 C 
BRANCH  23  24
ATOM     24  C   UNL     1       9.247   9.958  19.016  0.00  0.00    +0.000 C 
BRANCH  24  26
ATOM     25  C   UNL     1      11.096  11.502  18.193  0.00  0.00    +0.000 C 
ATOM     26  C   UNL     1       9.666  11.436  18.774  0.00  0.00    +0.000 C 
ATOM     27  C   UNL     1       8.718  12.147  17.791  0.00  0.00    +0.000 C 
BRANCH  26  28
ATOM     28  C   UNL     1       9.667  12.190  20.122  0.00  0.00    +0.000 C 
ATOM     29  O   UNL     1      10.419  11.937  21.054  0.00  0.00    +0.000 OA
BRANCH  28  30
ATOM     30  O   UNL     1       8.749  13.181  20.194  0.00  0.00    +0.000 OA
ATOM     31  H   UNL     1       9.000  13.951  20.717  0.00  0.00    +0.000 HD
ENDBRANCH  28  30
ENDBRANCH  26  28
ENDBRANCH  24  26
ENDBRANCH  23  24
ENDBRANCH  22  23
ENDBRANCH  21  22
ENDBRANCH  20  21
ENDBRANCH   1  20
TORSDOF 10
ENDMDL
MODEL 5
REMARK VINA RESULT:      -8.0      3.646      4.987
REMARK  Name = 
REMARK  12 active torsions:
REMARK  status: ('A' for Active; 'I' for Inactive)
REMARK    1  A    between atoms: C_1  and  C_2
REMARK    2  A    between atoms: C_2  and  C_3
REMARK    3  A    between atoms: C_2  and  C_4
REMARK    4  A    between atoms: C_2  and  C_26
REMARK    5  A    between atoms: C_4  and  C_5
REMARK    6  A    between atoms: C_5  and  C_6
REMARK    7  A    between atoms: C_6  and  C_7
REMARK    8  A    between atoms: C_7  and  O_8
REMARK    9  A    between atoms: O_8  and  C_9
REMARK   10  A    between atoms: C_11  and  C_12
REMARK   11  A    between atoms: C_15  and  N_16
REMARK   12  A    between atoms: C_26  and  O_28
REMARK                            x       y       z     vdW  Elec       q    Type
REMARK                         _______ _______ _______ _____ _____    ______ ____
ROOT
ATOM      1  C   UNL     1       5.417   6.433  17.070  0.00  0.00    +0.000 A 
ATOM      2  C   UNL     1       4.518   7.318  17.623  0.00  0.00    +0.000 A 
ATOM      3  C   UNL     1       3.243   6.874  18.005  0.00  0.00    +0.000 A 
ATOM      4  C   UNL     1       2.959   5.479  17.836  0.00  0.00    +0.000 A 
ATOM      5  C   UNL     1       1.715   4.853  18.131  0.00  0.00    +0.000 A 
ATOM      6  C   UNL     1       1.544   3.472  18.070  0.00  0.00    +0.000 A 
ATOM      7  C   UNL     1       2.585   2.681  17.630  0.00  0.00    +0.000 A 
ATOM      8  C   UNL     1       3.786   3.279  17.245  0.00  0.00    +0.000 A 
ATOM      9  C   UNL     1       3.995   4.650  17.333  0.00  0.00    +0.000 A 
ATOM     10  N   UNL     1       5.188   5.116  16.934  0.00  0.00    +0.000 NA
ENDROOT
BRANCH   3  11
ATOM     11  C   UNL     1       2.297   7.873  18.584  0.00  0.00    +0.000 A 
ATOM     12  C   UNL     1       1.715   8.877  17.786  0.00  0.00    +0.000 A 
ATOM     13  C   UNL     1       0.855   9.843  18.328  0.00  0.00    +0.000 A 
ATOM     14  C   UNL     1       0.466   9.785  19.664  0.00  0.00    +0.000 A 
ATOM     15  C   UNL     1       1.068   8.826  20.477  0.00  0.00    +0.000 A 
ATOM     16  C   UNL     1       1.984   7.909  19.951  0.00  0.00    +0.000 A 
BRANCH  14  17
ATOM     17  N   UNL     1      -0.287  10.810  20.233  0.00  0.00    +0.000 N 
ATOM     18  H   UNL     1       0.225  11.674  20.368  0.00  0.00    +0.000 HD
ATOM     19  H   UNL     1      -1.184  10.959  19.780  0.00  0.00    +0.000 HD
ENDBRANCH  14  17
ENDBRANCH   3  11
BRANCH   1  20
ATOM     20  O   UNL     1       6.636   6.961  16.714  0.00  0.00    +0.000 OA
BRANCH  20  21
ATOM     21  C   UNL     1       7.452   7.317  17.833  0.00  0.00    +0.000 C 
BRANCH  21  22
ATOM     22  C   UNL     1       8.383   8.450  17.392  0.00  0.00    +0.000 C 
BRANCH  22  23
ATOM     23  C   UNL     1       8.532   9.496  18.503  0.00  0.00    +0.000 C 
BRANCH  23  24
ATOM     24  C   UNL     1       9.277  10.751  18.033  0.00  0.00    +0.000 C 
BRANCH  24  26
ATOM     25  C   UNL     1       9.449  13.046  19.123  0.00  0.00    +0.000 C 
ATOM     26  C   UNL     1       9.935  11.580  19.173  0.00  0.00    +0.000 C 
ATOM     27  C   UNL     1       9.598  11.012  20.563  0.00  0.00    +0.000 C 
BRANCH  26  28
ATOM     28  C   UNL     1      11.467  11.582  18.978  0.00  0.00    +0.000 C 
ATOM     29  O   UNL     1      12.280  11.619  19.892  0.00  0.00    +0.000 OA
BRANCH  28  30
ATOM     30  O   UNL     1      11.852  11.534  17.682  0.00  0.00    +0.000 OA
ATOM     31  H   UNL     1      11.801  12.365  17.195  0.00  0.00    +0.000 HD
ENDBRANCH  28  30
ENDBRANCH  26  28
ENDBRANCH  24  26
ENDBRANCH  23  24
ENDBRANCH  22  23
ENDBRANCH  21  22
ENDBRANCH  20  21
ENDBRANCH   1  20
TORSDOF 10
ENDMDL
MODEL 6
REMARK VINA RESULT:      -8.0      4.359      6.897
REMARK  Name = 
REMARK  12 active torsions:
REMARK  status: ('A' for Active; 'I' for Inactive)
REMARK    1  A    between atoms: C_1  and  C_2
REMARK    2  A    between atoms: C_2  and  C_3
REMARK    3  A    between atoms: C_2  and  C_4
REMARK    4  A    between atoms: C_2  and  C_26
REMARK    5  A    between atoms: C_4  and  C_5
REMARK    6  A    between atoms: C_5  and  C_6
REMARK    7  A    between atoms: C_6  and  C_7
REMARK    8  A    between atoms: C_7  and  O_8
REMARK    9  A    between atoms: O_8  and  C_9
REMARK   10  A    between atoms: C_11  and  C_12
REMARK   11  A    between atoms: C_15  and  N_16
REMARK   12  A    between atoms: C_26  and  O_28
REMARK                            x       y       z     vdW  Elec       q    Type
REMARK                         _______ _______ _______ _____ _____    ______ ____
ROOT
ATOM      1  C   UNL     1       7.103   6.220  17.100  0.00  0.00    +0.000 A 
ATOM      2  C   UNL     1       5.965   5.596  17.563  0.00  0.00    +0.000 A 
ATOM      3  C   UNL     1       5.211   4.786  16.700  0.00  0.00    +0.000 A 
ATOM      4  C   UNL     1       5.707   4.612  15.366  0.00  0.00    +0.000 A 
ATOM      5  C   UNL     1       5.064   3.860  14.342  0.00  0.00    +0.000 A 
ATOM      6  C   UNL     1       5.662   3.621  13.108  0.00  0.00    +0.000 A 
ATOM      7  C   UNL     1       6.883   4.199  12.826  0.00  0.00    +0.000 A 
ATOM      8  C   UNL     1       7.492   5.018  13.778  0.00  0.00    +0.000 A 
ATOM      9  C   UNL     1       6.935   5.240  15.031  0.00  0.00    +0.000 A 
ATOM     10  N   UNL     1       7.606   6.046  15.867  0.00  0.00    +0.000 NA
ENDROOT
BRANCH   3  11
ATOM     11  C   UNL     1       3.978   4.144  17.242  0.00  0.00    +0.000 A 
ATOM     12  C   UNL     1       2.870   4.913  17.647  0.00  0.00    +0.000 A 
ATOM     13  C   UNL     1       1.721   4.322  18.192  0.00  0.00    +0.000 A 
ATOM     14  C   UNL     1       1.595   2.936  18.262  0.00  0.00    +0.000 A 
ATOM     15  C   UNL     1       2.698   2.163  17.907  0.00  0.00    +0.000 A 
ATOM     16  C   UNL     1       3.873   2.758  17.434  0.00  0.00    +0.000 A 
BRANCH  14  17
ATOM     17  N   UNL     1       0.511   2.351  18.914  0.00  0.00    +0.000 N 
ATOM     18  H   UNL     1       0.087   1.584  18.405  0.00  0.00    +0.000 HD
ATOM     19  H   UNL     1       0.694   2.117  19.884  0.00  0.00    +0.000 HD
ENDBRANCH  14  17
ENDBRANCH   3  11
BRANCH   1  20
ATOM     20  O   UNL     1       7.768   7.005  18.013  0.00  0.00    +0.000 OA
BRANCH  20  21
ATOM     21  C   UNL     1       7.806   8.389  17.655  0.00  0.00    +0.000 C 
BRANCH  21  22
ATOM     22  C   UNL     1       8.675   9.116  18.685  0.00  0.00    +0.000 C 
BRANCH  22  23
ATOM     23  C   UNL     1       9.132  10.477  18.149  0.00  0.00    +0.000 C 
BRANCH  23  24
ATOM     24  C   UNL     1       9.616  11.415  19.260  0.00  0.00    +0.000 C 
BRANCH  24  26
ATOM     25  C   UNL     1      11.424  13.132  19.776  0.00  0.00    +0.000 C 
ATOM     26  C   UNL     1      10.348  12.693  18.758  0.00  0.00    +0.000 C 
ATOM     27  C   UNL     1      11.038  12.464  17.402  0.00  0.00    +0.000 C 
BRANCH  26  28
ATOM     28  C   UNL     1       9.325  13.843  18.626  0.00  0.00    +0.000 C 
ATOM     29  O   UNL     1       9.090  14.663  19.504  0.00  0.00    +0.000 OA
BRANCH  28  30
ATOM     30  O   UNL     1       8.695  13.878  17.429  0.00  0.00    +0.000 OA
ATOM     31  H   UNL     1       7.799  14.237  17.434  0.00  0.00    +0.000 HD
ENDBRANCH  28  30
ENDBRANCH  26  28
ENDBRANCH  24  26
ENDBRANCH  23  24
ENDBRANCH  22  23
ENDBRANCH  21  22
ENDBRANCH  20  21
ENDBRANCH   1  20
TORSDOF 10
ENDMDL
MODEL 7
REMARK VINA RESULT:      -8.0      3.595      4.822
REMARK  Name = 
REMARK  12 active torsions:
REMARK  status: ('A' for Active; 'I' for Inactive)
REMARK    1  A    between atoms: C_1  and  C_2
REMARK    2  A    between atoms: C_2  and  C_3
REMARK    3  A    between atoms: C_2  and  C_4
REMARK    4  A    between atoms: C_2  and  C_26
REMARK    5  A    between atoms: C_4  and  C_5
REMARK    6  A    between atoms: C_5  and  C_6
REMARK    7  A    between atoms: C_6  and  C_7
REMARK    8  A    between atoms: C_7  and  O_8
REMARK    9  A    between atoms: O_8  and  C_9
REMARK   10  A    between atoms: C_11  and  C_12
REMARK   11  A    between atoms: C_15  and  N_16
REMARK   12  A    between atoms: C_26  and  O_28
REMARK                            x       y       z     vdW  Elec       q    Type
REMARK                         _______ _______ _______ _____ _____    ______ ____
ROOT
ATOM      1  C   UNL     1       5.437   6.338  17.035  0.00  0.00    +0.000 A 
ATOM      2  C   UNL     1       4.547   7.227  17.599  0.00  0.00    +0.000 A 
ATOM      3  C   UNL     1       3.276   6.786  17.997  0.00  0.00    +0.000 A 
ATOM      4  C   UNL     1       2.986   5.391  17.834  0.00  0.00    +0.000 A 
ATOM      5  C   UNL     1       1.744   4.768  18.145  0.00  0.00    +0.000 A 
ATOM      6  C   UNL     1       1.569   3.388  18.087  0.00  0.00    +0.000 A 
ATOM      7  C   UNL     1       2.603   2.594  17.634  0.00  0.00    +0.000 A 
ATOM      8  C   UNL     1       3.800   3.189  17.233  0.00  0.00    +0.000 A 
ATOM      9  C   UNL     1       4.014   4.559  17.318  0.00  0.00    +0.000 A 
ATOM     10  N   UNL     1       5.203   5.022  16.904  0.00  0.00    +0.000 NA
ENDROOT
BRANCH   3  11
ATOM     11  C   UNL     1       2.340   7.788  18.588  0.00  0.00    +0.000 A 
ATOM     12  C   UNL     1       1.998   7.752  19.953  0.00  0.00    +0.000 A 
ATOM     13  C   UNL     1       1.091   8.665  20.510  0.00  0.00    +0.000 A 
ATOM     14  C   UNL     1       0.567   9.707  19.748  0.00  0.00    +0.000 A 
ATOM     15  C   UNL     1       0.860   9.730  18.386  0.00  0.00    +0.000 A 
ATOM     16  C   UNL     1       1.707   8.773  17.816  0.00  0.00    +0.000 A 
BRANCH  14  17
ATOM     17  N   UNL     1      -0.425  10.539  20.264  0.00  0.00    +0.000 N 
ATOM     18  H   UNL     1      -1.066  10.899  19.567  0.00  0.00    +0.000 HD
ATOM     19  H   UNL     1      -0.907  10.151  21.069  0.00  0.00    +0.000 HD
ENDBRANCH  14  17
ENDBRANCH   3  11
BRANCH   1  20
ATOM     20  O   UNL     1       6.652   6.863  16.663  0.00  0.00    +0.000 OA
BRANCH  20  21
ATOM     21  C   UNL     1       7.458   7.277  17.770  0.00  0.00    +0.000 C 
BRANCH  21  22
ATOM     22  C   UNL     1       8.309   8.464  17.311  0.00  0.00    +0.000 C 
BRANCH  22  23
ATOM     23  C   UNL     1       8.138   9.655  18.261  0.00  0.00    +0.000 C 
BRANCH  23  24
ATOM     24  C   UNL     1       9.405   9.947  19.074  0.00  0.00    +0.000 C 
BRANCH  24  26
ATOM     25  C   UNL     1       9.325  12.156  17.811  0.00  0.00    +0.000 C 
ATOM     26  C   UNL     1       9.847  11.438  19.076  0.00  0.00    +0.000 C 
ATOM     27  C   UNL     1       9.314  12.192  20.307  0.00  0.00    +0.000 C 
BRANCH  26  28
ATOM     28  C   UNL     1      11.390  11.509  19.058  0.00  0.00    +0.000 C 
ATOM     29  O   UNL     1      12.089  11.597  20.059  0.00  0.00    +0.000 OA
BRANCH  28  30
ATOM     30  O   UNL     1      11.924  11.461  17.816  0.00  0.00    +0.000 OA
ATOM     31  H   UNL     1      12.624  12.100  17.633  0.00  0.00    +0.000 HD
ENDBRANCH  28  30
ENDBRANCH  26  28
ENDBRANCH  24  26
ENDBRANCH  23  24
ENDBRANCH  22  23
ENDBRANCH  21  22
ENDBRANCH  20  21
ENDBRANCH   1  20
TORSDOF 10
ENDMDL
MODEL 8
REMARK VINA RESULT:      -7.9      3.558      4.720
REMARK  Name = 
REMARK  12 active torsions:
REMARK  status: ('A' for Active; 'I' for Inactive)
REMARK    1  A    between atoms: C_1  and  C_2
REMARK    2  A    between atoms: C_2  and  C_3
REMARK    3  A    between atoms: C_2  and  C_4
REMARK    4  A    between atoms: C_2  and  C_26
REMARK    5  A    between atoms: C_4  and  C_5
REMARK    6  A    between atoms: C_5  and  C_6
REMARK    7  A    between atoms: C_6  and  C_7
REMARK    8  A    between atoms: C_7  and  O_8
REMARK    9  A    between atoms: O_8  and  C_9
REMARK   10  A    between atoms: C_11  and  C_12
REMARK   11  A    between atoms: C_15  and  N_16
REMARK   12  A    between atoms: C_26  and  O_28
REMARK                            x       y       z     vdW  Elec       q    Type
REMARK                         _______ _______ _______ _____ _____    ______ ____
ROOT
ATOM      1  C   UNL     1       5.547   6.141  17.020  0.00  0.00    +0.000 A 
ATOM      2  C   UNL     1       4.672   7.056  17.564  0.00  0.00    +0.000 A 
ATOM      3  C   UNL     1       3.389   6.648  17.958  0.00  0.00    +0.000 A 
ATOM      4  C   UNL     1       3.071   5.258  17.813  0.00  0.00    +0.000 A 
ATOM      5  C   UNL     1       1.814   4.666  18.124  0.00  0.00    +0.000 A 
ATOM      6  C   UNL     1       1.610   3.289  18.085  0.00  0.00    +0.000 A 
ATOM      7  C   UNL     1       2.630   2.467  17.652  0.00  0.00    +0.000 A 
ATOM      8  C   UNL     1       3.842   3.030  17.252  0.00  0.00    +0.000 A 
ATOM      9  C   UNL     1       4.085   4.396  17.318  0.00  0.00    +0.000 A 
ATOM     10  N   UNL     1       5.286   4.828  16.906  0.00  0.00    +0.000 NA
ENDROOT
BRANCH   3  11
ATOM     11  C   UNL     1       2.470   7.678  18.526  0.00  0.00    +0.000 A 
ATOM     12  C   UNL     1       1.994   8.746  17.741  0.00  0.00    +0.000 A 
ATOM     13  C   UNL     1       1.160   9.739  18.276  0.00  0.00    +0.000 A 
ATOM     14  C   UNL     1       0.693   9.652  19.585  0.00  0.00    +0.000 A 
ATOM     15  C   UNL     1       1.190   8.627  20.388  0.00  0.00    +0.000 A 
ATOM     16  C   UNL     1       2.081   7.678  19.875  0.00  0.00    +0.000 A 
BRANCH  14  17
ATOM     17  N   UNL     1      -0.032  10.697  20.154  0.00  0.00    +0.000 N 
ATOM     18  H   UNL     1      -0.998  10.468  20.357  0.00  0.00    +0.000 HD
ATOM     19  H   UNL     1       0.434  11.139  20.940  0.00  0.00    +0.000 HD
ENDBRANCH  14  17
ENDBRANCH   3  11
BRANCH   1  20
ATOM     20  O   UNL     1       6.776   6.635  16.650  0.00  0.00    +0.000 OA
BRANCH  20  21
ATOM     21  C   UNL     1       7.063   7.922  17.202  0.00  0.00    +0.000 C 
BRANCH  21  22
ATOM     22  C   UNL     1       8.238   7.765  18.172  0.00  0.00    +0.000 C 
BRANCH  22  23
ATOM     23  C   UNL     1       8.599   9.110  18.811  0.00  0.00    +0.000 C 
BRANCH  23  24
ATOM     24  C   UNL     1       8.774  10.226  17.775  0.00  0.00    +0.000 C 
BRANCH  24  26
ATOM     25  C   UNL     1       9.624  11.441  19.845  0.00  0.00    +0.000 C 
ATOM     26  C   UNL     1       9.492  11.500  18.307  0.00  0.00    +0.000 C 
ATOM     27  C   UNL     1      10.904  11.652  17.712  0.00  0.00    +0.000 C 
BRANCH  26  28
ATOM     28  C   UNL     1       8.648  12.743  17.951  0.00  0.00    +0.000 C 
ATOM     29  O   UNL     1       8.767  13.836  18.489  0.00  0.00    +0.000 OA
BRANCH  28  30
ATOM     30  O   UNL     1       7.746  12.527  16.966  0.00  0.00    +0.000 OA
ATOM     31  H   UNL     1       8.047  12.712  16.069  0.00  0.00    +0.000 HD
ENDBRANCH  28  30
ENDBRANCH  26  28
ENDBRANCH  24  26
ENDBRANCH  23  24
ENDBRANCH  22  23
ENDBRANCH  21  22
ENDBRANCH  20  21
ENDBRANCH   1  20
TORSDOF 10
ENDMDL
MODEL 9
REMARK VINA RESULT:      -7.9      4.469      6.844
REMARK  Name = 
REMARK  12 active torsions:
REMARK  status: ('A' for Active; 'I' for Inactive)
REMARK    1  A    between atoms: C_1  and  C_2
REMARK    2  A    between atoms: C_2  and  C_3
REMARK    3  A    between atoms: C_2  and  C_4
REMARK    4  A    between atoms: C_2  and  C_26
REMARK    5  A    between atoms: C_4  and  C_5
REMARK    6  A    between atoms: C_5  and  C_6
REMARK    7  A    between atoms: C_6  and  C_7
REMARK    8  A    between atoms: C_7  and  O_8
REMARK    9  A    between atoms: O_8  and  C_9
REMARK   10  A    between atoms: C_11  and  C_12
REMARK   11  A    between atoms: C_15  and  N_16
REMARK   12  A    between atoms: C_26  and  O_28
REMARK                            x       y       z     vdW  Elec       q    Type
REMARK                         _______ _______ _______ _____ _____    ______ ____
ROOT
ATOM      1  C   UNL     1       7.241   6.511  17.451  0.00  0.00    +0.000 A 
ATOM      2  C   UNL     1       6.134   5.943  18.041  0.00  0.00    +0.000 A 
ATOM      3  C   UNL     1       5.306   5.088  17.298  0.00  0.00    +0.000 A 
ATOM      4  C   UNL     1       5.696   4.812  15.947  0.00  0.00    +0.000 A 
ATOM      5  C   UNL     1       4.967   4.002  15.030  0.00  0.00    +0.000 A 
ATOM      6  C   UNL     1       5.466   3.665  13.775  0.00  0.00    +0.000 A 
ATOM      7  C   UNL     1       6.669   4.198  13.361  0.00  0.00    +0.000 A 
ATOM      8  C   UNL     1       7.360   5.071  14.203  0.00  0.00    +0.000 A 
ATOM      9  C   UNL     1       6.903   5.391  15.476  0.00  0.00    +0.000 A 
ATOM     10  N   UNL     1       7.647   6.242  16.199  0.00  0.00    +0.000 NA
ENDROOT
BRANCH   3  11
ATOM     11  C   UNL     1       4.109   4.509  17.976  0.00  0.00    +0.000 A 
ATOM     12  C   UNL     1       2.831   5.078  17.815  0.00  0.00    +0.000 A 
ATOM     13  C   UNL     1       1.706   4.564  18.477  0.00  0.00    +0.000 A 
ATOM     14  C   UNL     1       1.796   3.405  19.245  0.00  0.00    +0.000 A 
ATOM     15  C   UNL     1       3.060   2.856  19.450  0.00  0.00    +0.000 A 
ATOM     16  C   UNL     1       4.194   3.414  18.850  0.00  0.00    +0.000 A 
BRANCH  14  17
ATOM     17  N   UNL     1       0.711   2.964  20.000  0.00  0.00    +0.000 N 
ATOM     18  H   UNL     1       0.734   1.975  20.218  0.00  0.00    +0.000 HD
ATOM     19  H   UNL     1       0.521   3.536  20.817  0.00  0.00    +0.000 HD
ENDBRANCH  14  17
ENDBRANCH   3  11
BRANCH   1  20
ATOM     20  O   UNL     1       7.985   7.346  18.252  0.00  0.00    +0.000 OA
BRANCH  20  21
ATOM     21  C   UNL     1       7.955   8.714  17.835  0.00  0.00    +0.000 C 
BRANCH  21  22
ATOM     22  C   UNL     1       8.933   9.494  18.718  0.00  0.00    +0.000 C 
BRANCH  22  23
ATOM     23  C   UNL     1       9.026  10.956  18.266  0.00  0.00    +0.000 C 
BRANCH  23  24
ATOM     24  C   UNL     1      10.474  11.426  18.088  0.00  0.00    +0.000 C 
BRANCH  24  26
ATOM     25  C   UNL     1       9.945  12.493  20.338  0.00  0.00    +0.000 C 
ATOM     26  C   UNL     1      10.995  12.367  19.212  0.00  0.00    +0.000 C 
ATOM     27  C   UNL     1      12.303  11.848  19.834  0.00  0.00    +0.000 C 
BRANCH  26  28
ATOM     28  C   UNL     1      11.230  13.776  18.623  0.00  0.00    +0.000 C 
ATOM     29  O   UNL     1      11.834  13.998  17.582  0.00  0.00    +0.000 OA
BRANCH  28  30
ATOM     30  O   UNL     1      10.698  14.774  19.366  0.00  0.00    +0.000 OA
ATOM     31  H   UNL     1      10.466  14.546  20.274  0.00  0.00    +0.000 HD
ENDBRANCH  28  30
ENDBRANCH  26  28
ENDBRANCH  24  26
ENDBRANCH  23  24
ENDBRANCH  22  23
ENDBRANCH  21  22
ENDBRANCH  20  21
ENDBRANCH   1  20
TORSDOF 10
ENDMDL
