MODEL 1
REMARK VINA RESULT:      -8.4      0.000      0.000
REMARK  Name = 
REMARK  4 active torsions:
REMARK  status: ('A' for Active; 'I' for Inactive)
REMARK    1  A    between atoms: C_1  and  C_2
REMARK    2  A    between atoms: C_2  and  C_4
REMARK    3  A    between atoms: C_10  and  C_11
REMARK    4  A    between atoms: C_14  and  C_15
REMARK                            x       y       z     vdW  Elec       q    Type
REMARK                         _______ _______ _______ _____ _____    ______ ____
ROOT
ATOM      1  C   UNL     1       5.840   3.583  12.649  0.00  0.00    +0.000 A 
ATOM      2  C   UNL     1       7.120   4.179  12.380  0.00  0.00    +0.000 A 
ATOM      3  C   UNL     1       7.815   5.000  13.303  0.00  0.00    +0.000 A 
ATOM      4  C   UNL     1       7.146   5.180  14.523  0.00  0.00    +0.000 A 
ATOM      5  N   UNL     1       7.492   5.893  15.607  0.00  0.00    +0.000 NA
ATOM      6  O   UNL     1       6.482   5.712  16.536  0.00  0.00    +0.000 OA
ATOM      7  C   UNL     1       5.511   4.884  16.041  0.00  0.00    +0.000 A 
ATOM      8  C   UNL     1       5.874   4.549  14.764  0.00  0.00    +0.000 A 
ATOM      9  C   UNL     1       5.160   3.752  13.874  0.00  0.00    +0.000 A 
ENDROOT
BRANCH   7  10
ATOM     10  C   UNL     1       4.428   4.554  16.957  0.00  0.00    +0.000 A 
ATOM     11  C   UNL     1       4.175   3.224  17.311  0.00  0.00    +0.000 A 
ATOM     12  C   UNL     1       3.110   2.902  18.156  0.00  0.00    +0.000 A 
ATOM     13  C   UNL     1       2.277   3.902  18.665  0.00  0.00    +0.000 A 
ATOM     14  C   UNL     1       1.108   3.561  19.538  0.00  0.00    +0.000 C 
ATOM     15  C   UNL     1       2.534   5.233  18.330  0.00  0.00    +0.000 A 
ATOM     16  C   UNL     1       3.596   5.554  17.481  0.00  0.00    +0.000 A 
ENDBRANCH   7  10
BRANCH   1  18
ATOM     17  C   UNL     1       3.892   3.263  10.981  0.00  0.00    +0.000 C 
ATOM     18  C   UNL     1       5.146   2.736  11.627  0.00  0.00    +0.000 C 
ATOM     19  O   UNL     1       5.599   1.635  11.330  0.00  0.00    +0.000 OA
ENDBRANCH   1  18
TORSDOF 2
ENDMDL
MODEL 2
REMARK VINA RESULT:      -8.4      0.112      1.109
REMARK  Name = 
REMARK  4 active torsions:
REMARK  status: ('A' for Active; 'I' for Inactive)
REMARK    1  A    between atoms: C_1  and  C_2
REMARK    2  A    between atoms: C_2  and  C_4
REMARK    3  A    between atoms: C_10  and  C_11
REMARK    4  A    between atoms: C_14  and  C_15
REMARK                            x       y       z     vdW  Elec       q    Type
REMARK                         _______ _______ _______ _____ _____    ______ ____
ROOT
ATOM      1  C   UNL     1       5.811   3.580  12.678  0.00  0.00    +0.000 A 
ATOM      2  C   UNL     1       7.103   4.157  12.431  0.00  0.00    +0.000 A 
ATOM      3  C   UNL     1       7.789   4.979  13.360  0.00  0.00    +0.000 A 
ATOM      4  C   UNL     1       7.096   5.179  14.564  0.00  0.00    +0.000 A 
ATOM      5  N   UNL     1       7.428   5.899  15.647  0.00  0.00    +0.000 NA
ATOM      6  O   UNL     1       6.397   5.741  16.557  0.00  0.00    +0.000 OA
ATOM      7  C   UNL     1       5.426   4.919  16.049  0.00  0.00    +0.000 A 
ATOM      8  C   UNL     1       5.812   4.566  14.783  0.00  0.00    +0.000 A 
ATOM      9  C   UNL     1       5.107   3.770  13.887  0.00  0.00    +0.000 A 
ENDROOT
BRANCH   7  10
ATOM     10  C   UNL     1       4.321   4.611  16.945  0.00  0.00    +0.000 A 
ATOM     11  C   UNL     1       3.561   5.638  17.519  0.00  0.00    +0.000 A 
ATOM     12  C   UNL     1       2.528   5.346  18.413  0.00  0.00    +0.000 A 
ATOM     13  C   UNL     1       2.232   4.023  18.751  0.00  0.00    +0.000 A 
ATOM     14  C   UNL     1       1.153   3.704  19.741  0.00  0.00    +0.000 C 
ATOM     15  C   UNL     1       2.974   2.992  18.170  0.00  0.00    +0.000 A 
ATOM     16  C   UNL     1       4.010   3.285  17.280  0.00  0.00    +0.000 A 
ENDBRANCH   7  10
BRANCH   1  18
ATOM     17  C   UNL     1       3.859   3.239  11.019  0.00  0.00    +0.000 C 
ATOM     18  C   UNL     1       5.128   2.731  11.651  0.00  0.00    +0.000 C 
ATOM     19  O   UNL     1       5.602   1.643  11.337  0.00  0.00    +0.000 OA
ENDBRANCH   1  18
TORSDOF 2
ENDMDL
MODEL 3
REMARK VINA RESULT:      -7.8      1.014      1.223
REMARK  Name = 
REMARK  4 active torsions:
REMARK  status: ('A' for Active; 'I' for Inactive)
REMARK    1  A    between atoms: C_1  and  C_2
REMARK    2  A    between atoms: C_2  and  C_4
REMARK    3  A    between atoms: C_10  and  C_11
REMARK    4  A    between atoms: C_14  and  C_15
REMARK                            x       y       z     vdW  Elec       q    Type
REMARK                         _______ _______ _______ _____ _____    ______ ____
ROOT
ATOM      1  C   UNL     1       5.937   3.519  12.674  0.00  0.00    +0.000 A 
ATOM      2  C   UNL     1       7.119   4.265  12.344  0.00  0.00    +0.000 A 
ATOM      3  C   UNL     1       7.787   5.124  13.253  0.00  0.00    +0.000 A 
ATOM      4  C   UNL     1       7.195   5.181  14.524  0.00  0.00    +0.000 A 
ATOM      5  N   UNL     1       7.541   5.888  15.611  0.00  0.00    +0.000 NA
ATOM      6  O   UNL     1       6.630   5.559  16.600  0.00  0.00    +0.000 OA
ATOM      7  C   UNL     1       5.722   4.645  16.137  0.00  0.00    +0.000 A 
ATOM      8  C   UNL     1       6.022   4.402  14.824  0.00  0.00    +0.000 A 
ATOM      9  C   UNL     1       5.336   3.563  13.951  0.00  0.00    +0.000 A 
ENDROOT
BRANCH   7  10
ATOM     10  C   UNL     1       4.754   4.160  17.111  0.00  0.00    +0.000 A 
ATOM     11  C   UNL     1       5.127   3.956  18.445  0.00  0.00    +0.000 A 
ATOM     12  C   UNL     1       4.211   3.450  19.371  0.00  0.00    +0.000 A 
ATOM     13  C   UNL     1       2.905   3.139  18.984  0.00  0.00    +0.000 A 
ATOM     14  C   UNL     1       1.930   2.557  19.962  0.00  0.00    +0.000 C 
ATOM     15  C   UNL     1       2.521   3.356  17.659  0.00  0.00    +0.000 A 
ATOM     16  C   UNL     1       3.438   3.858  16.733  0.00  0.00    +0.000 A 
ENDBRANCH   7  10
BRANCH   1  18
ATOM     17  C   UNL     1       5.966   1.381  11.223  0.00  0.00    +0.000 C 
ATOM     18  C   UNL     1       5.266   2.637  11.667  0.00  0.00    +0.000 C 
ATOM     19  O   UNL     1       4.165   2.943  11.218  0.00  0.00    +0.000 OA
ENDBRANCH   1  18
TORSDOF 2
ENDMDL
MODEL 4
REMARK VINA RESULT:      -7.4      3.517      5.643
REMARK  Name = 
REMARK  4 active torsions:
REMARK  status: ('A' for Active; 'I' for Inactive)
REMARK    1  A    between atoms: C_1  and  C_2
REMARK    2  A    between atoms: C_2  and  C_4
REMARK    3  A    between atoms: C_10  and  C_11
REMARK    4  A    between atoms: C_14  and  C_15
REMARK                            x       y       z     vdW  Elec       q    Type
REMARK                         _______ _______ _______ _____ _____    ______ ____
ROOT
ATOM      1  C   UNL     1       5.802   5.526  16.991  0.00  0.00    +0.000 A 
ATOM      2  C   UNL     1       5.586   4.125  16.756  0.00  0.00    +0.000 A 
ATOM      3  C   UNL     1       4.394   3.443  17.108  0.00  0.00    +0.000 A 
ATOM      4  C   UNL     1       3.424   4.261  17.708  0.00  0.00    +0.000 A 
ATOM      5  N   UNL     1       2.203   3.959  18.175  0.00  0.00    +0.000 NA
ATOM      6  O   UNL     1       1.658   5.142  18.647  0.00  0.00    +0.000 OA
ATOM      7  C   UNL     1       2.532   6.182  18.468  0.00  0.00    +0.000 A 
ATOM      8  C   UNL     1       3.670   5.666  17.907  0.00  0.00    +0.000 A 
ATOM      9  C   UNL     1       4.832   6.361  17.588  0.00  0.00    +0.000 A 
ENDROOT
BRANCH   7  10
ATOM     10  C   UNL     1       2.042   7.497  18.855  0.00  0.00    +0.000 A 
ATOM     11  C   UNL     1       1.691   7.765  20.183  0.00  0.00    +0.000 A 
ATOM     12  C   UNL     1       1.180   9.012  20.548  0.00  0.00    +0.000 A 
ATOM     13  C   UNL     1       1.010  10.019  19.593  0.00  0.00    +0.000 A 
ATOM     14  C   UNL     1       0.424  11.346  19.969  0.00  0.00    +0.000 C 
ATOM     15  C   UNL     1       1.374   9.765  18.269  0.00  0.00    +0.000 A 
ATOM     16  C   UNL     1       1.880   8.515  17.905  0.00  0.00    +0.000 A 
ENDBRANCH   7  10
BRANCH   1  18
ATOM     17  C   UNL     1       7.623   7.291  17.487  0.00  0.00    +0.000 C 
ATOM     18  C   UNL     1       7.089   6.190  16.610  0.00  0.00    +0.000 C 
ATOM     19  O   UNL     1       7.689   5.836  15.600  0.00  0.00    +0.000 OA
ENDBRANCH   1  18
TORSDOF 2
ENDMDL
MODEL 5
REMARK VINA RESULT:      -7.4      3.991      6.352
REMARK  Name = 
REMARK  4 active torsions:
REMARK  status: ('A' for Active; 'I' for Inactive)
REMARK    1  A    between atoms: C_1  and  C_2
REMARK    2  A    between atoms: C_2  and  C_4
REMARK    3  A    between atoms: C_10  and  C_11
REMARK    4  A    between atoms: C_14  and  C_15
REMARK                            x       y       z     vdW  Elec       q    Type
REMARK                         _______ _______ _______ _____ _____    ______ ____
ROOT
ATOM      1  C   UNL     1       2.379   3.637  18.753  0.00  0.00    +0.000 A 
ATOM      2  C   UNL     1       3.538   3.202  18.023  0.00  0.00    +0.000 A 
ATOM      3  C   UNL     1       4.416   4.083  17.342  0.00  0.00    +0.000 A 
ATOM      4  C   UNL     1       4.060   5.437  17.447  0.00  0.00    +0.000 A 
ATOM      5  N   UNL     1       4.642   6.529  16.928  0.00  0.00    +0.000 NA
ATOM      6  O   UNL     1       3.895   7.614  17.356  0.00  0.00    +0.000 OA
ATOM      7  C   UNL     1       2.855   7.203  18.147  0.00  0.00    +0.000 A 
ATOM      8  C   UNL     1       2.903   5.836  18.206  0.00  0.00    +0.000 A 
ATOM      9  C   UNL     1       2.015   4.996  18.871  0.00  0.00    +0.000 A 
ENDROOT
BRANCH   7  10
ATOM     10  C   UNL     1       2.039   8.261  18.724  0.00  0.00    +0.000 A 
ATOM     11  C   UNL     1       1.695   8.236  20.081  0.00  0.00    +0.000 A 
ATOM     12  C   UNL     1       0.876   9.227  20.627  0.00  0.00    +0.000 A 
ATOM     13  C   UNL     1       0.386  10.265  19.830  0.00  0.00    +0.000 A 
ATOM     14  C   UNL     1      -0.526  11.309  20.399  0.00  0.00    +0.000 C 
ATOM     15  C   UNL     1       0.738  10.306  18.479  0.00  0.00    +0.000 A 
ATOM     16  C   UNL     1       1.553   9.312  17.933  0.00  0.00    +0.000 A 
ENDBRANCH   7  10
BRANCH   1  18
ATOM     17  C   UNL     1       1.514   2.575  20.944  0.00  0.00    +0.000 C 
ATOM     18  C   UNL     1       1.480   2.658  19.441  0.00  0.00    +0.000 C 
ATOM     19  O   UNL     1       0.732   1.941  18.783  0.00  0.00    +0.000 OA
ENDBRANCH   1  18
TORSDOF 2
ENDMDL
MODEL 6
REMARK VINA RESULT:      -7.4      3.948      6.371
REMARK  Name = 
REMARK  4 active torsions:
REMARK  status: ('A' for Active; 'I' for Inactive)
REMARK    1  A    between atoms: C_1  and  C_2
REMARK    2  A    between atoms: C_2  and  C_4
REMARK    3  A    between atoms: C_10  and  C_11
REMARK    4  A    between atoms: C_14  and  C_15
REMARK                            x       y       z     vdW  Elec       q    Type
REMARK                         _______ _______ _______ _____ _____    ______ ____
ROOT
ATOM      1  C   UNL     1       2.314   3.605  18.661  0.00  0.00    +0.000 A 
ATOM      2  C   UNL     1       3.459   3.165  17.912  0.00  0.00    +0.000 A 
ATOM      3  C   UNL     1       4.343   4.044  17.237  0.00  0.00    +0.000 A 
ATOM      4  C   UNL     1       4.008   5.401  17.367  0.00  0.00    +0.000 A 
ATOM      5  N   UNL     1       4.600   6.494  16.859  0.00  0.00    +0.000 NA
ATOM      6  O   UNL     1       3.873   7.581  17.312  0.00  0.00    +0.000 OA
ATOM      7  C   UNL     1       2.834   7.173  18.107  0.00  0.00    +0.000 A 
ATOM      8  C   UNL     1       2.864   5.804  18.143  0.00  0.00    +0.000 A 
ATOM      9  C   UNL     1       1.970   4.967  18.804  0.00  0.00    +0.000 A 
ENDROOT
BRANCH   7  10
ATOM     10  C   UNL     1       2.040   8.233  18.709  0.00  0.00    +0.000 A 
ATOM     11  C   UNL     1       1.629   9.335  17.950  0.00  0.00    +0.000 A 
ATOM     12  C   UNL     1       0.903  10.375  18.537  0.00  0.00    +0.000 A 
ATOM     13  C   UNL     1       0.572  10.333  19.894  0.00  0.00    +0.000 A 
ATOM     14  C   UNL     1      -0.171  11.463  20.540  0.00  0.00    +0.000 C 
ATOM     15  C   UNL     1       0.962   9.228  20.654  0.00  0.00    +0.000 A 
ATOM     16  C   UNL     1       1.692   8.192  20.067  0.00  0.00    +0.000 A 
ENDBRANCH   7  10
BRANCH   1  18
ATOM     17  C   UNL     1       1.459   2.516  20.843  0.00  0.00    +0.000 C 
ATOM     18  C   UNL     1       1.407   2.627  19.342  0.00  0.00    +0.000 C 
ATOM     19  O   UNL     1       0.639   1.936  18.680  0.00  0.00    +0.000 OA
ENDBRANCH   1  18
TORSDOF 2
ENDMDL
MODEL 7
REMARK VINA RESULT:      -7.4      2.904      7.066
REMARK  Name = 
REMARK  4 active torsions:
REMARK  status: ('A' for Active; 'I' for Inactive)
REMARK    1  A    between atoms: C_1  and  C_2
REMARK    2  A    between atoms: C_2  and  C_4
REMARK    3  A    between atoms: C_10  and  C_11
REMARK    4  A    between atoms: C_14  and  C_15
REMARK                            x       y       z     vdW  Elec       q    Type
REMARK                         _______ _______ _______ _____ _____    ______ ____
ROOT
ATOM      1  C   UNL     1       2.331   6.480  19.655  0.00  0.00    +0.000 A 
ATOM      2  C   UNL     1       1.853   5.620  20.702  0.00  0.00    +0.000 A 
ATOM      3  C   UNL     1       2.183   4.245  20.803  0.00  0.00    +0.000 A 
ATOM      4  C   UNL     1       3.034   3.786  19.786  0.00  0.00    +0.000 A 
ATOM      5  N   UNL     1       3.534   2.561  19.559  0.00  0.00    +0.000 NA
ATOM      6  O   UNL     1       4.331   2.664  18.432  0.00  0.00    +0.000 OA
ATOM      7  C   UNL     1       4.338   3.949  17.960  0.00  0.00    +0.000 A 
ATOM      8  C   UNL     1       3.509   4.684  18.765  0.00  0.00    +0.000 A 
ATOM      9  C   UNL     1       3.192   6.031  18.630  0.00  0.00    +0.000 A 
ENDROOT
BRANCH   7  10
ATOM     10  C   UNL     1       5.206   4.202  16.819  0.00  0.00    +0.000 A 
ATOM     11  C   UNL     1       6.529   4.618  17.007  0.00  0.00    +0.000 A 
ATOM     12  C   UNL     1       7.350   4.903  15.914  0.00  0.00    +0.000 A 
ATOM     13  C   UNL     1       6.866   4.778  14.609  0.00  0.00    +0.000 A 
ATOM     14  C   UNL     1       7.727   5.121  13.431  0.00  0.00    +0.000 C 
ATOM     15  C   UNL     1       5.552   4.347  14.411  0.00  0.00    +0.000 A 
ATOM     16  C   UNL     1       4.731   4.067  15.506  0.00  0.00    +0.000 A 
ENDBRANCH   7  10
BRANCH   1  18
ATOM     17  C   UNL     1       2.052   8.648  18.277  0.00  0.00    +0.000 C 
ATOM     18  C   UNL     1       1.936   7.923  19.591  0.00  0.00    +0.000 C 
ATOM     19  O   UNL     1       1.527   8.494  20.598  0.00  0.00    +0.000 OA
ENDBRANCH   1  18
TORSDOF 2
ENDMDL
MODEL 8
REMARK VINA RESULT:      -7.4      3.503      5.645
REMARK  Name = 
REMARK  4 active torsions:
REMARK  status: ('A' for Active; 'I' for Inactive)
REMARK    1  A    between atoms: C_1  and  C_2
REMARK    2  A    between atoms: C_2  and  C_4
REMARK    3  A    between atoms: C_10  and  C_11
REMARK    4  A    between atoms: C_14  and  C_15
REMARK                            x       y       z     vdW  Elec       q    Type
REMARK                         _______ _______ _______ _____ _____    ______ ____
ROOT
ATOM      1  C   UNL     1       5.831   5.585  16.983  0.00  0.00    +0.000 A 
ATOM      2  C   UNL     1       5.647   4.191  16.688  0.00  0.00    +0.000 A 
ATOM      3  C   UNL     1       4.464   3.471  16.991  0.00  0.00    +0.000 A 
ATOM      4  C   UNL     1       3.468   4.246  17.606  0.00  0.00    +0.000 A 
ATOM      5  N   UNL     1       2.245   3.901  18.039  0.00  0.00    +0.000 NA
ATOM      6  O   UNL     1       1.669   5.053  18.548  0.00  0.00    +0.000 OA
ATOM      7  C   UNL     1       2.524   6.116  18.428  0.00  0.00    +0.000 A 
ATOM      8  C   UNL     1       3.681   5.646  17.866  0.00  0.00    +0.000 A 
ATOM      9  C   UNL     1       4.835   6.375  17.596  0.00  0.00    +0.000 A 
ENDROOT
BRANCH   7  10
ATOM     10  C   UNL     1       2.001   7.404  18.858  0.00  0.00    +0.000 A 
ATOM     11  C   UNL     1       1.827   8.446  17.940  0.00  0.00    +0.000 A 
ATOM     12  C   UNL     1       1.366   9.697  18.359  0.00  0.00    +0.000 A 
ATOM     13  C   UNL     1       1.070   9.931  19.704  0.00  0.00    +0.000 A 
ATOM     14  C   UNL     1       0.615  11.282  20.168  0.00  0.00    +0.000 C 
ATOM     15  C   UNL     1       1.225   8.892  20.624  0.00  0.00    +0.000 A 
ATOM     16  C   UNL     1       1.690   7.644  20.205  0.00  0.00    +0.000 A 
ENDBRANCH   7  10
BRANCH   1  18
ATOM     17  C   UNL     1       7.633   7.330  17.606  0.00  0.00    +0.000 C 
ATOM     18  C   UNL     1       7.111   6.289  16.652  0.00  0.00    +0.000 C 
ATOM     19  O   UNL     1       7.715   6.014  15.619  0.00  0.00    +0.000 OA
ENDBRANCH   1  18
TORSDOF 2
ENDMDL
MODEL 9
REMARK VINA RESULT:      -7.3      2.890      7.101
REMARK  Name = 
REMARK  4 active torsions:
REMARK  status: ('A' for Active; 'I' for Inactive)
REMARK    1  A    between atoms: C_1  and  C_2
REMARK    2  A    between atoms: C_2  and  C_4
REMARK    3  A    between atoms: C_10  and  C_11
REMARK    4  A    between atoms: C_14  and  C_15
REMARK                            x       y       z     vdW  Elec       q    Type
REMARK                         _______ _______ _______ _____ _____    ______ ____
ROOT
ATOM      1  C   UNL     1       2.271   6.420  19.741  0.00  0.00    +0.000 A 
ATOM      2  C   UNL     1       1.793   5.513  20.748  0.00  0.00    +0.000 A 
ATOM      3  C   UNL     1       2.121   4.134  20.785  0.00  0.00    +0.000 A 
ATOM      4  C   UNL     1       2.970   3.722  19.746  0.00  0.00    +0.000 A 
ATOM      5  N   UNL     1       3.468   2.508  19.462  0.00  0.00    +0.000 NA
ATOM      6  O   UNL     1       4.265   2.662  18.341  0.00  0.00    +0.000 OA
ATOM      7  C   UNL     1       4.273   3.968  17.928  0.00  0.00    +0.000 A 
ATOM      8  C   UNL     1       3.446   4.665  18.768  0.00  0.00    +0.000 A 
ATOM      9  C   UNL     1       3.130   6.018  18.695  0.00  0.00    +0.000 A 
ENDROOT
BRANCH   7  10
ATOM     10  C   UNL     1       5.139   4.273  16.799  0.00  0.00    +0.000 A 
ATOM     11  C   UNL     1       4.661   4.178  15.487  0.00  0.00    +0.000 A 
ATOM     12  C   UNL     1       5.503   4.428  14.401  0.00  0.00    +0.000 A 
ATOM     13  C   UNL     1       6.841   4.779  14.604  0.00  0.00    +0.000 A 
ATOM     14  C   UNL     1       7.761   5.009  13.444  0.00  0.00    +0.000 C 
ATOM     15  C   UNL     1       7.321   4.893  15.910  0.00  0.00    +0.000 A 
ATOM     16  C   UNL     1       6.479   4.638  16.995  0.00  0.00    +0.000 A 
ENDBRANCH   7  10
BRANCH   1  18
ATOM     17  C   UNL     1       1.939   8.636  18.454  0.00  0.00    +0.000 C 
ATOM     18  C   UNL     1       1.878   7.865  19.745  0.00  0.00    +0.000 C 
ATOM     19  O   UNL     1       1.514   8.401  20.788  0.00  0.00    +0.000 OA
ENDBRANCH   1  18
TORSDOF 2
ENDMDL
