MODEL 1
REMARK VINA RESULT:      -6.4      0.000      0.000
REMARK  Name = 
REMARK  20 active torsions:
REMARK  status: ('A' for Active; 'I' for Inactive)
REMARK    1  A    between atoms: C_1  and  C_2
REMARK    2  A    between atoms: C_2  and  C_3
REMARK    3  A    between atoms: C_3  and  C_4
REMARK    4  A    between atoms: C_4  and  C_5
REMARK    5  A    between atoms: C_5  and  C_6
REMARK    6  A    between atoms: C_6  and  O_7
REMARK    7  A    between atoms: O_7  and  C_8
REMARK    8  A    between atoms: C_9  and  C_10
REMARK    9  A    between atoms: C_10  and  C_11
REMARK   10  A    between atoms: C_12  and  C_13
REMARK   11  A    between atoms: C_14  and  C_15
REMARK   12  A    between atoms: C_15  and  C_16
REMARK   13  A    between atoms: C_17  and  C_18
REMARK   14  A    between atoms: C_18  and  O_20
REMARK   15  A    between atoms: C_22  and  C_23
REMARK   16  A    between atoms: C_23  and  C_24
REMARK   17  A    between atoms: C_23  and  C_25
REMARK   18  A    between atoms: C_27  and  C_28
REMARK   19  A    between atoms: C_28  and  C_29
REMARK   20  A    between atoms: C_28  and  C_30
REMARK                            x       y       z     vdW  Elec       q    Type
REMARK                         _______ _______ _______ _____ _____    ______ ____
ROOT
ATOM      1  C   UNL     1       0.147  11.547  20.000  0.00  0.00    +0.000 A 
ATOM      2  C   UNL     1      -0.268  10.185  20.218  0.00  0.00    +0.000 A 
ATOM      3  C   UNL     1      -1.192   9.646  19.286  0.00  0.00    +0.000 A 
ATOM      4  C   UNL     1      -1.667  10.369  18.187  0.00  0.00    +0.000 A 
ATOM      5  C   UNL     1      -1.092  11.609  17.922  0.00  0.00    +0.000 A 
ATOM      6  C   UNL     1      -0.186  12.235  18.792  0.00  0.00    +0.000 A 
ENDROOT
BRANCH   2   7
ATOM      7  C   UNL     1       0.157   9.296  21.389  0.00  0.00    +0.000 C 
ATOM      8  C   UNL     1      -0.514   9.515  22.742  0.00  0.00    +0.000 C 
ATOM      9  C   UNL     1       1.040   8.264  21.387  0.00  0.00    +0.000 C 
BRANCH   9  10
ATOM     10  C   UNL     1       1.776   7.697  20.284  0.00  0.00    +0.000 C 
ATOM     11  C   UNL     1       2.151   6.410  20.164  0.00  0.00    +0.000 C 
BRANCH  11  12
ATOM     12  C   UNL     1       3.010   5.916  19.079  0.00  0.00    +0.000 C 
ATOM     13  C   UNL     1       3.392   6.904  18.000  0.00  0.00    +0.000 C 
ATOM     14  C   UNL     1       3.449   4.640  19.098  0.00  0.00    +0.000 C 
BRANCH  14  15
ATOM     15  C   UNL     1       4.445   4.092  18.138  0.00  0.00    +0.000 C 
ATOM     16  O   UNL     1       4.256   3.882  16.957  0.00  0.00    +0.000 OA
BRANCH  15  17
ATOM     17  O   UNL     1       5.646   3.896  18.728  0.00  0.00    +0.000 OA
ATOM     18  H   UNL     1       6.413   3.858  18.130  0.00  0.00    +0.000 HD
ENDBRANCH  15  17
ENDBRANCH  14  15
ENDBRANCH  11  12
ENDBRANCH   9  10
ENDBRANCH   2   7
BRANCH   4  19
ATOM     19  C   UNL     1      -2.810   9.871  17.318  0.00  0.00    +0.000 C 
ATOM     20  C   UNL     1      -4.130  10.552  17.725  0.00  0.00    +0.000 C 
ATOM     21  C   UNL     1      -2.551  10.091  15.826  0.00  0.00    +0.000 C 
ENDBRANCH   4  19
BRANCH   6  22
ATOM     22  C   UNL     1       0.379  13.593  18.366  0.00  0.00    +0.000 C 
ATOM     23  C   UNL     1      -0.368  14.729  19.076  0.00  0.00    +0.000 C 
ATOM     24  C   UNL     1       1.894  13.825  18.532  0.00  0.00    +0.000 C 
ENDBRANCH   6  22
BRANCH   1  25
ATOM     25  O   UNL     1       0.886  12.100  21.018  0.00  0.00    +0.000 OA
BRANCH  25  26
ATOM     26  C   UNL     1       0.356  13.040  21.947  0.00  0.00    +0.000 C 
BRANCH  26  27
ATOM     27  C   UNL     1      -1.138  12.883  22.208  0.00  0.00    +0.000 C 
BRANCH  27  28
ATOM     28  C   UNL     1      -1.734  14.231  22.588  0.00  0.00    +0.000 C 
BRANCH  28  29
ATOM     29  C   UNL     1      -3.105  14.073  23.233  0.00  0.00    +0.000 C 
BRANCH  29  31
ATOM     30  C   UNL     1      -4.301  12.402  24.678  0.00  0.00    +0.000 C 
ATOM     31  C   UNL     1      -3.387  12.597  23.484  0.00  0.00    +0.000 C 
ENDBRANCH  29  31
ENDBRANCH  28  29
ENDBRANCH  27  28
ENDBRANCH  26  27
ENDBRANCH  25  26
ENDBRANCH   1  25
TORSDOF 13
ENDMDL
MODEL 2
REMARK VINA RESULT:      -6.3      3.029      7.395
REMARK  Name = 
REMARK  20 active torsions:
REMARK  status: ('A' for Active; 'I' for Inactive)
REMARK    1  A    between atoms: C_1  and  C_2
REMARK    2  A    between atoms: C_2  and  C_3
REMARK    3  A    between atoms: C_3  and  C_4
REMARK    4  A    between atoms: C_4  and  C_5
REMARK    5  A    between atoms: C_5  and  C_6
REMARK    6  A    between atoms: C_6  and  O_7
REMARK    7  A    between atoms: O_7  and  C_8
REMARK    8  A    between atoms: C_9  and  C_10
REMARK    9  A    between atoms: C_10  and  C_11
REMARK   10  A    between atoms: C_12  and  C_13
REMARK   11  A    between atoms: C_14  and  C_15
REMARK   12  A    between atoms: C_15  and  C_16
REMARK   13  A    between atoms: C_17  and  C_18
REMARK   14  A    between atoms: C_18  and  O_20
REMARK   15  A    between atoms: C_22  and  C_23
REMARK   16  A    between atoms: C_23  and  C_24
REMARK   17  A    between atoms: C_23  and  C_25
REMARK   18  A    between atoms: C_27  and  C_28
REMARK   19  A    between atoms: C_28  and  C_29
REMARK   20  A    between atoms: C_28  and  C_30
REMARK                            x       y       z     vdW  Elec       q    Type
REMARK                         _______ _______ _______ _____ _____    ______ ____
ROOT
ATOM      1  C   UNL     1       2.459   7.440  19.352  0.00  0.00    +0.000 A 
ATOM      2  C   UNL     1       1.556   7.387  20.474  0.00  0.00    +0.000 A 
ATOM      3  C   UNL     1       1.164   6.096  20.911  0.00  0.00    +0.000 A 
ATOM      4  C   UNL     1       1.638   4.920  20.321  0.00  0.00    +0.000 A 
ATOM      5  C   UNL     1       2.647   5.028  19.369  0.00  0.00    +0.000 A 
ATOM      6  C   UNL     1       3.089   6.258  18.856  0.00  0.00    +0.000 A 
ENDROOT
BRANCH   2   7
ATOM      7  C   UNL     1       0.948   8.594  21.191  0.00  0.00    +0.000 C 
ATOM      8  C   UNL     1       1.587   9.055  22.499  0.00  0.00    +0.000 C 
ATOM      9  C   UNL     1      -0.085   9.379  20.792  0.00  0.00    +0.000 C 
BRANCH   9  10
ATOM     10  C   UNL     1      -0.855   9.323  19.574  0.00  0.00    +0.000 C 
ATOM     11  C   UNL     1      -1.487  10.358  18.991  0.00  0.00    +0.000 C 
BRANCH  11  12
ATOM     12  C   UNL     1      -2.362  10.215  17.819  0.00  0.00    +0.000 C 
ATOM     13  C   UNL     1      -3.735   9.626  18.053  0.00  0.00    +0.000 C 
ATOM     14  C   UNL     1      -1.937  10.635  16.609  0.00  0.00    +0.000 C 
BRANCH  14  15
ATOM     15  C   UNL     1      -2.801  10.681  15.398  0.00  0.00    +0.000 C 
ATOM     16  O   UNL     1      -2.877   9.821  14.544  0.00  0.00    +0.000 OA
BRANCH  15  17
ATOM     17  O   UNL     1      -3.562  11.798  15.374  0.00  0.00    +0.000 OA
ATOM     18  H   UNL     1      -3.620  12.256  14.517  0.00  0.00    +0.000 HD
ENDBRANCH  15  17
ENDBRANCH  14  15
ENDBRANCH  11  12
ENDBRANCH   9  10
ENDBRANCH   2   7
BRANCH   4  19
ATOM     19  C   UNL     1       1.057   3.555  20.648  0.00  0.00    +0.000 C 
ATOM     20  C   UNL     1       0.924   2.708  19.368  0.00  0.00    +0.000 C 
ATOM     21  C   UNL     1       1.887   2.797  21.687  0.00  0.00    +0.000 C 
ENDBRANCH   4  19
BRANCH   6  22
ATOM     22  C   UNL     1       4.218   6.227  17.822  0.00  0.00    +0.000 C 
ATOM     23  C   UNL     1       5.583   6.233  18.521  0.00  0.00    +0.000 C 
ATOM     24  C   UNL     1       4.207   5.089  16.781  0.00  0.00    +0.000 C 
ENDBRANCH   6  22
BRANCH   1  25
ATOM     25  O   UNL     1       2.667   8.696  18.832  0.00  0.00    +0.000 OA
BRANCH  25  26
ATOM     26  C   UNL     1       1.988   9.187  17.682  0.00  0.00    +0.000 C 
BRANCH  26  27
ATOM     27  C   UNL     1       1.977  10.708  17.568  0.00  0.00    +0.000 C 
BRANCH  27  28
ATOM     28  C   UNL     1       2.061  11.324  18.957  0.00  0.00    +0.000 C 
BRANCH  28  29
ATOM     29  C   UNL     1       1.568  12.765  18.958  0.00  0.00    +0.000 C 
BRANCH  29  31
ATOM     30  C   UNL     1       3.014  14.588  18.010  0.00  0.00    +0.000 C 
ATOM     31  C   UNL     1       2.739  13.707  19.213  0.00  0.00    +0.000 C 
ENDBRANCH  29  31
ENDBRANCH  28  29
ENDBRANCH  27  28
ENDBRANCH  26  27
ENDBRANCH  25  26
ENDBRANCH   1  25
TORSDOF 13
ENDMDL
MODEL 3
REMARK VINA RESULT:      -6.3      1.145      1.479
REMARK  Name = 
REMARK  20 active torsions:
REMARK  status: ('A' for Active; 'I' for Inactive)
REMARK    1  A    between atoms: C_1  and  C_2
REMARK    2  A    between atoms: C_2  and  C_3
REMARK    3  A    between atoms: C_3  and  C_4
REMARK    4  A    between atoms: C_4  and  C_5
REMARK    5  A    between atoms: C_5  and  C_6
REMARK    6  A    between atoms: C_6  and  O_7
REMARK    7  A    between atoms: O_7  and  C_8
REMARK    8  A    between atoms: C_9  and  C_10
REMARK    9  A    between atoms: C_10  and  C_11
REMARK   10  A    between atoms: C_12  and  C_13
REMARK   11  A    between atoms: C_14  and  C_15
REMARK   12  A    between atoms: C_15  and  C_16
REMARK   13  A    between atoms: C_17  and  C_18
REMARK   14  A    between atoms: C_18  and  O_20
REMARK   15  A    between atoms: C_22  and  C_23
REMARK   16  A    between atoms: C_23  and  C_24
REMARK   17  A    between atoms: C_23  and  C_25
REMARK   18  A    between atoms: C_27  and  C_28
REMARK   19  A    between atoms: C_28  and  C_29
REMARK   20  A    between atoms: C_28  and  C_30
REMARK                            x       y       z     vdW  Elec       q    Type
REMARK                         _______ _______ _______ _____ _____    ______ ____
ROOT
ATOM      1  C   UNL     1       0.033  12.006  20.611  0.00  0.00    +0.000 A 
ATOM      2  C   UNL     1      -0.276  10.599  20.606  0.00  0.00    +0.000 A 
ATOM      3  C   UNL     1      -0.888  10.087  19.433  0.00  0.00    +0.000 A 
ATOM      4  C   UNL     1      -1.160  10.880  18.314  0.00  0.00    +0.000 A 
ATOM      5  C   UNL     1      -0.672  12.184  18.303  0.00  0.00    +0.000 A 
ATOM      6  C   UNL     1      -0.072  12.787  19.419  0.00  0.00    +0.000 A 
ENDROOT
BRANCH   2   7
ATOM      7  C   UNL     1      -0.052   9.630  21.769  0.00  0.00    +0.000 C 
ATOM      8  C   UNL     1      -0.833   9.858  23.060  0.00  0.00    +0.000 C 
ATOM      9  C   UNL     1       0.731   8.521  21.803  0.00  0.00    +0.000 C 
BRANCH   9  10
ATOM     10  C   UNL     1       1.520   7.930  20.751  0.00  0.00    +0.000 C 
ATOM     11  C   UNL     1       1.806   6.622  20.619  0.00  0.00    +0.000 C 
BRANCH  11  12
ATOM     12  C   UNL     1       2.722   6.094  19.598  0.00  0.00    +0.000 C 
ATOM     13  C   UNL     1       2.974   6.961  18.385  0.00  0.00    +0.000 C 
ATOM     14  C   UNL     1       3.321   4.899  19.787  0.00  0.00    +0.000 C 
BRANCH  14  15
ATOM     15  C   UNL     1       4.380   4.353  18.894  0.00  0.00    +0.000 C 
ATOM     16  O   UNL     1       4.199   3.797  17.831  0.00  0.00    +0.000 OA
BRANCH  15  17
ATOM     17  O   UNL     1       5.617   4.600  19.384  0.00  0.00    +0.000 OA
ATOM     18  H   UNL     1       5.824   5.533  19.566  0.00  0.00    +0.000 HD
ENDBRANCH  15  17
ENDBRANCH  14  15
ENDBRANCH  11  12
ENDBRANCH   9  10
ENDBRANCH   2   7
BRANCH   4  19
ATOM     19  C   UNL     1      -2.002  10.384  17.151  0.00  0.00    +0.000 C 
ATOM     20  C   UNL     1      -3.182   9.539  17.665  0.00  0.00    +0.000 C 
ATOM     21  C   UNL     1      -2.524  11.526  16.275  0.00  0.00    +0.000 C 
ENDBRANCH   4  19
BRANCH   6  22
ATOM     22  C   UNL     1       0.432  14.225  19.258  0.00  0.00    +0.000 C 
ATOM     23  C   UNL     1       1.777  14.241  18.523  0.00  0.00    +0.000 C 
ATOM     24  C   UNL     1      -0.508  15.244  18.582  0.00  0.00    +0.000 C 
ENDBRANCH   6  22
BRANCH   1  25
ATOM     25  O   UNL     1       0.444  12.507  21.822  0.00  0.00    +0.000 OA
BRANCH  25  26
ATOM     26  C   UNL     1      -0.445  13.092  22.769  0.00  0.00    +0.000 C 
BRANCH  26  27
ATOM     27  C   UNL     1      -1.210  14.301  22.240  0.00  0.00    +0.000 C 
BRANCH  27  28
ATOM     28  C   UNL     1      -2.705  14.073  22.410  0.00  0.00    +0.000 C 
BRANCH  28  29
ATOM     29  C   UNL     1      -3.121  12.701  21.899  0.00  0.00    +0.000 C 
BRANCH  29  31
ATOM     30  C   UNL     1      -5.051  12.450  20.310  0.00  0.00    +0.000 C 
ATOM     31  C   UNL     1      -3.585  12.811  20.451  0.00  0.00    +0.000 C 
ENDBRANCH  29  31
ENDBRANCH  28  29
ENDBRANCH  27  28
ENDBRANCH  26  27
ENDBRANCH  25  26
ENDBRANCH   1  25
TORSDOF 13
ENDMDL
MODEL 4
REMARK VINA RESULT:      -6.2      5.187      9.040
REMARK  Name = 
REMARK  20 active torsions:
REMARK  status: ('A' for Active; 'I' for Inactive)
REMARK    1  A    between atoms: C_1  and  C_2
REMARK    2  A    between atoms: C_2  and  C_3
REMARK    3  A    between atoms: C_3  and  C_4
REMARK    4  A    between atoms: C_4  and  C_5
REMARK    5  A    between atoms: C_5  and  C_6
REMARK    6  A    between atoms: C_6  and  O_7
REMARK    7  A    between atoms: O_7  and  C_8
REMARK    8  A    between atoms: C_9  and  C_10
REMARK    9  A    between atoms: C_10  and  C_11
REMARK   10  A    between atoms: C_12  and  C_13
REMARK   11  A    between atoms: C_14  and  C_15
REMARK   12  A    between atoms: C_15  and  C_16
REMARK   13  A    between atoms: C_17  and  C_18
REMARK   14  A    between atoms: C_18  and  O_20
REMARK   15  A    between atoms: C_22  and  C_23
REMARK   16  A    between atoms: C_23  and  C_24
REMARK   17  A    between atoms: C_23  and  C_25
REMARK   18  A    between atoms: C_27  and  C_28
REMARK   19  A    between atoms: C_28  and  C_29
REMARK   20  A    between atoms: C_28  and  C_30
REMARK                            x       y       z     vdW  Elec       q    Type
REMARK                         _______ _______ _______ _____ _____    ______ ____
ROOT
ATOM      1  C   UNL     1       4.600   6.120  18.288  0.00  0.00    +0.000 A 
ATOM      2  C   UNL     1       5.330   4.879  18.232  0.00  0.00    +0.000 A 
ATOM      3  C   UNL     1       4.602   3.700  18.537  0.00  0.00    +0.000 A 
ATOM      4  C   UNL     1       3.239   3.712  18.849  0.00  0.00    +0.000 A 
ATOM      5  C   UNL     1       2.546   4.911  18.705  0.00  0.00    +0.000 A 
ATOM      6  C   UNL     1       3.178   6.133  18.427  0.00  0.00    +0.000 A 
ENDROOT
BRANCH   2   7
ATOM      7  C   UNL     1       6.823   4.732  17.928  0.00  0.00    +0.000 C 
ATOM      8  C   UNL     1       7.811   4.859  19.084  0.00  0.00    +0.000 C 
ATOM      9  C   UNL     1       7.417   4.439  16.743  0.00  0.00    +0.000 C 
BRANCH   9  10
ATOM     10  C   UNL     1       6.810   4.143  15.469  0.00  0.00    +0.000 C 
ATOM     11  C   UNL     1       7.354   4.382  14.261  0.00  0.00    +0.000 C 
BRANCH  11  12
ATOM     12  C   UNL     1       6.635   4.176  12.996  0.00  0.00    +0.000 C 
ATOM     13  C   UNL     1       7.224   4.814  11.757  0.00  0.00    +0.000 C 
ATOM     14  C   UNL     1       5.521   3.414  12.973  0.00  0.00    +0.000 C 
BRANCH  14  15
ATOM     15  C   UNL     1       4.815   3.016  11.725  0.00  0.00    +0.000 C 
ATOM     16  O   UNL     1       3.944   3.650  11.165  0.00  0.00    +0.000 OA
BRANCH  15  17
ATOM     17  O   UNL     1       5.301   1.855  11.229  0.00  0.00    +0.000 OA
ATOM     18  H   UNL     1       5.162   1.707  10.277  0.00  0.00    +0.000 HD
ENDBRANCH  15  17
ENDBRANCH  14  15
ENDBRANCH  11  12
ENDBRANCH   9  10
ENDBRANCH   2   7
BRANCH   4  19
ATOM     19  C   UNL     1       2.515   2.486  19.379  0.00  0.00    +0.000 C 
ATOM     20  C   UNL     1       2.312   2.599  20.901  0.00  0.00    +0.000 C 
ATOM     21  C   UNL     1       1.167   2.257  18.692  0.00  0.00    +0.000 C 
ENDBRANCH   4  19
BRANCH   6  22
ATOM     22  C   UNL     1       2.288   7.370  18.282  0.00  0.00    +0.000 C 
ATOM     23  C   UNL     1       1.891   7.908  19.662  0.00  0.00    +0.000 C 
ATOM     24  C   UNL     1       2.822   8.543  17.435  0.00  0.00    +0.000 C 
ENDBRANCH   6  22
BRANCH   1  25
ATOM     25  O   UNL     1       5.370   7.253  18.179  0.00  0.00    +0.000 OA
BRANCH  25  26
ATOM     26  C   UNL     1       6.187   7.536  17.048  0.00  0.00    +0.000 C 
BRANCH  26  27
ATOM     27  C   UNL     1       7.619   7.930  17.398  0.00  0.00    +0.000 C 
BRANCH  27  28
ATOM     28  C   UNL     1       7.650   9.380  17.859  0.00  0.00    +0.000 C 
BRANCH  28  29
ATOM     29  C   UNL     1       8.880   9.667  18.711  0.00  0.00    +0.000 C 
BRANCH  29  31
ATOM     30  C   UNL     1       8.838  12.046  17.905  0.00  0.00    +0.000 C 
ATOM     31  C   UNL     1       9.684  10.801  18.085  0.00  0.00    +0.000 C 
ENDBRANCH  29  31
ENDBRANCH  28  29
ENDBRANCH  27  28
ENDBRANCH  26  27
ENDBRANCH  25  26
ENDBRANCH   1  25
TORSDOF 13
ENDMDL
MODEL 5
REMARK VINA RESULT:      -6.2      5.216      9.149
REMARK  Name = 
REMARK  20 active torsions:
REMARK  status: ('A' for Active; 'I' for Inactive)
REMARK    1  A    between atoms: C_1  and  C_2
REMARK    2  A    between atoms: C_2  and  C_3
REMARK    3  A    between atoms: C_3  and  C_4
REMARK    4  A    between atoms: C_4  and  C_5
REMARK    5  A    between atoms: C_5  and  C_6
REMARK    6  A    between atoms: C_6  and  O_7
REMARK    7  A    between atoms: O_7  and  C_8
REMARK    8  A    between atoms: C_9  and  C_10
REMARK    9  A    between atoms: C_10  and  C_11
REMARK   10  A    between atoms: C_12  and  C_13
REMARK   11  A    between atoms: C_14  and  C_15
REMARK   12  A    between atoms: C_15  and  C_16
REMARK   13  A    between atoms: C_17  and  C_18
REMARK   14  A    between atoms: C_18  and  O_20
REMARK   15  A    between atoms: C_22  and  C_23
REMARK   16  A    between atoms: C_23  and  C_24
REMARK   17  A    between atoms: C_23  and  C_25
REMARK   18  A    between atoms: C_27  and  C_28
REMARK   19  A    between atoms: C_28  and  C_29
REMARK   20  A    between atoms: C_28  and  C_30
REMARK                            x       y       z     vdW  Elec       q    Type
REMARK                         _______ _______ _______ _____ _____    ______ ____
ROOT
ATOM      1  C   UNL     1       4.981   6.201  17.971  0.00  0.00    +0.000 A 
ATOM      2  C   UNL     1       5.512   4.986  17.406  0.00  0.00    +0.000 A 
ATOM      3  C   UNL     1       4.601   3.912  17.241  0.00  0.00    +0.000 A 
ATOM      4  C   UNL     1       3.246   4.011  17.572  0.00  0.00    +0.000 A 
ATOM      5  C   UNL     1       2.751   5.261  17.935  0.00  0.00    +0.000 A 
ATOM      6  C   UNL     1       3.573   6.378  18.145  0.00  0.00    +0.000 A 
ENDROOT
BRANCH   2   7
ATOM      7  C   UNL     1       6.974   4.741  17.025  0.00  0.00    +0.000 C 
ATOM      8  C   UNL     1       7.991   4.552  18.148  0.00  0.00    +0.000 C 
ATOM      9  C   UNL     1       7.510   4.608  15.786  0.00  0.00    +0.000 C 
BRANCH   9  10
ATOM     10  C   UNL     1       6.852   4.612  14.502  0.00  0.00    +0.000 C 
ATOM     11  C   UNL     1       6.260   3.557  13.915  0.00  0.00    +0.000 C 
BRANCH  11  12
ATOM     12  C   UNL     1       5.717   3.590  12.550  0.00  0.00    +0.000 C 
ATOM     13  C   UNL     1       6.707   3.767  11.420  0.00  0.00    +0.000 C 
ATOM     14  C   UNL     1       4.392   3.430  12.350  0.00  0.00    +0.000 C 
BRANCH  14  15
ATOM     15  C   UNL     1       3.768   3.289  11.006  0.00  0.00    +0.000 C 
ATOM     16  O   UNL     1       3.487   2.244  10.457  0.00  0.00    +0.000 OA
BRANCH  15  17
ATOM     17  O   UNL     1       3.487   4.495  10.462  0.00  0.00    +0.000 OA
ATOM     18  H   UNL     1       3.580   4.558   9.495  0.00  0.00    +0.000 HD
ENDBRANCH  15  17
ENDBRANCH  14  15
ENDBRANCH  11  12
ENDBRANCH   9  10
ENDBRANCH   2   7
BRANCH   4  19
ATOM     19  C   UNL     1       2.323   2.804  17.594  0.00  0.00    +0.000 C 
ATOM     20  C   UNL     1       3.083   1.557  18.085  0.00  0.00    +0.000 C 
ATOM     21  C   UNL     1       1.082   3.029  18.460  0.00  0.00    +0.000 C 
ENDBRANCH   4  19
BRANCH   6  22
ATOM     22  C   UNL     1       2.891   7.694  18.529  0.00  0.00    +0.000 C 
ATOM     23  C   UNL     1       1.998   8.187  17.383  0.00  0.00    +0.000 C 
ATOM     24  C   UNL     1       2.072   7.725  19.835  0.00  0.00    +0.000 C 
ENDBRANCH   6  22
BRANCH   1  25
ATOM     25  O   UNL     1       5.919   7.150  18.297  0.00  0.00    +0.000 OA
BRANCH  25  26
ATOM     26  C   UNL     1       6.678   7.864  17.327  0.00  0.00    +0.000 C 
BRANCH  26  27
ATOM     27  C   UNL     1       7.942   8.514  17.880  0.00  0.00    +0.000 C 
BRANCH  27  28
ATOM     28  C   UNL     1       8.032   9.952  17.390  0.00  0.00    +0.000 C 
BRANCH  28  29
ATOM     29  C   UNL     1       8.971  10.779  18.258  0.00  0.00    +0.000 C 
BRANCH  29  31
ATOM     30  C   UNL     1       9.395  11.001  20.724  0.00  0.00    +0.000 C 
ATOM     31  C   UNL     1       9.251  10.039  19.560  0.00  0.00    +0.000 C 
ENDBRANCH  29  31
ENDBRANCH  28  29
ENDBRANCH  27  28
ENDBRANCH  26  27
ENDBRANCH  25  26
ENDBRANCH   1  25
TORSDOF 13
ENDMDL
MODEL 6
REMARK VINA RESULT:      -6.1      0.765      1.041
REMARK  Name = 
REMARK  20 active torsions:
REMARK  status: ('A' for Active; 'I' for Inactive)
REMARK    1  A    between atoms: C_1  and  C_2
REMARK    2  A    between atoms: C_2  and  C_3
REMARK    3  A    between atoms: C_3  and  C_4
REMARK    4  A    between atoms: C_4  and  C_5
REMARK    5  A    between atoms: C_5  and  C_6
REMARK    6  A    between atoms: C_6  and  O_7
REMARK    7  A    between atoms: O_7  and  C_8
REMARK    8  A    between atoms: C_9  and  C_10
REMARK    9  A    between atoms: C_10  and  C_11
REMARK   10  A    between atoms: C_12  and  C_13
REMARK   11  A    between atoms: C_14  and  C_15
REMARK   12  A    between atoms: C_15  and  C_16
REMARK   13  A    between atoms: C_17  and  C_18
REMARK   14  A    between atoms: C_18  and  O_20
REMARK   15  A    between atoms: C_22  and  C_23
REMARK   16  A    between atoms: C_23  and  C_24
REMARK   17  A    between atoms: C_23  and  C_25
REMARK   18  A    between atoms: C_27  and  C_28
REMARK   19  A    between atoms: C_28  and  C_29
REMARK   20  A    between atoms: C_28  and  C_30
REMARK                            x       y       z     vdW  Elec       q    Type
REMARK                         _______ _______ _______ _____ _____    ______ ____
ROOT
ATOM      1  C   UNL     1       0.067  11.892  20.535  0.00  0.00    +0.000 A 
ATOM      2  C   UNL     1      -0.247  10.486  20.534  0.00  0.00    +0.000 A 
ATOM      3  C   UNL     1      -0.889   9.980  19.374  0.00  0.00    +0.000 A 
ATOM      4  C   UNL     1      -1.184  10.777  18.264  0.00  0.00    +0.000 A 
ATOM      5  C   UNL     1      -0.691  12.080  18.245  0.00  0.00    +0.000 A 
ATOM      6  C   UNL     1      -0.062  12.677  19.348  0.00  0.00    +0.000 A 
ENDROOT
BRANCH   2   7
ATOM      7  C   UNL     1      -0.000   9.512  21.689  0.00  0.00    +0.000 C 
ATOM      8  C   UNL     1      -0.783   9.714  22.983  0.00  0.00    +0.000 C 
ATOM      9  C   UNL     1       0.805   8.420  21.712  0.00  0.00    +0.000 C 
BRANCH   9  10
ATOM     10  C   UNL     1       1.604   7.854  20.653  0.00  0.00    +0.000 C 
ATOM     11  C   UNL     1       1.929   6.555  20.518  0.00  0.00    +0.000 C 
BRANCH  11  12
ATOM     12  C   UNL     1       2.853   6.056  19.490  0.00  0.00    +0.000 C 
ATOM     13  C   UNL     1       2.960   6.859  18.212  0.00  0.00    +0.000 C 
ATOM     14  C   UNL     1       3.584   4.946  19.725  0.00  0.00    +0.000 C 
BRANCH  14  15
ATOM     15  C   UNL     1       4.657   4.453  18.819  0.00  0.00    +0.000 C 
ATOM     16  O   UNL     1       4.491   3.936  17.734  0.00  0.00    +0.000 OA
BRANCH  15  17
ATOM     17  O   UNL     1       5.886   4.700  19.326  0.00  0.00    +0.000 OA
ATOM     18  H   UNL     1       6.458   3.923  19.455  0.00  0.00    +0.000 HD
ENDBRANCH  15  17
ENDBRANCH  14  15
ENDBRANCH  11  12
ENDBRANCH   9  10
ENDBRANCH   2   7
BRANCH   4  19
ATOM     19  C   UNL     1      -2.055  10.288  17.119  0.00  0.00    +0.000 C 
ATOM     20  C   UNL     1      -3.283   9.536  17.663  0.00  0.00    +0.000 C 
ATOM     21  C   UNL     1      -2.508  11.424  16.199  0.00  0.00    +0.000 C 
ENDBRANCH   4  19
BRANCH   6  22
ATOM     22  C   UNL     1       0.443  14.113  19.181  0.00  0.00    +0.000 C 
ATOM     23  C   UNL     1       1.730  14.132  18.346  0.00  0.00    +0.000 C 
ATOM     24  C   UNL     1      -0.533  15.155  18.598  0.00  0.00    +0.000 C 
ENDBRANCH   6  22
BRANCH   1  25
ATOM     25  O   UNL     1       0.508  12.388  21.739  0.00  0.00    +0.000 OA
BRANCH  25  26
ATOM     26  C   UNL     1      -0.362  12.933  22.726  0.00  0.00    +0.000 C 
BRANCH  26  27
ATOM     27  C   UNL     1      -1.022  14.246  22.317  0.00  0.00    +0.000 C 
BRANCH  27  28
ATOM     28  C   UNL     1      -2.453  13.980  21.874  0.00  0.00    +0.000 C 
BRANCH  28  29
ATOM     29  C   UNL     1      -3.091  12.863  22.689  0.00  0.00    +0.000 C 
BRANCH  29  31
ATOM     30  C   UNL     1      -4.483  12.379  24.723  0.00  0.00    +0.000 C 
ATOM     31  C   UNL     1      -3.768  13.449  23.922  0.00  0.00    +0.000 C 
ENDBRANCH  29  31
ENDBRANCH  28  29
ENDBRANCH  27  28
ENDBRANCH  26  27
ENDBRANCH  25  26
ENDBRANCH   1  25
TORSDOF 13
ENDMDL
MODEL 7
REMARK VINA RESULT:      -6.0      2.098      3.753
REMARK  Name = 
REMARK  20 active torsions:
REMARK  status: ('A' for Active; 'I' for Inactive)
REMARK    1  A    between atoms: C_1  and  C_2
REMARK    2  A    between atoms: C_2  and  C_3
REMARK    3  A    between atoms: C_3  and  C_4
REMARK    4  A    between atoms: C_4  and  C_5
REMARK    5  A    between atoms: C_5  and  C_6
REMARK    6  A    between atoms: C_6  and  O_7
REMARK    7  A    between atoms: O_7  and  C_8
REMARK    8  A    between atoms: C_9  and  C_10
REMARK    9  A    between atoms: C_10  and  C_11
REMARK   10  A    between atoms: C_12  and  C_13
REMARK   11  A    between atoms: C_14  and  C_15
REMARK   12  A    between atoms: C_15  and  C_16
REMARK   13  A    between atoms: C_17  and  C_18
REMARK   14  A    between atoms: C_18  and  O_20
REMARK   15  A    between atoms: C_22  and  C_23
REMARK   16  A    between atoms: C_23  and  C_24
REMARK   17  A    between atoms: C_23  and  C_25
REMARK   18  A    between atoms: C_27  and  C_28
REMARK   19  A    between atoms: C_28  and  C_29
REMARK   20  A    between atoms: C_28  and  C_30
REMARK                            x       y       z     vdW  Elec       q    Type
REMARK                         _______ _______ _______ _____ _____    ______ ____
ROOT
ATOM      1  C   UNL     1       0.102  11.286  19.807  0.00  0.00    +0.000 A 
ATOM      2  C   UNL     1       0.457  10.643  18.567  0.00  0.00    +0.000 A 
ATOM      3  C   UNL     1      -0.616  10.230  17.737  0.00  0.00    +0.000 A 
ATOM      4  C   UNL     1      -1.957  10.452  18.066  0.00  0.00    +0.000 A 
ATOM      5  C   UNL     1      -2.234  11.240  19.180  0.00  0.00    +0.000 A 
ATOM      6  C   UNL     1      -1.245  11.679  20.074  0.00  0.00    +0.000 A 
ENDROOT
BRANCH   2   7
ATOM      7  C   UNL     1       1.879  10.321  18.101  0.00  0.00    +0.000 C 
ATOM      8  C   UNL     1       2.752  11.469  17.599  0.00  0.00    +0.000 C 
ATOM      9  C   UNL     1       2.521   9.126  18.119  0.00  0.00    +0.000 C 
BRANCH   9  10
ATOM     10  C   UNL     1       2.065   7.853  18.621  0.00  0.00    +0.000 C 
ATOM     11  C   UNL     1       2.791   6.722  18.683  0.00  0.00    +0.000 C 
BRANCH  11  12
ATOM     12  C   UNL     1       2.233   5.424  19.085  0.00  0.00    +0.000 C 
ATOM     13  C   UNL     1       1.927   4.434  17.983  0.00  0.00    +0.000 C 
ATOM     14  C   UNL     1       2.049   5.150  20.394  0.00  0.00    +0.000 C 
BRANCH  14  15
ATOM     15  C   UNL     1       1.642   3.814  20.911  0.00  0.00    +0.000 C 
ATOM     16  O   UNL     1       2.264   3.137  21.703  0.00  0.00    +0.000 OA
BRANCH  15  17
ATOM     17  O   UNL     1       0.434   3.443  20.428  0.00  0.00    +0.000 OA
ATOM     18  H   UNL     1       0.219   2.497  20.501  0.00  0.00    +0.000 HD
ENDBRANCH  15  17
ENDBRANCH  14  15
ENDBRANCH  11  12
ENDBRANCH   9  10
ENDBRANCH   2   7
BRANCH   4  19
ATOM     19  C   UNL     1      -3.100   9.825  17.287  0.00  0.00    +0.000 C 
ATOM     20  C   UNL     1      -4.448  10.147  17.959  0.00  0.00    +0.000 C 
ATOM     21  C   UNL     1      -3.130  10.276  15.824  0.00  0.00    +0.000 C 
ENDBRANCH   4  19
BRANCH   6  22
ATOM     22  C   UNL     1      -1.694  12.553  21.249  0.00  0.00    +0.000 C 
ATOM     23  C   UNL     1      -3.122  13.063  21.021  0.00  0.00    +0.000 C 
ATOM     24  C   UNL     1      -1.610  11.949  22.666  0.00  0.00    +0.000 C 
ENDBRANCH   6  22
BRANCH   1  25
ATOM     25  O   UNL     1       1.149  11.499  20.672  0.00  0.00    +0.000 OA
BRANCH  25  26
ATOM     26  C   UNL     1       1.998  12.639  20.606  0.00  0.00    +0.000 C 
BRANCH  26  27
ATOM     27  C   UNL     1       1.265  13.946  20.319  0.00  0.00    +0.000 C 
BRANCH  27  28
ATOM     28  C   UNL     1       1.792  14.553  19.027  0.00  0.00    +0.000 C 
BRANCH  28  29
ATOM     29  C   UNL     1       1.109  15.877  18.713  0.00  0.00    +0.000 C 
BRANCH  29  31
ATOM     30  C   UNL     1      -1.071  17.118  18.854  0.00  0.00    +0.000 C 
ATOM     31  C   UNL     1      -0.347  15.821  19.158  0.00  0.00    +0.000 C 
ENDBRANCH  29  31
ENDBRANCH  28  29
ENDBRANCH  27  28
ENDBRANCH  26  27
ENDBRANCH  25  26
ENDBRANCH   1  25
TORSDOF 13
ENDMDL
MODEL 8
REMARK VINA RESULT:      -6.0      3.623      9.367
REMARK  Name = 
REMARK  20 active torsions:
REMARK  status: ('A' for Active; 'I' for Inactive)
REMARK    1  A    between atoms: C_1  and  C_2
REMARK    2  A    between atoms: C_2  and  C_3
REMARK    3  A    between atoms: C_3  and  C_4
REMARK    4  A    between atoms: C_4  and  C_5
REMARK    5  A    between atoms: C_5  and  C_6
REMARK    6  A    between atoms: C_6  and  O_7
REMARK    7  A    between atoms: O_7  and  C_8
REMARK    8  A    between atoms: C_9  and  C_10
REMARK    9  A    between atoms: C_10  and  C_11
REMARK   10  A    between atoms: C_12  and  C_13
REMARK   11  A    between atoms: C_14  and  C_15
REMARK   12  A    between atoms: C_15  and  C_16
REMARK   13  A    between atoms: C_17  and  C_18
REMARK   14  A    between atoms: C_18  and  O_20
REMARK   15  A    between atoms: C_22  and  C_23
REMARK   16  A    between atoms: C_23  and  C_24
REMARK   17  A    between atoms: C_23  and  C_25
REMARK   18  A    between atoms: C_27  and  C_28
REMARK   19  A    between atoms: C_28  and  C_29
REMARK   20  A    between atoms: C_28  and  C_30
REMARK                            x       y       z     vdW  Elec       q    Type
REMARK                         _______ _______ _______ _____ _____    ______ ____
ROOT
ATOM      1  C   UNL     1       5.357   5.053  17.530  0.00  0.00    +0.000 A 
ATOM      2  C   UNL     1       4.439   4.251  16.762  0.00  0.00    +0.000 A 
ATOM      3  C   UNL     1       4.865   3.866  15.464  0.00  0.00    +0.000 A 
ATOM      4  C   UNL     1       6.118   4.210  14.946  0.00  0.00    +0.000 A 
ATOM      5  C   UNL     1       7.032   4.823  15.799  0.00  0.00    +0.000 A 
ATOM      6  C   UNL     1       6.701   5.259  17.091  0.00  0.00    +0.000 A 
ENDROOT
BRANCH   2   7
ATOM      7  C   UNL     1       3.036   3.828  17.201  0.00  0.00    +0.000 C 
ATOM      8  C   UNL     1       2.728   2.336  17.298  0.00  0.00    +0.000 C 
ATOM      9  C   UNL     1       1.999   4.617  17.584  0.00  0.00    +0.000 C 
BRANCH   9  10
ATOM     10  C   UNL     1       1.950   6.051  17.728  0.00  0.00    +0.000 C 
ATOM     11  C   UNL     1       2.023   6.732  18.886  0.00  0.00    +0.000 C 
BRANCH  11  12
ATOM     12  C   UNL     1       1.839   8.186  18.982  0.00  0.00    +0.000 C 
ATOM     13  C   UNL     1       2.364   9.024  17.837  0.00  0.00    +0.000 C 
ATOM     14  C   UNL     1       1.191   8.712  20.043  0.00  0.00    +0.000 C 
BRANCH  14  15
ATOM     15  C   UNL     1       0.816  10.148  20.156  0.00  0.00    +0.000 C 
ATOM     16  O   UNL     1       0.148  10.775  19.359  0.00  0.00    +0.000 OA
BRANCH  15  17
ATOM     17  O   UNL     1       1.267  10.690  21.310  0.00  0.00    +0.000 OA
ATOM     18  H   UNL     1       1.559  10.059  21.991  0.00  0.00    +0.000 HD
ENDBRANCH  15  17
ENDBRANCH  14  15
ENDBRANCH  11  12
ENDBRANCH   9  10
ENDBRANCH   2   7
BRANCH   4  19
ATOM     19  C   UNL     1       6.486   3.982  13.490  0.00  0.00    +0.000 C 
ATOM     20  C   UNL     1       5.217   3.772  12.643  0.00  0.00    +0.000 C 
ATOM     21  C   UNL     1       7.315   5.129  12.908  0.00  0.00    +0.000 C 
ENDBRANCH   4  19
BRANCH   6  22
ATOM     22  C   UNL     1       7.812   5.905  17.924  0.00  0.00    +0.000 C 
ATOM     23  C   UNL     1       7.703   7.434  17.868  0.00  0.00    +0.000 C 
ATOM     24  C   UNL     1       7.944   5.478  19.400  0.00  0.00    +0.000 C 
ENDBRANCH   6  22
BRANCH   1  25
ATOM     25  O   UNL     1       4.844   5.568  18.696  0.00  0.00    +0.000 OA
BRANCH  25  26
ATOM     26  C   UNL     1       4.596   4.781  19.856  0.00  0.00    +0.000 C 
BRANCH  26  27
ATOM     27  C   UNL     1       5.116   3.350  19.759  0.00  0.00    +0.000 C 
BRANCH  27  28
ATOM     28  C   UNL     1       4.393   2.476  20.774  0.00  0.00    +0.000 C 
BRANCH  28  29
ATOM     29  C   UNL     1       2.921   2.312  20.420  0.00  0.00    +0.000 C 
BRANCH  29  31
ATOM     30  C   UNL     1       0.936   3.810  20.775  0.00  0.00    +0.000 C 
ATOM     31  C   UNL     1       2.062   3.046  21.443  0.00  0.00    +0.000 C 
ENDBRANCH  29  31
ENDBRANCH  28  29
ENDBRANCH  27  28
ENDBRANCH  26  27
ENDBRANCH  25  26
ENDBRANCH   1  25
TORSDOF 13
ENDMDL
MODEL 9
REMARK VINA RESULT:      -5.9      2.794      7.416
REMARK  Name = 
REMARK  20 active torsions:
REMARK  status: ('A' for Active; 'I' for Inactive)
REMARK    1  A    between atoms: C_1  and  C_2
REMARK    2  A    between atoms: C_2  and  C_3
REMARK    3  A    between atoms: C_3  and  C_4
REMARK    4  A    between atoms: C_4  and  C_5
REMARK    5  A    between atoms: C_5  and  C_6
REMARK    6  A    between atoms: C_6  and  O_7
REMARK    7  A    between atoms: O_7  and  C_8
REMARK    8  A    between atoms: C_9  and  C_10
REMARK    9  A    between atoms: C_10  and  C_11
REMARK   10  A    between atoms: C_12  and  C_13
REMARK   11  A    between atoms: C_14  and  C_15
REMARK   12  A    between atoms: C_15  and  C_16
REMARK   13  A    between atoms: C_17  and  C_18
REMARK   14  A    between atoms: C_18  and  O_20
REMARK   15  A    between atoms: C_22  and  C_23
REMARK   16  A    between atoms: C_23  and  C_24
REMARK   17  A    between atoms: C_23  and  C_25
REMARK   18  A    between atoms: C_27  and  C_28
REMARK   19  A    between atoms: C_28  and  C_29
REMARK   20  A    between atoms: C_28  and  C_30
REMARK                            x       y       z     vdW  Elec       q    Type
REMARK                         _______ _______ _______ _____ _____    ______ ____
ROOT
ATOM      1  C   UNL     1       2.457   7.442  19.198  0.00  0.00    +0.000 A 
ATOM      2  C   UNL     1       1.670   7.384  20.404  0.00  0.00    +0.000 A 
ATOM      3  C   UNL     1       1.211   6.102  20.801  0.00  0.00    +0.000 A 
ATOM      4  C   UNL     1       1.518   4.936  20.093  0.00  0.00    +0.000 A 
ATOM      5  C   UNL     1       2.434   5.027  19.048  0.00  0.00    +0.000 A 
ATOM      6  C   UNL     1       2.929   6.249  18.568  0.00  0.00    +0.000 A 
ENDROOT
BRANCH   2   7
ATOM      7  C   UNL     1       1.245   8.584  21.254  0.00  0.00    +0.000 C 
ATOM      8  C   UNL     1       2.047   8.896  22.514  0.00  0.00    +0.000 C 
ATOM      9  C   UNL     1       0.253   9.478  21.012  0.00  0.00    +0.000 C 
BRANCH   9  10
ATOM     10  C   UNL     1      -0.633   9.573  19.878  0.00  0.00    +0.000 C 
ATOM     11  C   UNL     1      -1.191  10.702  19.404  0.00  0.00    +0.000 C 
BRANCH  11  12
ATOM     12  C   UNL     1      -2.186  10.720  18.324  0.00  0.00    +0.000 C 
ATOM     13  C   UNL     1      -1.868   9.918  17.081  0.00  0.00    +0.000 C 
ATOM     14  C   UNL     1      -3.339  11.404  18.484  0.00  0.00    +0.000 C 
BRANCH  14  15
ATOM     15  C   UNL     1      -4.473  11.354  17.521  0.00  0.00    +0.000 C 
ATOM     16  O   UNL     1      -4.494  11.862  16.418  0.00  0.00    +0.000 OA
BRANCH  15  17
ATOM     17  O   UNL     1      -5.496  10.609  17.997  0.00  0.00    +0.000 OA
ATOM     18  H   UNL     1      -6.291  11.101  18.268  0.00  0.00    +0.000 HD
ENDBRANCH  15  17
ENDBRANCH  14  15
ENDBRANCH  11  12
ENDBRANCH   9  10
ENDBRANCH   2   7
BRANCH   4  19
ATOM     19  C   UNL     1       0.855   3.602  20.395  0.00  0.00    +0.000 C 
ATOM     20  C   UNL     1       0.880   2.697  19.150  0.00  0.00    +0.000 C 
ATOM     21  C   UNL     1       1.505   2.878  21.577  0.00  0.00    +0.000 C 
ENDBRANCH   4  19
BRANCH   6  22
ATOM     22  C   UNL     1       3.942   6.199  17.421  0.00  0.00    +0.000 C 
ATOM     23  C   UNL     1       5.256   6.869  17.839  0.00  0.00    +0.000 C 
ATOM     24  C   UNL     1       4.268   4.820  16.811  0.00  0.00    +0.000 C 
ENDBRANCH   6  22
BRANCH   1  25
ATOM     25  O   UNL     1       2.722   8.709  18.738  0.00  0.00    +0.000 OA
BRANCH  25  26
ATOM     26  C   UNL     1       1.865   9.411  17.843  0.00  0.00    +0.000 C 
BRANCH  26  27
ATOM     27  C   UNL     1       2.302  10.844  17.557  0.00  0.00    +0.000 C 
BRANCH  27  28
ATOM     28  C   UNL     1       1.657  11.784  18.564  0.00  0.00    +0.000 C 
BRANCH  28  29
ATOM     29  C   UNL     1       2.021  13.236  18.284  0.00  0.00    +0.000 C 
BRANCH  29  31
ATOM     30  C   UNL     1       1.536  13.229  20.749  0.00  0.00    +0.000 C 
ATOM     31  C   UNL     1       1.722  14.087  19.513  0.00  0.00    +0.000 C 
ENDBRANCH  29  31
ENDBRANCH  28  29
ENDBRANCH  27  28
ENDBRANCH  26  27
ENDBRANCH  25  26
ENDBRANCH   1  25
TORSDOF 13
ENDMDL
