MODEL 1
REMARK VINA RESULT:      -7.1      0.000      0.000
REMARK  Name = 
REMARK  7 active torsions:
REMARK  status: ('A' for Active; 'I' for Inactive)
REMARK    1  A    between atoms: C_1  and  C_2
REMARK    2  A    between atoms: N_4  and  C_5
REMARK    3  A    between atoms: N_10  and  C_11
REMARK    4  A    between atoms: C_11  and  C_12
REMARK    5  A    between atoms: C_24  and  C_25
REMARK    6  A    between atoms: C_26  and  C_27
REMARK    7  A    between atoms: N_29  and  O_30
REMARK                            x       y       z     vdW  Elec       q    Type
REMARK                         _______ _______ _______ _____ _____    ______ ____
ROOT
ATOM      1  C   UNL     1       9.268  12.296  21.903  0.00  0.00    +0.000 C 
ATOM      2  C   UNL     1       9.678  13.766  21.996  0.00  0.00    +0.000 C 
ATOM      3  C   UNL     1       9.010  14.621  20.896  0.00  0.00    +0.000 C 
ATOM      4  C   UNL     1       7.466  14.573  20.903  0.00  0.00    +0.000 C 
ATOM      5  C   UNL     1       6.852  15.627  19.991  0.00  0.00    +0.000 C 
ATOM      6  N   UNL     1       7.238  16.983  20.377  0.00  0.00    +0.000 NA
ATOM      7  C   UNL     1       8.699  17.105  20.250  0.00  0.00    +0.000 C 
ATOM      8  C   UNL     1       9.491  16.083  21.077  0.00  0.00    +0.000 C 
ATOM      9  O   UNL     1       9.472  14.150  19.610  0.00  0.00    +0.000 OA
ATOM     10  C   UNL     1       9.322  12.799  19.415  0.00  0.00    +0.000 A 
ATOM     11  C   UNL     1       9.234  12.379  18.090  0.00  0.00    +0.000 A 
ATOM     12  C   UNL     1       9.038  11.027  17.793  0.00  0.00    +0.000 A 
ATOM     13  C   UNL     1       8.967  10.075  18.817  0.00  0.00    +0.000 A 
ATOM     14  C   UNL     1       9.046  10.511  20.148  0.00  0.00    +0.000 A 
ATOM     15  C   UNL     1       9.224  11.868  20.458  0.00  0.00    +0.000 A 
ENDROOT
BRANCH   1  19
ATOM     16  C   UNL     1       6.342  11.775  24.283  0.00  0.00    +0.000 C 
ATOM     17  C   UNL     1       7.793  11.892  23.889  0.00  0.00    +0.000 C 
ATOM     18  O   UNL     1       8.708  11.811  24.700  0.00  0.00    +0.000 OA
ATOM     19  N   UNL     1       7.972  12.079  22.544  0.00  0.00    +0.000 N 
ATOM     20  H   UNL     1       7.172  11.916  21.953  0.00  0.00    +0.000 HD
ENDBRANCH   1  19
BRANCH  13  21
ATOM     21  C   UNL     1       8.762   8.661  18.475  0.00  0.00    +0.000 C 
ATOM     22  C   UNL     1       7.755   8.228  17.704  0.00  0.00    +0.000 C 
BRANCH  22  23
ATOM     23  C   UNL     1       7.596   6.783  17.418  0.00  0.00    +0.000 C 
ATOM     24  O   UNL     1       7.484   6.325  16.289  0.00  0.00    +0.000 OA
ATOM     25  N   UNL     1       7.583   6.008  18.545  0.00  0.00    +0.000 N 
ATOM     26  H   UNL     1       7.690   6.335  19.497  0.00  0.00    +0.000 HD
BRANCH  25  27
ATOM     27  O   UNL     1       7.453   4.615  18.355  0.00  0.00    +0.000 OA
ATOM     28  H   UNL     1       6.522   4.454  18.627  0.00  0.00    +0.000 HD
ENDBRANCH  25  27
ENDBRANCH  22  23
ENDBRANCH  13  21
BRANCH   6  29
ATOM     29  C   UNL     1       6.748  17.386  21.712  0.00  0.00    +0.000 C 
BRANCH  29  30
ATOM     30  C   UNL     1       5.238  17.331  21.861  0.00  0.00    +0.000 A 
ATOM     31  C   UNL     1       4.405  18.159  21.088  0.00  0.00    +0.000 A 
ATOM     32  C   UNL     1       3.020  18.140  21.266  0.00  0.00    +0.000 A 
ATOM     33  C   UNL     1       2.450  17.289  22.210  0.00  0.00    +0.000 A 
ATOM     34  C   UNL     1       3.264  16.451  22.970  0.00  0.00    +0.000 A 
ATOM     35  C   UNL     1       4.650  16.471  22.798  0.00  0.00    +0.000 A 
ENDBRANCH  29  30
ENDBRANCH   6  29
TORSDOF 6
ENDMDL
MODEL 2
REMARK VINA RESULT:      -6.8      0.967      1.392
REMARK  Name = 
REMARK  7 active torsions:
REMARK  status: ('A' for Active; 'I' for Inactive)
REMARK    1  A    between atoms: C_1  and  C_2
REMARK    2  A    between atoms: N_4  and  C_5
REMARK    3  A    between atoms: N_10  and  C_11
REMARK    4  A    between atoms: C_11  and  C_12
REMARK    5  A    between atoms: C_24  and  C_25
REMARK    6  A    between atoms: C_26  and  C_27
REMARK    7  A    between atoms: N_29  and  O_30
REMARK                            x       y       z     vdW  Elec       q    Type
REMARK                         _______ _______ _______ _____ _____    ______ ____
ROOT
ATOM      1  C   UNL     1       9.424  12.742  21.801  0.00  0.00    +0.000 C 
ATOM      2  C   UNL     1      10.009  14.154  21.792  0.00  0.00    +0.000 C 
ATOM      3  C   UNL     1       9.575  14.949  20.541  0.00  0.00    +0.000 C 
ATOM      4  C   UNL     1       8.044  15.084  20.373  0.00  0.00    +0.000 C 
ATOM      5  C   UNL     1       7.669  16.090  19.293  0.00  0.00    +0.000 C 
ATOM      6  N   UNL     1       8.186  17.428  19.582  0.00  0.00    +0.000 NA
ATOM      7  C   UNL     1       9.655  17.362  19.615  0.00  0.00    +0.000 C 
ATOM      8  C   UNL     1      10.219  16.356  20.627  0.00  0.00    +0.000 C 
ATOM      9  O   UNL     1      10.102  14.283  19.372  0.00  0.00    +0.000 OA
ATOM     10  C   UNL     1       9.799  12.945  19.299  0.00  0.00    +0.000 A 
ATOM     11  C   UNL     1       9.795  12.389  18.021  0.00  0.00    +0.000 A 
ATOM     12  C   UNL     1       9.457  11.044  17.843  0.00  0.00    +0.000 A 
ATOM     13  C   UNL     1       9.159  10.231  18.942  0.00  0.00    +0.000 A 
ATOM     14  C   UNL     1       9.156  10.805  20.222  0.00  0.00    +0.000 A 
ATOM     15  C   UNL     1       9.475  12.158  20.412  0.00  0.00    +0.000 A 
ENDROOT
BRANCH   1  19
ATOM     16  C   UNL     1       6.147  12.208  23.664  0.00  0.00    +0.000 C 
ATOM     17  C   UNL     1       7.577  11.919  23.283  0.00  0.00    +0.000 C 
ATOM     18  O   UNL     1       8.231  11.019  23.796  0.00  0.00    +0.000 OA
ATOM     19  N   UNL     1       8.052  12.753  22.305  0.00  0.00    +0.000 N 
ATOM     20  H   UNL     1       7.370  13.307  21.811  0.00  0.00    +0.000 HD
ENDBRANCH   1  19
BRANCH  13  21
ATOM     21  C   UNL     1       8.809   8.821  18.723  0.00  0.00    +0.000 C 
ATOM     22  C   UNL     1       7.909   8.417  17.815  0.00  0.00    +0.000 C 
BRANCH  22  23
ATOM     23  C   UNL     1       7.590   6.979  17.664  0.00  0.00    +0.000 C 
ATOM     24  O   UNL     1       7.776   6.148  18.542  0.00  0.00    +0.000 OA
ATOM     25  N   UNL     1       7.068   6.668  16.438  0.00  0.00    +0.000 N 
ATOM     26  H   UNL     1       6.877   7.319  15.687  0.00  0.00    +0.000 HD
BRANCH  25  27
ATOM     27  O   UNL     1       6.720   5.317  16.221  0.00  0.00    +0.000 OA
ATOM     28  H   UNL     1       5.999   5.181  16.877  0.00  0.00    +0.000 HD
ENDBRANCH  25  27
ENDBRANCH  22  23
ENDBRANCH  13  21
BRANCH   6  29
ATOM     29  C   UNL     1       7.617  18.036  20.803  0.00  0.00    +0.000 C 
BRANCH  29  30
ATOM     30  C   UNL     1       6.172  17.654  21.070  0.00  0.00    +0.000 A 
ATOM     31  C   UNL     1       5.793  17.072  22.293  0.00  0.00    +0.000 A 
ATOM     32  C   UNL     1       4.471  16.675  22.513  0.00  0.00    +0.000 A 
ATOM     33  C   UNL     1       3.513  16.863  21.519  0.00  0.00    +0.000 A 
ATOM     34  C   UNL     1       3.873  17.455  20.310  0.00  0.00    +0.000 A 
ATOM     35  C   UNL     1       5.194  17.847  20.085  0.00  0.00    +0.000 A 
ENDBRANCH  29  30
ENDBRANCH   6  29
TORSDOF 6
ENDMDL
MODEL 3
REMARK VINA RESULT:      -6.6      0.834      1.192
REMARK  Name = 
REMARK  7 active torsions:
REMARK  status: ('A' for Active; 'I' for Inactive)
REMARK    1  A    between atoms: C_1  and  C_2
REMARK    2  A    between atoms: N_4  and  C_5
REMARK    3  A    between atoms: N_10  and  C_11
REMARK    4  A    between atoms: C_11  and  C_12
REMARK    5  A    between atoms: C_24  and  C_25
REMARK    6  A    between atoms: C_26  and  C_27
REMARK    7  A    between atoms: N_29  and  O_30
REMARK                            x       y       z     vdW  Elec       q    Type
REMARK                         _______ _______ _______ _____ _____    ______ ____
ROOT
ATOM      1  C   UNL     1       9.361  13.333  21.873  0.00  0.00    +0.000 C 
ATOM      2  C   UNL     1       9.784  14.801  21.810  0.00  0.00    +0.000 C 
ATOM      3  C   UNL     1       9.155  15.530  20.602  0.00  0.00    +0.000 C 
ATOM      4  C   UNL     1       7.610  15.494  20.571  0.00  0.00    +0.000 C 
ATOM      5  C   UNL     1       7.032  16.442  19.528  0.00  0.00    +0.000 C 
ATOM      6  N   UNL     1       7.422  17.830  19.769  0.00  0.00    +0.000 NA
ATOM      7  C   UNL     1       8.886  17.927  19.671  0.00  0.00    +0.000 C 
ATOM      8  C   UNL     1       9.646  16.999  20.629  0.00  0.00    +0.000 C 
ATOM      9  O   UNL     1       9.647  14.913  19.391  0.00  0.00    +0.000 OA
ATOM     10  C   UNL     1       9.488  13.549  19.347  0.00  0.00    +0.000 A 
ATOM     11  C   UNL     1       9.432  12.983  18.075  0.00  0.00    +0.000 A 
ATOM     12  C   UNL     1       9.230  11.607  17.929  0.00  0.00    +0.000 A 
ATOM     13  C   UNL     1       9.122  10.778  19.051  0.00  0.00    +0.000 A 
ATOM     14  C   UNL     1       9.169  11.361  20.326  0.00  0.00    +0.000 A 
ATOM     15  C   UNL     1       9.353  12.744  20.485  0.00  0.00    +0.000 A 
ENDROOT
BRANCH   1  19
ATOM     16  C   UNL     1       6.341  12.460  24.020  0.00  0.00    +0.000 C 
ATOM     17  C   UNL     1       7.754  12.326  23.512  0.00  0.00    +0.000 C 
ATOM     18  O   UNL     1       8.545  11.506  23.963  0.00  0.00    +0.000 OA
ATOM     19  N   UNL     1       8.046  13.199  22.497  0.00  0.00    +0.000 N 
ATOM     20  H   UNL     1       7.267  13.672  22.067  0.00  0.00    +0.000 HD
ENDBRANCH   1  19
BRANCH  13  21
ATOM     21  C   UNL     1       8.912   9.336  18.866  0.00  0.00    +0.000 C 
ATOM     22  C   UNL     1       8.103   8.823  17.927  0.00  0.00    +0.000 C 
BRANCH  22  23
ATOM     23  C   UNL     1       7.922   7.358  17.811  0.00  0.00    +0.000 C 
ATOM     24  O   UNL     1       7.614   6.794  16.770  0.00  0.00    +0.000 OA
ATOM     25  N   UNL     1       8.129   6.694  18.990  0.00  0.00    +0.000 N 
ATOM     26  H   UNL     1       8.403   7.110  19.871  0.00  0.00    +0.000 HD
BRANCH  25  27
ATOM     27  O   UNL     1       7.993   5.289  18.958  0.00  0.00    +0.000 OA
ATOM     28  H   UNL     1       8.273   5.032  19.866  0.00  0.00    +0.000 HD
ENDBRANCH  25  27
ENDBRANCH  22  23
ENDBRANCH  13  21
BRANCH   6  29
ATOM     29  C   UNL     1       6.900  18.386  21.036  0.00  0.00    +0.000 C 
BRANCH  29  30
ATOM     30  C   UNL     1       5.504  17.908  21.393  0.00  0.00    +0.000 A 
ATOM     31  C   UNL     1       5.258  17.231  22.600  0.00  0.00    +0.000 A 
ATOM     32  C   UNL     1       3.982  16.748  22.900  0.00  0.00    +0.000 A 
ATOM     33  C   UNL     1       2.935  16.945  22.002  0.00  0.00    +0.000 A 
ATOM     34  C   UNL     1       3.161  17.631  20.810  0.00  0.00    +0.000 A 
ATOM     35  C   UNL     1       4.438  18.109  20.505  0.00  0.00    +0.000 A 
ENDBRANCH  29  30
ENDBRANCH   6  29
TORSDOF 6
ENDMDL
MODEL 4
REMARK VINA RESULT:      -6.5      9.607     11.680
REMARK  Name = 
REMARK  7 active torsions:
REMARK  status: ('A' for Active; 'I' for Inactive)
REMARK    1  A    between atoms: C_1  and  C_2
REMARK    2  A    between atoms: N_4  and  C_5
REMARK    3  A    between atoms: N_10  and  C_11
REMARK    4  A    between atoms: C_11  and  C_12
REMARK    5  A    between atoms: C_24  and  C_25
REMARK    6  A    between atoms: C_26  and  C_27
REMARK    7  A    between atoms: N_29  and  O_30
REMARK                            x       y       z     vdW  Elec       q    Type
REMARK                         _______ _______ _______ _____ _____    ______ ____
ROOT
ATOM      1  C   UNL     1      -4.980  12.524  19.781  0.00  0.00    +0.000 C 
ATOM      2  C   UNL     1      -4.488  12.541  21.229  0.00  0.00    +0.000 C 
ATOM      3  C   UNL     1      -2.994  12.923  21.325  0.00  0.00    +0.000 C 
ATOM      4  C   UNL     1      -2.648  14.297  20.706  0.00  0.00    +0.000 C 
ATOM      5  C   UNL     1      -1.238  14.749  21.059  0.00  0.00    +0.000 C 
ATOM      6  N   UNL     1      -1.042  14.872  22.503  0.00  0.00    +0.000 NA
ATOM      7  C   UNL     1      -1.232  13.546  23.112  0.00  0.00    +0.000 C 
ATOM      8  C   UNL     1      -2.598  12.908  22.823  0.00  0.00    +0.000 C 
ATOM      9  O   UNL     1      -2.219  11.911  20.643  0.00  0.00    +0.000 OA
ATOM     10  C   UNL     1      -2.633  11.652  19.360  0.00  0.00    +0.000 A 
ATOM     11  C   UNL     1      -1.668  11.129  18.501  0.00  0.00    +0.000 A 
ATOM     12  C   UNL     1      -1.984  10.871  17.164  0.00  0.00    +0.000 A 
ATOM     13  C   UNL     1      -3.278  11.098  16.680  0.00  0.00    +0.000 A 
ATOM     14  C   UNL     1      -4.238  11.634  17.551  0.00  0.00    +0.000 A 
ATOM     15  C   UNL     1      -3.927  11.914  18.891  0.00  0.00    +0.000 A 
ENDROOT
BRANCH   1  19
ATOM     16  C   UNL     1      -6.635  15.739  18.589  0.00  0.00    +0.000 C 
ATOM     17  C   UNL     1      -6.558  14.269  18.916  0.00  0.00    +0.000 C 
ATOM     18  O   UNL     1      -7.516  13.514  18.802  0.00  0.00    +0.000 OA
ATOM     19  N   UNL     1      -5.313  13.875  19.333  0.00  0.00    +0.000 N 
ATOM     20  H   UNL     1      -4.558  14.526  19.184  0.00  0.00    +0.000 HD
ENDBRANCH   1  19
BRANCH  13  21
ATOM     21  C   UNL     1      -3.581  10.816  15.271  0.00  0.00    +0.000 C 
ATOM     22  C   UNL     1      -2.905   9.920  14.536  0.00  0.00    +0.000 C 
BRANCH  22  23
ATOM     23  C   UNL     1      -3.250   9.704  13.113  0.00  0.00    +0.000 C 
ATOM     24  O   UNL     1      -2.438   9.363  12.263  0.00  0.00    +0.000 OA
ATOM     25  N   UNL     1      -4.573   9.927  12.838  0.00  0.00    +0.000 N 
ATOM     26  H   UNL     1      -5.286  10.190  13.506  0.00  0.00    +0.000 HD
BRANCH  25  27
ATOM     27  O   UNL     1      -4.985   9.723  11.503  0.00  0.00    +0.000 OA
ATOM     28  H   UNL     1      -4.466  10.403  11.019  0.00  0.00    +0.000 HD
ENDBRANCH  25  27
ENDBRANCH  22  23
ENDBRANCH  13  21
BRANCH   6  29
ATOM     29  C   UNL     1      -1.883  15.912  23.132  0.00  0.00    +0.000 C 
BRANCH  29  30
ATOM     30  C   UNL     1      -1.242  16.585  24.332  0.00  0.00    +0.000 A 
ATOM     31  C   UNL     1      -1.502  16.134  25.638  0.00  0.00    +0.000 A 
ATOM     32  C   UNL     1      -0.949  16.789  26.742  0.00  0.00    +0.000 A 
ATOM     33  C   UNL     1      -0.124  17.895  26.553  0.00  0.00    +0.000 A 
ATOM     34  C   UNL     1       0.156  18.341  25.263  0.00  0.00    +0.000 A 
ATOM     35  C   UNL     1      -0.400  17.691  24.158  0.00  0.00    +0.000 A 
ENDBRANCH  29  30
ENDBRANCH   6  29
TORSDOF 6
ENDMDL
MODEL 5
REMARK VINA RESULT:      -6.4      6.075      8.620
REMARK  Name = 
REMARK  7 active torsions:
REMARK  status: ('A' for Active; 'I' for Inactive)
REMARK    1  A    between atoms: C_1  and  C_2
REMARK    2  A    between atoms: N_4  and  C_5
REMARK    3  A    between atoms: N_10  and  C_11
REMARK    4  A    between atoms: C_11  and  C_12
REMARK    5  A    between atoms: C_24  and  C_25
REMARK    6  A    between atoms: C_26  and  C_27
REMARK    7  A    between atoms: N_29  and  O_30
REMARK                            x       y       z     vdW  Elec       q    Type
REMARK                         _______ _______ _______ _____ _____    ______ ____
ROOT
ATOM      1  C   UNL     1       1.459  16.237  19.541  0.00  0.00    +0.000 C 
ATOM      2  C   UNL     1       2.721  16.501  20.362  0.00  0.00    +0.000 C 
ATOM      3  C   UNL     1       3.880  15.565  19.953  0.00  0.00    +0.000 C 
ATOM      4  C   UNL     1       4.275  15.655  18.462  0.00  0.00    +0.000 C 
ATOM      5  C   UNL     1       5.580  14.928  18.165  0.00  0.00    +0.000 C 
ATOM      6  N   UNL     1       6.699  15.469  18.935  0.00  0.00    +0.000 NA
ATOM      7  C   UNL     1       6.417  15.276  20.366  0.00  0.00    +0.000 C 
ATOM      8  C   UNL     1       5.103  15.911  20.841  0.00  0.00    +0.000 C 
ATOM      9  O   UNL     1       3.489  14.203  20.237  0.00  0.00    +0.000 OA
ATOM     10  C   UNL     1       2.279  13.839  19.698  0.00  0.00    +0.000 A 
ATOM     11  C   UNL     1       2.098  12.477  19.469  0.00  0.00    +0.000 A 
ATOM     12  C   UNL     1       0.916  12.014  18.884  0.00  0.00    +0.000 A 
ATOM     13  C   UNL     1      -0.114  12.905  18.557  0.00  0.00    +0.000 A 
ATOM     14  C   UNL     1       0.084  14.275  18.781  0.00  0.00    +0.000 A 
ATOM     15  C   UNL     1       1.275  14.752  19.351  0.00  0.00    +0.000 A 
ENDROOT
BRANCH   1  19
ATOM     16  C   UNL     1       0.942  18.387  16.442  0.00  0.00    +0.000 C 
ATOM     17  C   UNL     1       0.569  17.763  17.764  0.00  0.00    +0.000 C 
ATOM     18  O   UNL     1      -0.496  17.990  18.326  0.00  0.00    +0.000 OA
ATOM     19  N   UNL     1       1.531  16.916  18.249  0.00  0.00    +0.000 N 
ATOM     20  H   UNL     1       2.259  16.642  17.608  0.00  0.00    +0.000 HD
ENDBRANCH   1  19
BRANCH  13  21
ATOM     21  C   UNL     1      -1.346  12.389  17.945  0.00  0.00    +0.000 C 
ATOM     22  C   UNL     1      -1.628  11.082  17.843  0.00  0.00    +0.000 C 
BRANCH  22  23
ATOM     23  C   UNL     1      -2.880  10.633  17.193  0.00  0.00    +0.000 C 
ATOM     24  O   UNL     1      -3.693   9.892  17.729  0.00  0.00    +0.000 OA
ATOM     25  N   UNL     1      -3.038  11.126  15.926  0.00  0.00    +0.000 N 
ATOM     26  H   UNL     1      -2.407  11.756  15.447  0.00  0.00    +0.000 HD
BRANCH  25  27
ATOM     27  O   UNL     1      -4.218  10.758  15.245  0.00  0.00    +0.000 OA
ATOM     28  H   UNL     1      -4.370   9.842  15.572  0.00  0.00    +0.000 HD
ENDBRANCH  25  27
ENDBRANCH  22  23
ENDBRANCH  13  21
BRANCH   6  29
ATOM     29  C   UNL     1       7.028  16.872  18.605  0.00  0.00    +0.000 C 
BRANCH  29  30
ATOM     30  C   UNL     1       8.459  17.081  18.144  0.00  0.00    +0.000 A 
ATOM     31  C   UNL     1       9.238  16.001  17.692  0.00  0.00    +0.000 A 
ATOM     32  C   UNL     1      10.570  16.191  17.318  0.00  0.00    +0.000 A 
ATOM     33  C   UNL     1      11.137  17.463  17.381  0.00  0.00    +0.000 A 
ATOM     34  C   UNL     1      10.370  18.544  17.810  0.00  0.00    +0.000 A 
ATOM     35  C   UNL     1       9.040  18.356  18.191  0.00  0.00    +0.000 A 
ENDBRANCH  29  30
ENDBRANCH   6  29
TORSDOF 6
ENDMDL
MODEL 6
REMARK VINA RESULT:      -6.3      7.884     11.171
REMARK  Name = 
REMARK  7 active torsions:
REMARK  status: ('A' for Active; 'I' for Inactive)
REMARK    1  A    between atoms: C_1  and  C_2
REMARK    2  A    between atoms: N_4  and  C_5
REMARK    3  A    between atoms: N_10  and  C_11
REMARK    4  A    between atoms: C_11  and  C_12
REMARK    5  A    between atoms: C_24  and  C_25
REMARK    6  A    between atoms: C_26  and  C_27
REMARK    7  A    between atoms: N_29  and  O_30
REMARK                            x       y       z     vdW  Elec       q    Type
REMARK                         _______ _______ _______ _____ _____    ______ ____
ROOT
ATOM      1  C   UNL     1      -0.601  11.723  21.910  0.00  0.00    +0.000 C 
ATOM      2  C   UNL     1      -1.760  11.560  22.894  0.00  0.00    +0.000 C 
ATOM      3  C   UNL     1      -2.699  12.787  22.886  0.00  0.00    +0.000 C 
ATOM      4  C   UNL     1      -3.311  13.110  21.504  0.00  0.00    +0.000 C 
ATOM      5  C   UNL     1      -4.425  14.144  21.594  0.00  0.00    +0.000 C 
ATOM      6  N   UNL     1      -5.523  13.699  22.452  0.00  0.00    +0.000 NA
ATOM      7  C   UNL     1      -5.001  13.511  23.815  0.00  0.00    +0.000 C 
ATOM      8  C   UNL     1      -3.830  12.523  23.912  0.00  0.00    +0.000 C 
ATOM      9  O   UNL     1      -1.948  13.939  23.329  0.00  0.00    +0.000 OA
ATOM     10  C   UNL     1      -0.775  14.147  22.645  0.00  0.00    +0.000 A 
ATOM     11  C   UNL     1      -0.299  15.456  22.634  0.00  0.00    +0.000 A 
ATOM     12  C   UNL     1       0.866  15.773  21.929  0.00  0.00    +0.000 A 
ATOM     13  C   UNL     1       1.587  14.778  21.259  0.00  0.00    +0.000 A 
ATOM     14  C   UNL     1       1.092  13.466  21.268  0.00  0.00    +0.000 A 
ATOM     15  C   UNL     1      -0.086  13.139  21.957  0.00  0.00    +0.000 A 
ENDROOT
BRANCH   1  19
ATOM     16  C   UNL     1      -1.111  10.206  18.455  0.00  0.00    +0.000 C 
ATOM     17  C   UNL     1      -0.419  10.416  19.779  0.00  0.00    +0.000 C 
ATOM     18  O   UNL     1       0.585   9.796  20.107  0.00  0.00    +0.000 OA
ATOM     19  N   UNL     1      -1.021  11.373  20.554  0.00  0.00    +0.000 N 
ATOM     20  H   UNL     1      -1.702  11.962  20.101  0.00  0.00    +0.000 HD
ENDBRANCH   1  19
BRANCH  13  21
ATOM     21  C   UNL     1       2.808  15.141  20.527  0.00  0.00    +0.000 C 
ATOM     22  C   UNL     1       2.811  15.531  19.244  0.00  0.00    +0.000 C 
BRANCH  22  23
ATOM     23  C   UNL     1       4.084  15.861  18.563  0.00  0.00    +0.000 C 
ATOM     24  O   UNL     1       4.439  17.004  18.307  0.00  0.00    +0.000 OA
ATOM     25  N   UNL     1       4.826  14.757  18.242  0.00  0.00    +0.000 N 
ATOM     26  H   UNL     1       4.588  13.796  18.448  0.00  0.00    +0.000 HD
BRANCH  25  27
ATOM     27  O   UNL     1       6.065  14.990  17.605  0.00  0.00    +0.000 OA
ATOM     28  H   UNL     1       6.559  15.494  18.290  0.00  0.00    +0.000 HD
ENDBRANCH  25  27
ENDBRANCH  22  23
ENDBRANCH  13  21
BRANCH   6  29
ATOM     29  C   UNL     1      -6.230  12.504  21.945  0.00  0.00    +0.000 C 
BRANCH  29  30
ATOM     30  C   UNL     1      -6.687  12.620  20.502  0.00  0.00    +0.000 A 
ATOM     31  C   UNL     1      -6.253  11.701  19.531  0.00  0.00    +0.000 A 
ATOM     32  C   UNL     1      -6.636  11.843  18.195  0.00  0.00    +0.000 A 
ATOM     33  C   UNL     1      -7.461  12.899  17.815  0.00  0.00    +0.000 A 
ATOM     34  C   UNL     1      -7.912  13.807  18.772  0.00  0.00    +0.000 A 
ATOM     35  C   UNL     1      -7.526  13.670  20.107  0.00  0.00    +0.000 A 
ENDBRANCH  29  30
ENDBRANCH   6  29
TORSDOF 6
ENDMDL
MODEL 7
REMARK VINA RESULT:      -6.3      7.727     11.002
REMARK  Name = 
REMARK  7 active torsions:
REMARK  status: ('A' for Active; 'I' for Inactive)
REMARK    1  A    between atoms: C_1  and  C_2
REMARK    2  A    between atoms: N_4  and  C_5
REMARK    3  A    between atoms: N_10  and  C_11
REMARK    4  A    between atoms: C_11  and  C_12
REMARK    5  A    between atoms: C_24  and  C_25
REMARK    6  A    between atoms: C_26  and  C_27
REMARK    7  A    between atoms: N_29  and  O_30
REMARK                            x       y       z     vdW  Elec       q    Type
REMARK                         _______ _______ _______ _____ _____    ______ ____
ROOT
ATOM      1  C   UNL     1      -0.359  11.411  21.534  0.00  0.00    +0.000 C 
ATOM      2  C   UNL     1      -1.469  11.301  22.580  0.00  0.00    +0.000 C 
ATOM      3  C   UNL     1      -2.325  12.585  22.648  0.00  0.00    +0.000 C 
ATOM      4  C   UNL     1      -2.992  12.978  21.310  0.00  0.00    +0.000 C 
ATOM      5  C   UNL     1      -4.029  14.079  21.484  0.00  0.00    +0.000 C 
ATOM      6  N   UNL     1      -5.103  13.685  22.395  0.00  0.00    +0.000 NA
ATOM      7  C   UNL     1      -4.519  13.434  23.722  0.00  0.00    +0.000 C 
ATOM      8  C   UNL     1      -3.411  12.371  23.732  0.00  0.00    +0.000 C 
ATOM      9  O   UNL     1      -1.477  13.677  23.069  0.00  0.00    +0.000 OA
ATOM     10  C   UNL     1      -0.333  13.824  22.323  0.00  0.00    +0.000 A 
ATOM     11  C   UNL     1       0.226  15.100  22.309  0.00  0.00    +0.000 A 
ATOM     12  C   UNL     1       1.367  15.358  21.544  0.00  0.00    +0.000 A 
ATOM     13  C   UNL     1       1.984  14.334  20.815  0.00  0.00    +0.000 A 
ATOM     14  C   UNL     1       1.405  13.056  20.828  0.00  0.00    +0.000 A 
ATOM     15  C   UNL     1       0.249  12.791  21.578  0.00  0.00    +0.000 A 
ENDROOT
BRANCH   1  19
ATOM     16  C   UNL     1      -1.091  10.073  18.045  0.00  0.00    +0.000 C 
ATOM     17  C   UNL     1      -0.300  10.241  19.318  0.00  0.00    +0.000 C 
ATOM     18  O   UNL     1       0.757   9.655  19.523  0.00  0.00    +0.000 OA
ATOM     19  N   UNL     1      -0.876  11.119  20.198  0.00  0.00    +0.000 N 
ATOM     20  H   UNL     1      -1.620  11.698  19.840  0.00  0.00    +0.000 HD
ENDBRANCH   1  19
BRANCH  13  21
ATOM     21  C   UNL     1       3.183  14.634  20.021  0.00  0.00    +0.000 C 
ATOM     22  C   UNL     1       3.656  15.876  19.842  0.00  0.00    +0.000 C 
BRANCH  22  23
ATOM     23  C   UNL     1       4.859  16.108  19.009  0.00  0.00    +0.000 C 
ATOM     24  O   UNL     1       5.206  15.367  18.100  0.00  0.00    +0.000 OA
ATOM     25  N   UNL     1       5.550  17.235  19.362  0.00  0.00    +0.000 N 
ATOM     26  H   UNL     1       5.295  17.889  20.090  0.00  0.00    +0.000 HD
BRANCH  25  27
ATOM     27  O   UNL     1       6.702  17.536  18.602  0.00  0.00    +0.000 OA
ATOM     28  H   UNL     1       7.059  16.641  18.404  0.00  0.00    +0.000 HD
ENDBRANCH  25  27
ENDBRANCH  22  23
ENDBRANCH  13  21
BRANCH   6  29
ATOM     29  C   UNL     1      -5.914  12.550  21.907  0.00  0.00    +0.000 C 
BRANCH  29  30
ATOM     30  C   UNL     1      -6.472  12.742  20.509  0.00  0.00    +0.000 A 
ATOM     31  C   UNL     1      -7.367  13.789  20.226  0.00  0.00    +0.000 A 
ATOM     32  C   UNL     1      -7.917  13.931  18.949  0.00  0.00    +0.000 A 
ATOM     33  C   UNL     1      -7.573  13.035  17.940  0.00  0.00    +0.000 A 
ATOM     34  C   UNL     1      -6.673  12.003  18.203  0.00  0.00    +0.000 A 
ATOM     35  C   UNL     1      -6.127  11.856  19.480  0.00  0.00    +0.000 A 
ENDBRANCH  29  30
ENDBRANCH   6  29
TORSDOF 6
ENDMDL
MODEL 8
REMARK VINA RESULT:      -6.2      6.110      8.650
REMARK  Name = 
REMARK  7 active torsions:
REMARK  status: ('A' for Active; 'I' for Inactive)
REMARK    1  A    between atoms: C_1  and  C_2
REMARK    2  A    between atoms: N_4  and  C_5
REMARK    3  A    between atoms: N_10  and  C_11
REMARK    4  A    between atoms: C_11  and  C_12
REMARK    5  A    between atoms: C_24  and  C_25
REMARK    6  A    between atoms: C_26  and  C_27
REMARK    7  A    between atoms: N_29  and  O_30
REMARK                            x       y       z     vdW  Elec       q    Type
REMARK                         _______ _______ _______ _____ _____    ______ ____
ROOT
ATOM      1  C   UNL     1       1.462  16.265  19.573  0.00  0.00    +0.000 C 
ATOM      2  C   UNL     1       2.773  16.506  20.322  0.00  0.00    +0.000 C 
ATOM      3  C   UNL     1       3.890  15.548  19.851  0.00  0.00    +0.000 C 
ATOM      4  C   UNL     1       4.203  15.629  18.339  0.00  0.00    +0.000 C 
ATOM      5  C   UNL     1       5.475  14.877  17.972  0.00  0.00    +0.000 C 
ATOM      6  N   UNL     1       6.646  15.397  18.677  0.00  0.00    +0.000 NA
ATOM      7  C   UNL     1       6.439  15.211  20.122  0.00  0.00    +0.000 C 
ATOM      8  C   UNL     1       5.166  15.872  20.668  0.00  0.00    +0.000 C 
ATOM      9  O   UNL     1       3.489  14.194  20.159  0.00  0.00    +0.000 OA
ATOM     10  C   UNL     1       2.244  13.852  19.688  0.00  0.00    +0.000 A 
ATOM     11  C   UNL     1       2.026  12.493  19.473  0.00  0.00    +0.000 A 
ATOM     12  C   UNL     1       0.804  12.053  18.956  0.00  0.00    +0.000 A 
ATOM     13  C   UNL     1      -0.225  12.962  18.684  0.00  0.00    +0.000 A 
ATOM     14  C   UNL     1       0.011  14.328  18.894  0.00  0.00    +0.000 A 
ATOM     15  C   UNL     1       1.240  14.784  19.396  0.00  0.00    +0.000 A 
ENDROOT
BRANCH   1  19
ATOM     16  C   UNL     1       0.855  18.467  16.527  0.00  0.00    +0.000 C 
ATOM     17  C   UNL     1       0.551  17.872  17.879  0.00  0.00    +0.000 C 
ATOM     18  O   UNL     1      -0.433  18.190  18.536  0.00  0.00    +0.000 OA
ATOM     19  N   UNL     1       1.475  16.942  18.276  0.00  0.00    +0.000 N 
ATOM     20  H   UNL     1       2.115  16.607  17.573  0.00  0.00    +0.000 HD
ENDBRANCH   1  19
BRANCH  13  21
ATOM     21  C   UNL     1      -1.499  12.469  18.143  0.00  0.00    +0.000 C 
ATOM     22  C   UNL     1      -1.656  11.241  17.629  0.00  0.00    +0.000 C 
BRANCH  22  23
ATOM     23  C   UNL     1      -2.964  10.819  17.079  0.00  0.00    +0.000 C 
ATOM     24  O   UNL     1      -3.185   9.698  16.639  0.00  0.00    +0.000 OA
ATOM     25  N   UNL     1      -3.908  11.810  17.108  0.00  0.00    +0.000 N 
ATOM     26  H   UNL     1      -3.782  12.744  17.478  0.00  0.00    +0.000 HD
BRANCH  25  27
ATOM     27  O   UNL     1      -5.190  11.480  16.618  0.00  0.00    +0.000 OA
ATOM     28  H   UNL     1      -5.419  10.687  17.153  0.00  0.00    +0.000 HD
ENDBRANCH  25  27
ENDBRANCH  22  23
ENDBRANCH  13  21
BRANCH   6  29
ATOM     29  C   UNL     1       6.982  16.794  18.327  0.00  0.00    +0.000 C 
BRANCH  29  30
ATOM     30  C   UNL     1       8.464  17.113  18.409  0.00  0.00    +0.000 A 
ATOM     31  C   UNL     1       8.926  18.211  19.155  0.00  0.00    +0.000 A 
ATOM     32  C   UNL     1      10.286  18.531  19.184  0.00  0.00    +0.000 A 
ATOM     33  C   UNL     1      11.199  17.752  18.476  0.00  0.00    +0.000 A 
ATOM     34  C   UNL     1      10.756  16.651  17.747  0.00  0.00    +0.000 A 
ATOM     35  C   UNL     1       9.396  16.333  17.712  0.00  0.00    +0.000 A 
ENDBRANCH  29  30
ENDBRANCH   6  29
TORSDOF 6
ENDMDL
MODEL 9
REMARK VINA RESULT:      -6.1      7.400     10.460
REMARK  Name = 
REMARK  7 active torsions:
REMARK  status: ('A' for Active; 'I' for Inactive)
REMARK    1  A    between atoms: C_1  and  C_2
REMARK    2  A    between atoms: N_4  and  C_5
REMARK    3  A    between atoms: N_10  and  C_11
REMARK    4  A    between atoms: C_11  and  C_12
REMARK    5  A    between atoms: C_24  and  C_25
REMARK    6  A    between atoms: C_26  and  C_27
REMARK    7  A    between atoms: N_29  and  O_30
REMARK                            x       y       z     vdW  Elec       q    Type
REMARK                         _______ _______ _______ _____ _____    ______ ____
ROOT
ATOM      1  C   UNL     1       0.316  11.745  21.073  0.00  0.00    +0.000 C 
ATOM      2  C   UNL     1      -0.748  11.620  22.164  0.00  0.00    +0.000 C 
ATOM      3  C   UNL     1      -1.688  12.846  22.193  0.00  0.00    +0.000 C 
ATOM      4  C   UNL     1      -2.425  13.115  20.862  0.00  0.00    +0.000 C 
ATOM      5  C   UNL     1      -3.530  14.151  21.013  0.00  0.00    +0.000 C 
ATOM      6  N   UNL     1      -4.543  13.740  21.984  0.00  0.00    +0.000 NA
ATOM      7  C   UNL     1      -3.899  13.605  23.299  0.00  0.00    +0.000 C 
ATOM      8  C   UNL     1      -2.720  12.622  23.328  0.00  0.00    +0.000 C 
ATOM      9  O   UNL     1      -0.904  14.015  22.522  0.00  0.00    +0.000 OA
ATOM     10  C   UNL     1       0.201  14.196  21.726  0.00  0.00    +0.000 A 
ATOM     11  C   UNL     1       0.669  15.504  21.621  0.00  0.00    +0.000 A 
ATOM     12  C   UNL     1       1.764  15.793  20.801  0.00  0.00    +0.000 A 
ATOM     13  C   UNL     1       2.425  14.772  20.107  0.00  0.00    +0.000 A 
ATOM     14  C   UNL     1       1.937  13.462  20.212  0.00  0.00    +0.000 A 
ATOM     15  C   UNL     1       0.828  13.162  21.018  0.00  0.00    +0.000 A 
ENDROOT
BRANCH   1  19
ATOM     16  C   UNL     1      -0.692   9.970  17.859  0.00  0.00    +0.000 C 
ATOM     17  C   UNL     1       0.071  10.161  19.146  0.00  0.00    +0.000 C 
ATOM     18  O   UNL     1       0.878   9.340  19.566  0.00  0.00    +0.000 OA
ATOM     19  N   UNL     1      -0.224  11.342  19.776  0.00  0.00    +0.000 N 
ATOM     20  H   UNL     1      -0.732  12.028  19.239  0.00  0.00    +0.000 HD
ENDBRANCH   1  19
BRANCH  13  21
ATOM     21  C   UNL     1       3.573  15.107  19.254  0.00  0.00    +0.000 C 
ATOM     22  C   UNL     1       4.805  15.335  19.732  0.00  0.00    +0.000 C 
BRANCH  22  23
ATOM     23  C   UNL     1       5.912  15.690  18.814  0.00  0.00    +0.000 C 
ATOM     24  O   UNL     1       6.353  16.824  18.691  0.00  0.00    +0.000 OA
ATOM     25  N   UNL     1       6.393  14.619  18.109  0.00  0.00    +0.000 N 
ATOM     26  H   UNL     1       6.078  13.661  18.188  0.00  0.00    +0.000 HD
BRANCH  25  27
ATOM     27  O   UNL     1       7.464  14.873  17.225  0.00  0.00    +0.000 OA
ATOM     28  H   UNL     1       7.538  14.022  16.738  0.00  0.00    +0.000 HD
ENDBRANCH  25  27
ENDBRANCH  22  23
ENDBRANCH  13  21
BRANCH   6  29
ATOM     29  C   UNL     1      -5.289  12.526  21.590  0.00  0.00    +0.000 C 
BRANCH  29  30
ATOM     30  C   UNL     1      -5.993  12.639  20.249  0.00  0.00    +0.000 A 
ATOM     31  C   UNL     1      -7.089  13.502  20.079  0.00  0.00    +0.000 A 
ATOM     32  C   UNL     1      -7.765  13.563  18.858  0.00  0.00    +0.000 A 
ATOM     33  C   UNL     1      -7.347  12.770  17.791  0.00  0.00    +0.000 A 
ATOM     34  C   UNL     1      -6.251  11.924  17.942  0.00  0.00    +0.000 A 
ATOM     35  C   UNL     1      -5.577  11.856  19.163  0.00  0.00    +0.000 A 
ENDBRANCH  29  30
ENDBRANCH   6  29
TORSDOF 6
ENDMDL
