MODEL 1
REMARK VINA RESULT:      -7.3      0.000      0.000
REMARK  Name = 
REMARK  3 active torsions:
REMARK  status: ('A' for Active; 'I' for Inactive)
REMARK    1  A    between atoms: C_1  and  O_2
REMARK    2  A    between atoms: O_2  and  C_3
REMARK    3  A    between atoms: C_15  and  C_16
REMARK                            x       y       z     vdW  Elec       q    Type
REMARK                         _______ _______ _______ _____ _____    ______ ____
ROOT
ATOM      1  C   UNL     1       0.834  12.458  19.356  0.00  0.00    +0.000 A 
ATOM      2  C   UNL     1       1.108  11.090  19.351  0.00  0.00    +0.000 A 
ATOM      3  C   UNL     1       0.741  10.241  20.411  0.00  0.00    +0.000 A 
ATOM      4  C   UNL     1       0.117  10.699  21.559  0.00  0.00    +0.000 A 
ATOM      5 BR   UNL     1      -0.331   9.567  22.992  0.00  0.00    +0.000 Br
ATOM      6  C   UNL     1      -0.130  12.071  21.573  0.00  0.00    +0.000 A 
ATOM      7  O   UNL     1      -0.718  12.765  22.591  0.00  0.00    +0.000 OA
ATOM      8  C   UNL     1      -0.779  14.066  22.214  0.00  0.00    +0.000 A 
ATOM      9  C   UNL     1      -0.241  14.229  20.962  0.00  0.00    +0.000 A 
ATOM     10  C   UNL     1       0.198  12.942  20.530  0.00  0.00    +0.000 A 
ATOM     11  O   UNL     1       1.077   8.917  20.196  0.00  0.00    +0.000 OA
ATOM     12  C   UNL     1       1.713   8.879  18.976  0.00  0.00    +0.000 C 
ATOM     13  C   UNL     1       2.189   7.811  18.326  0.00  0.00    +0.000 C 
ATOM     14  C   UNL     1       1.809  10.231  18.388  0.00  0.00    +0.000 C 
ATOM     15  O   UNL     1       2.368  10.510  17.351  0.00  0.00    +0.000 OA
ENDROOT
BRANCH  13  16
ATOM     16  C   UNL     1       2.161   6.421  18.780  0.00  0.00    +0.000 A 
ATOM     17  C   UNL     1       2.145   6.171  20.161  0.00  0.00    +0.000 A 
ATOM     18  C   UNL     1       2.048   4.865  20.644  0.00  0.00    +0.000 A 
ATOM     19  C   UNL     1       1.960   3.804  19.748  0.00  0.00    +0.000 A 
ATOM     20 CL   UNL     1       1.825   2.195  20.340  0.00  0.00    +0.000 Cl
ATOM     21  C   UNL     1       1.971   4.036  18.375  0.00  0.00    +0.000 A 
ATOM     22  C   UNL     1       2.064   5.342  17.893  0.00  0.00    +0.000 A 
ENDBRANCH  13  16
BRANCH   1  24
ATOM     23  C   UNL     1       2.445  13.926  18.372  0.00  0.00    +0.000 C 
ATOM     24  O   UNL     1       1.128  13.395  18.413  0.00  0.00    +0.000 OA
ENDBRANCH   1  24
TORSDOF 2
ENDMDL
MODEL 2
REMARK VINA RESULT:      -7.3      0.652      1.067
REMARK  Name = 
REMARK  3 active torsions:
REMARK  status: ('A' for Active; 'I' for Inactive)
REMARK    1  A    between atoms: C_1  and  O_2
REMARK    2  A    between atoms: O_2  and  C_3
REMARK    3  A    between atoms: C_15  and  C_16
REMARK                            x       y       z     vdW  Elec       q    Type
REMARK                         _______ _______ _______ _____ _____    ______ ____
ROOT
ATOM      1  C   UNL     1       0.687  12.205  19.327  0.00  0.00    +0.000 A 
ATOM      2  C   UNL     1       1.060  10.862  19.264  0.00  0.00    +0.000 A 
ATOM      3  C   UNL     1       0.775   9.949  20.297  0.00  0.00    +0.000 A 
ATOM      4  C   UNL     1       0.142  10.317  21.472  0.00  0.00    +0.000 A 
ATOM      5 BR   UNL     1      -0.195   9.101  22.866  0.00  0.00    +0.000 Br
ATOM      6  C   UNL     1      -0.203  11.665  21.543  0.00  0.00    +0.000 A 
ATOM      7  O   UNL     1      -0.820  12.276  22.597  0.00  0.00    +0.000 OA
ATOM      8  C   UNL     1      -0.982  13.582  22.273  0.00  0.00    +0.000 A 
ATOM      9  C   UNL     1      -0.482  13.831  21.019  0.00  0.00    +0.000 A 
ATOM     10  C   UNL     1       0.041  12.596  20.529  0.00  0.00    +0.000 A 
ATOM     11  O   UNL     1       1.202   8.662  20.024  0.00  0.00    +0.000 OA
ATOM     12  C   UNL     1       1.815   8.716  18.793  0.00  0.00    +0.000 C 
ATOM     13  C   UNL     1       2.354   7.711  18.093  0.00  0.00    +0.000 C 
ATOM     14  C   UNL     1       1.802  10.093  18.257  0.00  0.00    +0.000 C 
ATOM     15  O   UNL     1       2.319  10.451  17.222  0.00  0.00    +0.000 OA
ENDROOT
BRANCH  13  16
ATOM     16  C   UNL     1       2.436   6.307  18.494  0.00  0.00    +0.000 A 
ATOM     17  C   UNL     1       1.640   5.372  17.814  0.00  0.00    +0.000 A 
ATOM     18  C   UNL     1       1.733   4.012  18.112  0.00  0.00    +0.000 A 
ATOM     19  C   UNL     1       2.627   3.580  19.086  0.00  0.00    +0.000 A 
ATOM     20 CL   UNL     1       2.756   1.903  19.444  0.00  0.00    +0.000 Cl
ATOM     21  C   UNL     1       3.426   4.494  19.767  0.00  0.00    +0.000 A 
ATOM     22  C   UNL     1       3.336   5.854  19.466  0.00  0.00    +0.000 A 
ENDBRANCH  13  16
BRANCH   1  24
ATOM     23  C   UNL     1       2.170  13.820  18.372  0.00  0.00    +0.000 C 
ATOM     24  O   UNL     1       0.894  13.196  18.417  0.00  0.00    +0.000 OA
ENDBRANCH   1  24
TORSDOF 2
ENDMDL
MODEL 3
REMARK VINA RESULT:      -7.2      3.584      7.818
REMARK  Name = 
REMARK  3 active torsions:
REMARK  status: ('A' for Active; 'I' for Inactive)
REMARK    1  A    between atoms: C_1  and  O_2
REMARK    2  A    between atoms: O_2  and  C_3
REMARK    3  A    between atoms: C_15  and  C_16
REMARK                            x       y       z     vdW  Elec       q    Type
REMARK                         _______ _______ _______ _____ _____    ______ ____
ROOT
ATOM      1  C   UNL     1       3.953   4.900  17.303  0.00  0.00    +0.000 A 
ATOM      2  C   UNL     1       3.229   5.855  18.017  0.00  0.00    +0.000 A 
ATOM      3  C   UNL     1       2.453   5.529  19.144  0.00  0.00    +0.000 A 
ATOM      4  C   UNL     1       2.312   4.233  19.610  0.00  0.00    +0.000 A 
ATOM      5 BR   UNL     1       1.238   3.798  21.091  0.00  0.00    +0.000 Br
ATOM      6  C   UNL     1       3.014   3.278  18.878  0.00  0.00    +0.000 A 
ATOM      7  O   UNL     1       3.027   1.935  19.125  0.00  0.00    +0.000 OA
ATOM      8  C   UNL     1       3.828   1.357  18.195  0.00  0.00    +0.000 A 
ATOM      9  C   UNL     1       4.340   2.307  17.347  0.00  0.00    +0.000 A 
ATOM     10  C   UNL     1       3.814   3.565  17.768  0.00  0.00    +0.000 A 
ATOM     11  O   UNL     1       1.841   6.625  19.724  0.00  0.00    +0.000 OA
ATOM     12  C   UNL     1       2.188   7.710  18.951  0.00  0.00    +0.000 C 
ATOM     13  C   UNL     1       1.864   8.995  19.137  0.00  0.00    +0.000 C 
ATOM     14  C   UNL     1       3.041   7.298  17.817  0.00  0.00    +0.000 C 
ATOM     15  O   UNL     1       3.449   8.028  16.941  0.00  0.00    +0.000 OA
ENDROOT
BRANCH  13  16
ATOM     16  C   UNL     1       1.037   9.546  20.210  0.00  0.00    +0.000 A 
ATOM     17  C   UNL     1       0.134  10.573  19.895  0.00  0.00    +0.000 A 
ATOM     18  C   UNL     1      -0.727  11.083  20.868  0.00  0.00    +0.000 A 
ATOM     19  C   UNL     1      -0.692  10.564  22.159  0.00  0.00    +0.000 A 
ATOM     20 CL   UNL     1      -1.761  11.180  23.356  0.00  0.00    +0.000 Cl
ATOM     21  C   UNL     1       0.196   9.543  22.486  0.00  0.00    +0.000 A 
ATOM     22  C   UNL     1       1.053   9.030  21.511  0.00  0.00    +0.000 A 
ENDBRANCH  13  16
BRANCH   1  24
ATOM     23  C   UNL     1       6.053   5.571  16.376  0.00  0.00    +0.000 C 
ATOM     24  O   UNL     1       4.737   5.064  16.202  0.00  0.00    +0.000 OA
ENDBRANCH   1  24
TORSDOF 2
ENDMDL
MODEL 4
REMARK VINA RESULT:      -7.1      5.377      8.113
REMARK  Name = 
REMARK  3 active torsions:
REMARK  status: ('A' for Active; 'I' for Inactive)
REMARK    1  A    between atoms: C_1  and  O_2
REMARK    2  A    between atoms: O_2  and  C_3
REMARK    3  A    between atoms: C_15  and  C_16
REMARK                            x       y       z     vdW  Elec       q    Type
REMARK                         _______ _______ _______ _____ _____    ______ ____
ROOT
ATOM      1  C   UNL     1       3.067   5.796  19.355  0.00  0.00    +0.000 A 
ATOM      2  C   UNL     1       3.749   5.441  18.191  0.00  0.00    +0.000 A 
ATOM      3  C   UNL     1       3.960   4.102  17.817  0.00  0.00    +0.000 A 
ATOM      4  C   UNL     1       3.548   3.031  18.591  0.00  0.00    +0.000 A 
ATOM      5 BR   UNL     1       3.873   1.243  18.108  0.00  0.00    +0.000 Br
ATOM      6  C   UNL     1       2.893   3.389  19.768  0.00  0.00    +0.000 A 
ATOM      7  O   UNL     1       2.405   2.524  20.705  0.00  0.00    +0.000 OA
ATOM      8  C   UNL     1       1.839   3.265  21.689  0.00  0.00    +0.000 A 
ATOM      9  C   UNL     1       1.949   4.604  21.405  0.00  0.00    +0.000 A 
ATOM     10  C   UNL     1       2.643   4.707  20.162  0.00  0.00    +0.000 A 
ATOM     11  O   UNL     1       4.628   3.967  16.614  0.00  0.00    +0.000 OA
ATOM     12  C   UNL     1       4.899   5.246  16.182  0.00  0.00    +0.000 C 
ATOM     13  C   UNL     1       5.500   5.626  15.049  0.00  0.00    +0.000 C 
ATOM     14  C   UNL     1       4.406   6.245  17.153  0.00  0.00    +0.000 C 
ATOM     15  O   UNL     1       4.555   7.443  17.066  0.00  0.00    +0.000 OA
ENDROOT
BRANCH  13  16
ATOM     16  C   UNL     1       6.033   4.754  14.002  0.00  0.00    +0.000 A 
ATOM     17  C   UNL     1       5.190   3.773  13.458  0.00  0.00    +0.000 A 
ATOM     18  C   UNL     1       5.629   2.963  12.409  0.00  0.00    +0.000 A 
ATOM     19  C   UNL     1       6.910   3.135  11.896  0.00  0.00    +0.000 A 
ATOM     20 CL   UNL     1       7.448   2.150  10.594  0.00  0.00    +0.000 Cl
ATOM     21  C   UNL     1       7.757   4.106  12.423  0.00  0.00    +0.000 A 
ATOM     22  C   UNL     1       7.316   4.919  13.469  0.00  0.00    +0.000 A 
ENDBRANCH  13  16
BRANCH   1  24
ATOM     23  C   UNL     1       1.808   7.822  19.185  0.00  0.00    +0.000 C 
ATOM     24  O   UNL     1       2.792   7.037  19.844  0.00  0.00    +0.000 OA
ENDBRANCH   1  24
TORSDOF 2
ENDMDL
MODEL 5
REMARK VINA RESULT:      -7.0      1.119      1.169
REMARK  Name = 
REMARK  3 active torsions:
REMARK  status: ('A' for Active; 'I' for Inactive)
REMARK    1  A    between atoms: C_1  and  O_2
REMARK    2  A    between atoms: O_2  and  C_3
REMARK    3  A    between atoms: C_15  and  C_16
REMARK                            x       y       z     vdW  Elec       q    Type
REMARK                         _______ _______ _______ _____ _____    ______ ____
ROOT
ATOM      1  C   UNL     1       0.477  12.039  19.178  0.00  0.00    +0.000 A 
ATOM      2  C   UNL     1       1.008  10.752  19.083  0.00  0.00    +0.000 A 
ATOM      3  C   UNL     1       0.742   9.752  20.036  0.00  0.00    +0.000 A 
ATOM      4  C   UNL     1      -0.029   9.974  21.164  0.00  0.00    +0.000 A 
ATOM      5 BR   UNL     1      -0.344   8.646  22.457  0.00  0.00    +0.000 Br
ATOM      6  C   UNL     1      -0.534  11.269  21.271  0.00  0.00    +0.000 A 
ATOM      7  O   UNL     1      -1.307  11.742  22.292  0.00  0.00    +0.000 OA
ATOM      8  C   UNL     1      -1.591  13.040  22.021  0.00  0.00    +0.000 A 
ATOM      9  C   UNL     1      -1.016  13.418  20.833  0.00  0.00    +0.000 A 
ATOM     10  C   UNL     1      -0.312  12.282  20.333  0.00  0.00    +0.000 A 
ATOM     11  O   UNL     1       1.338   8.539  19.740  0.00  0.00    +0.000 OA
ATOM     12  C   UNL     1       2.046   8.736  18.576  0.00  0.00    +0.000 C 
ATOM     13  C   UNL     1       2.757   7.842  17.880  0.00  0.00    +0.000 C 
ATOM     14  C   UNL     1       1.920  10.134  18.112  0.00  0.00    +0.000 C 
ATOM     15  O   UNL     1       2.480  10.609  17.150  0.00  0.00    +0.000 OA
ENDROOT
BRANCH  13  16
ATOM     16  C   UNL     1       2.966   6.433  18.214  0.00  0.00    +0.000 A 
ATOM     17  C   UNL     1       4.198   6.055  18.768  0.00  0.00    +0.000 A 
ATOM     18  C   UNL     1       4.421   4.737  19.169  0.00  0.00    +0.000 A 
ATOM     19  C   UNL     1       3.409   3.792  19.022  0.00  0.00    +0.000 A 
ATOM     20 CL   UNL     1       3.675   2.171  19.528  0.00  0.00    +0.000 Cl
ATOM     21  C   UNL     1       2.180   4.153  18.477  0.00  0.00    +0.000 A 
ATOM     22  C   UNL     1       1.957   5.473  18.081  0.00  0.00    +0.000 A 
ENDBRANCH  13  16
BRANCH   1  24
ATOM     23  C   UNL     1       1.833  13.874  18.461  0.00  0.00    +0.000 C 
ATOM     24  O   UNL     1       0.647  13.100  18.343  0.00  0.00    +0.000 OA
ENDBRANCH   1  24
TORSDOF 2
ENDMDL
MODEL 6
REMARK VINA RESULT:      -6.7      3.810      8.083
REMARK  Name = 
REMARK  3 active torsions:
REMARK  status: ('A' for Active; 'I' for Inactive)
REMARK    1  A    between atoms: C_1  and  O_2
REMARK    2  A    between atoms: O_2  and  C_3
REMARK    3  A    between atoms: C_15  and  C_16
REMARK                            x       y       z     vdW  Elec       q    Type
REMARK                         _______ _______ _______ _____ _____    ______ ____
ROOT
ATOM      1  C   UNL     1       4.380   4.381  17.259  0.00  0.00    +0.000 A 
ATOM      2  C   UNL     1       3.638   5.481  17.690  0.00  0.00    +0.000 A 
ATOM      3  C   UNL     1       2.620   5.376  18.656  0.00  0.00    +0.000 A 
ATOM      4  C   UNL     1       2.246   4.170  19.225  0.00  0.00    +0.000 A 
ATOM      5 BR   UNL     1       0.856   4.030  20.483  0.00  0.00    +0.000 Br
ATOM      6  C   UNL     1       2.971   3.070  18.772  0.00  0.00    +0.000 A 
ATOM      7  O   UNL     1       2.785   1.776  19.166  0.00  0.00    +0.000 OA
ATOM      8  C   UNL     1       3.687   1.013  18.500  0.00  0.00    +0.000 A 
ATOM      9  C   UNL     1       4.461   1.794  17.678  0.00  0.00    +0.000 A 
ATOM     10  C   UNL     1       4.003   3.137  17.832  0.00  0.00    +0.000 A 
ATOM     11  O   UNL     1       2.029   6.587  18.964  0.00  0.00    +0.000 OA
ATOM     12  C   UNL     1       2.642   7.525  18.165  0.00  0.00    +0.000 C 
ATOM     13  C   UNL     1       2.432   8.846  18.131  0.00  0.00    +0.000 C 
ATOM     14  C   UNL     1       3.654   6.895  17.292  0.00  0.00    +0.000 C 
ATOM     15  O   UNL     1       4.307   7.464  16.447  0.00  0.00    +0.000 OA
ENDROOT
BRANCH  13  16
ATOM     16  C   UNL     1       1.472   9.604  18.934  0.00  0.00    +0.000 A 
ATOM     17  C   UNL     1       0.822  10.697  18.341  0.00  0.00    +0.000 A 
ATOM     18  C   UNL     1      -0.153  11.408  19.042  0.00  0.00    +0.000 A 
ATOM     19  C   UNL     1      -0.486  11.026  20.338  0.00  0.00    +0.000 A 
ATOM     20 CL   UNL     1      -1.698  11.890  21.198  0.00  0.00    +0.000 Cl
ATOM     21  C   UNL     1       0.148   9.942  20.939  0.00  0.00    +0.000 A 
ATOM     22  C   UNL     1       1.119   9.228  20.235  0.00  0.00    +0.000 A 
ENDBRANCH  13  16
BRANCH   1  24
ATOM     23  C   UNL     1       6.698   4.672  16.750  0.00  0.00    +0.000 C 
ATOM     24  O   UNL     1       5.382   4.330  16.339  0.00  0.00    +0.000 OA
ENDBRANCH   1  24
TORSDOF 2
ENDMDL
MODEL 7
REMARK VINA RESULT:      -6.7      3.779      8.016
REMARK  Name = 
REMARK  3 active torsions:
REMARK  status: ('A' for Active; 'I' for Inactive)
REMARK    1  A    between atoms: C_1  and  O_2
REMARK    2  A    between atoms: O_2  and  C_3
REMARK    3  A    between atoms: C_15  and  C_16
REMARK                            x       y       z     vdW  Elec       q    Type
REMARK                         _______ _______ _______ _____ _____    ______ ____
ROOT
ATOM      1  C   UNL     1       4.351   4.464  17.292  0.00  0.00    +0.000 A 
ATOM      2  C   UNL     1       3.572   5.529  17.745  0.00  0.00    +0.000 A 
ATOM      3  C   UNL     1       2.553   5.367  18.702  0.00  0.00    +0.000 A 
ATOM      4  C   UNL     1       2.214   4.137  19.238  0.00  0.00    +0.000 A 
ATOM      5 BR   UNL     1       0.822   3.921  20.483  0.00  0.00    +0.000 Br
ATOM      6  C   UNL     1       2.976   3.071  18.762  0.00  0.00    +0.000 A 
ATOM      7  O   UNL     1       2.829   1.762  19.122  0.00  0.00    +0.000 OA
ATOM      8  C   UNL     1       3.758   1.046  18.443  0.00  0.00    +0.000 A 
ATOM      9  C   UNL     1       4.512   1.872  17.646  0.00  0.00    +0.000 A 
ATOM     10  C   UNL     1       4.011   3.195  17.831  0.00  0.00    +0.000 A 
ATOM     11  O   UNL     1       1.922   6.551  19.037  0.00  0.00    +0.000 OA
ATOM     12  C   UNL     1       2.510   7.528  18.266  0.00  0.00    +0.000 C 
ATOM     13  C   UNL     1       2.258   8.842  18.264  0.00  0.00    +0.000 C 
ATOM     14  C   UNL     1       3.546   6.952  17.384  0.00  0.00    +0.000 C 
ATOM     15  O   UNL     1       4.186   7.563  16.557  0.00  0.00    +0.000 OA
ENDROOT
BRANCH  13  16
ATOM     16  C   UNL     1       1.270   9.549  19.079  0.00  0.00    +0.000 A 
ATOM     17  C   UNL     1       1.128   9.179  20.425  0.00  0.00    +0.000 A 
ATOM     18  C   UNL     1       0.250   9.869  21.261  0.00  0.00    +0.000 A 
ATOM     19  C   UNL     1      -0.486  10.936  20.756  0.00  0.00    +0.000 A 
ATOM     20 CL   UNL     1      -1.558  11.798  21.789  0.00  0.00    +0.000 Cl
ATOM     21  C   UNL     1      -0.354  11.317  19.424  0.00  0.00    +0.000 A 
ATOM     22  C   UNL     1       0.528  10.630  18.589  0.00  0.00    +0.000 A 
ENDBRANCH  13  16
BRANCH   1  24
ATOM     23  C   UNL     1       6.672   4.794  16.815  0.00  0.00    +0.000 C 
ATOM     24  O   UNL     1       5.360   4.468  16.377  0.00  0.00    +0.000 OA
ENDBRANCH   1  24
TORSDOF 2
ENDMDL
MODEL 8
REMARK VINA RESULT:      -6.5      1.384      1.591
REMARK  Name = 
REMARK  3 active torsions:
REMARK  status: ('A' for Active; 'I' for Inactive)
REMARK    1  A    between atoms: C_1  and  O_2
REMARK    2  A    between atoms: O_2  and  C_3
REMARK    3  A    between atoms: C_15  and  C_16
REMARK                            x       y       z     vdW  Elec       q    Type
REMARK                         _______ _______ _______ _____ _____    ______ ____
ROOT
ATOM      1  C   UNL     1       0.521  12.323  19.843  0.00  0.00    +0.000 A 
ATOM      2  C   UNL     1       1.027  11.067  19.506  0.00  0.00    +0.000 A 
ATOM      3  C   UNL     1       0.786   9.921  20.286  0.00  0.00    +0.000 A 
ATOM      4  C   UNL     1       0.066   9.953  21.468  0.00  0.00    +0.000 A 
ATOM      5 BR   UNL     1      -0.214   8.426  22.528  0.00  0.00    +0.000 Br
ATOM      6  C   UNL     1      -0.413  11.214  21.816  0.00  0.00    +0.000 A 
ATOM      7  O   UNL     1      -1.136  11.512  22.936  0.00  0.00    +0.000 OA
ATOM      8  C   UNL     1      -1.411  12.839  22.903  0.00  0.00    +0.000 A 
ATOM      9  C   UNL     1      -0.880  13.411  21.774  0.00  0.00    +0.000 A 
ATOM     10  C   UNL     1      -0.216  12.371  21.057  0.00  0.00    +0.000 A 
ATOM     11  O   UNL     1       1.350   8.772  19.761  0.00  0.00    +0.000 OA
ATOM     12  C   UNL     1       2.011   9.160  18.618  0.00  0.00    +0.000 C 
ATOM     13  C   UNL     1       2.679   8.392  17.749  0.00  0.00    +0.000 C 
ATOM     14  C   UNL     1       1.887  10.617  18.405  0.00  0.00    +0.000 C 
ATOM     15  O   UNL     1       2.414  11.245  17.514  0.00  0.00    +0.000 OA
ENDROOT
BRANCH  13  16
ATOM     16  C   UNL     1       2.879   6.945  17.828  0.00  0.00    +0.000 A 
ATOM     17  C   UNL     1       1.748   6.118  17.902  0.00  0.00    +0.000 A 
ATOM     18  C   UNL     1       1.885   4.729  17.908  0.00  0.00    +0.000 A 
ATOM     19  C   UNL     1       3.153   4.162  17.836  0.00  0.00    +0.000 A 
ATOM     20 CL   UNL     1       3.324   2.451  17.829  0.00  0.00    +0.000 Cl
ATOM     21  C   UNL     1       4.285   4.969  17.760  0.00  0.00    +0.000 A 
ATOM     22  C   UNL     1       4.147   6.358  17.748  0.00  0.00    +0.000 A 
ENDBRANCH  13  16
BRANCH   1  24
ATOM     23  C   UNL     1      -0.218  13.820  18.131  0.00  0.00    +0.000 C 
ATOM     24  O   UNL     1       0.672  13.510  19.195  0.00  0.00    +0.000 OA
ENDBRANCH   1  24
TORSDOF 2
ENDMDL
MODEL 9
REMARK VINA RESULT:      -6.4      2.117      3.556
REMARK  Name = 
REMARK  3 active torsions:
REMARK  status: ('A' for Active; 'I' for Inactive)
REMARK    1  A    between atoms: C_1  and  O_2
REMARK    2  A    between atoms: O_2  and  C_3
REMARK    3  A    between atoms: C_15  and  C_16
REMARK                            x       y       z     vdW  Elec       q    Type
REMARK                         _______ _______ _______ _____ _____    ______ ____
ROOT
ATOM      1  C   UNL     1      -0.449  12.551  22.197  0.00  0.00    +0.000 A 
ATOM      2  C   UNL     1       0.069  11.384  21.633  0.00  0.00    +0.000 A 
ATOM      3  C   UNL     1       0.862  11.394  20.471  0.00  0.00    +0.000 A 
ATOM      4  C   UNL     1       1.157  12.552  19.772  0.00  0.00    +0.000 A 
ATOM      5 BR   UNL     1       2.181  12.552  18.194  0.00  0.00    +0.000 Br
ATOM      6  C   UNL     1       0.615  13.711  20.322  0.00  0.00    +0.000 A 
ATOM      7  O   UNL     1       0.748  14.972  19.816  0.00  0.00    +0.000 OA
ATOM      8  C   UNL     1       0.080  15.816  20.641  0.00  0.00    +0.000 A 
ATOM      9  C   UNL     1      -0.484  15.121  21.682  0.00  0.00    +0.000 A 
ATOM     10  C   UNL     1      -0.157  13.745  21.487  0.00  0.00    +0.000 A 
ATOM     11  O   UNL     1       1.300  10.137  20.095  0.00  0.00    +0.000 OA
ATOM     12  C   UNL     1       0.764   9.258  21.008  0.00  0.00    +0.000 C 
ATOM     13  C   UNL     1       0.936   7.932  21.079  0.00  0.00    +0.000 C 
ATOM     14  C   UNL     1      -0.068   9.969  22.000  0.00  0.00    +0.000 C 
ATOM     15  O   UNL     1      -0.709   9.448  22.885  0.00  0.00    +0.000 OA
ENDROOT
BRANCH  13  16
ATOM     16  C   UNL     1       1.729   7.100  20.174  0.00  0.00    +0.000 A 
ATOM     17  C   UNL     1       2.292   7.700  19.037  0.00  0.00    +0.000 A 
ATOM     18  C   UNL     1       3.114   6.965  18.182  0.00  0.00    +0.000 A 
ATOM     19  C   UNL     1       3.380   5.628  18.462  0.00  0.00    +0.000 A 
ATOM     20 CL   UNL     1       4.404   4.724  17.418  0.00  0.00    +0.000 Cl
ATOM     21  C   UNL     1       2.831   5.020  19.588  0.00  0.00    +0.000 A 
ATOM     22  C   UNL     1       2.013   5.757  20.446  0.00  0.00    +0.000 A 
ENDBRANCH  13  16
BRANCH   1  24
ATOM     23  C   UNL     1      -2.613  12.403  23.203  0.00  0.00    +0.000 C 
ATOM     24  O   UNL     1      -1.227  12.695  23.305  0.00  0.00    +0.000 OA
ENDBRANCH   1  24
TORSDOF 2
ENDMDL
