MODEL 1
REMARK VINA RESULT:      -7.7      0.000      0.000
REMARK  Name = 
REMARK  11 active torsions:
REMARK  status: ('A' for Active; 'I' for Inactive)
REMARK    1  A    between atoms: C_1  and  C_2
REMARK    2  A    between atoms: C_2  and  C_3
REMARK    3  A    between atoms: C_2  and  C_4
REMARK    4  A    between atoms: C_4  and  C_5
REMARK    5  A    between atoms: N_9  and  C_10
REMARK    6  A    between atoms: N_16  and  C_17
REMARK    7  A    between atoms: C_17  and  C_18
REMARK    8  A    between atoms: C_21  and  C_22
REMARK    9  A    between atoms: C_22  and  C_23
REMARK   10  A    between atoms: C_22  and  C_24
REMARK   11  A    between atoms: C_22  and  C_25
REMARK                            x       y       z     vdW  Elec       q    Type
REMARK                         _______ _______ _______ _____ _____    ______ ____
ROOT
ATOM      1  C   UNL     1       6.176   3.739  14.306  0.00  0.00    +0.000 C 
ATOM      2  C   UNL     1       7.181   4.799  13.822  0.00  0.00    +0.000 C 
ATOM      3  N   UNL     1       7.646   5.509  15.034  0.00  0.00    +0.000 NA
ATOM      4  C   UNL     1       6.807   5.164  15.980  0.00  0.00    +0.000 C 
ATOM      5  N   UNL     1       6.911   5.565  17.278  0.00  0.00    +0.000 N 
ATOM      6  N   UNL     1       5.789   4.304  15.618  0.00  0.00    +0.000 N 
ATOM      7  H   UNL     1       6.792   4.860  17.990  0.00  0.00    +0.000 HD
ENDROOT
BRANCH   5   8
ATOM      8  C   UNL     1       7.430   6.795  17.717  0.00  0.00    +0.000 A 
ATOM      9  C   UNL     1       8.265   6.879  18.840  0.00  0.00    +0.000 A 
ATOM     10  C   UNL     1       8.823   8.095  19.243  0.00  0.00    +0.000 A 
ATOM     11  C   UNL     1       8.524   9.261  18.544  0.00  0.00    +0.000 A 
ATOM     12  C   UNL     1       7.659   9.210  17.454  0.00  0.00    +0.000 A 
ATOM     13  C   UNL     1       7.117   7.983  17.043  0.00  0.00    +0.000 A 
ENDBRANCH   5   8
BRANCH   1  14
ATOM     14  C   UNL     1       4.998   3.556  13.344  0.00  0.00    +0.000 C 
BRANCH  14  16
ATOM     15  C   UNL     1       5.938   1.896  11.602  0.00  0.00    +0.000 C 
ATOM     16  C   UNL     1       5.352   3.285  11.860  0.00  0.00    +0.000 C 
ATOM     17  C   UNL     1       4.084   3.452  11.009  0.00  0.00    +0.000 C 
ENDBRANCH  14  16
ENDBRANCH   1  14
BRANCH   6  18
ATOM     18  C   UNL     1       4.976   3.487  16.519  0.00  0.00    +0.000 C 
BRANCH  18  19
ATOM     19  C   UNL     1       3.467   3.853  16.559  0.00  0.00    +0.000 C 
ATOM     20  C   UNL     1       2.535   2.736  17.019  0.00  0.00    +0.000 C 
ATOM     21  C   UNL     1       2.740   2.300  18.470  0.00  0.00    +0.000 C 
ATOM     22  C   UNL     1       3.096   3.389  19.524  0.00  0.00    +0.000 C 
ATOM     23  C   UNL     1       3.569   4.745  18.940  0.00  0.00    +0.000 C 
ATOM     24  C   UNL     1       3.198   5.038  17.493  0.00  0.00    +0.000 C 
BRANCH  22  25
ATOM     25  C   UNL     1       2.069   3.493  20.724  0.00  0.00    +0.000 C 
ATOM     26  C   UNL     1       2.051   4.941  21.273  0.00  0.00    +0.000 C 
ATOM     27  C   UNL     1       0.619   3.194  20.270  0.00  0.00    +0.000 C 
ATOM     28  C   UNL     1       2.418   2.524  21.868  0.00  0.00    +0.000 C 
ENDBRANCH  22  25
ENDBRANCH  18  19
ENDBRANCH   6  18
TORSDOF 6
ENDMDL
MODEL 2
REMARK VINA RESULT:      -6.9      0.312      1.080
REMARK  Name = 
REMARK  11 active torsions:
REMARK  status: ('A' for Active; 'I' for Inactive)
REMARK    1  A    between atoms: C_1  and  C_2
REMARK    2  A    between atoms: C_2  and  C_3
REMARK    3  A    between atoms: C_2  and  C_4
REMARK    4  A    between atoms: C_4  and  C_5
REMARK    5  A    between atoms: N_9  and  C_10
REMARK    6  A    between atoms: N_16  and  C_17
REMARK    7  A    between atoms: C_17  and  C_18
REMARK    8  A    between atoms: C_21  and  C_22
REMARK    9  A    between atoms: C_22  and  C_23
REMARK   10  A    between atoms: C_22  and  C_24
REMARK   11  A    between atoms: C_22  and  C_25
REMARK                            x       y       z     vdW  Elec       q    Type
REMARK                         _______ _______ _______ _____ _____    ______ ____
ROOT
ATOM      1  C   UNL     1       6.201   3.899  14.308  0.00  0.00    +0.000 C 
ATOM      2  C   UNL     1       7.216   4.957  13.839  0.00  0.00    +0.000 C 
ATOM      3  N   UNL     1       7.682   5.648  15.060  0.00  0.00    +0.000 NA
ATOM      4  C   UNL     1       6.838   5.300  15.999  0.00  0.00    +0.000 C 
ATOM      5  N   UNL     1       6.941   5.686  17.303  0.00  0.00    +0.000 N 
ATOM      6  N   UNL     1       5.815   4.453  15.625  0.00  0.00    +0.000 N 
ATOM      7  H   UNL     1       6.814   4.973  18.006  0.00  0.00    +0.000 HD
ENDROOT
BRANCH   5   8
ATOM      8  C   UNL     1       7.469   6.907  17.756  0.00  0.00    +0.000 A 
ATOM      9  C   UNL     1       8.330   6.966  18.861  0.00  0.00    +0.000 A 
ATOM     10  C   UNL     1       8.896   8.174  19.278  0.00  0.00    +0.000 A 
ATOM     11  C   UNL     1       8.580   9.355  18.613  0.00  0.00    +0.000 A 
ATOM     12  C   UNL     1       7.689   9.327  17.543  0.00  0.00    +0.000 A 
ATOM     13  C   UNL     1       7.139   8.108  17.117  0.00  0.00    +0.000 A 
ENDBRANCH   5   8
BRANCH   1  14
ATOM     14  C   UNL     1       5.024   3.736  13.340  0.00  0.00    +0.000 C 
BRANCH  14  16
ATOM     15  C   UNL     1       4.273   2.994  10.983  0.00  0.00    +0.000 C 
ATOM     16  C   UNL     1       5.236   2.767  12.150  0.00  0.00    +0.000 C 
ATOM     17  C   UNL     1       6.676   2.916  11.639  0.00  0.00    +0.000 C 
ENDBRANCH  14  16
ENDBRANCH   1  14
BRANCH   6  18
ATOM     18  C   UNL     1       4.992   3.632  16.514  0.00  0.00    +0.000 C 
BRANCH  18  19
ATOM     19  C   UNL     1       3.487   4.012  16.555  0.00  0.00    +0.000 C 
ATOM     20  C   UNL     1       2.542   2.893  16.987  0.00  0.00    +0.000 C 
ATOM     21  C   UNL     1       2.736   2.424  18.429  0.00  0.00    +0.000 C 
ATOM     22  C   UNL     1       3.097   3.487  19.507  0.00  0.00    +0.000 C 
ATOM     23  C   UNL     1       3.586   4.851  18.956  0.00  0.00    +0.000 C 
ATOM     24  C   UNL     1       3.224   5.179  17.514  0.00  0.00    +0.000 C 
BRANCH  22  25
ATOM     25  C   UNL     1       2.066   3.574  20.705  0.00  0.00    +0.000 C 
ATOM     26  C   UNL     1       2.465   2.569  21.814  0.00  0.00    +0.000 C 
ATOM     27  C   UNL     1       2.076   4.970  21.375  0.00  0.00    +0.000 C 
ATOM     28  C   UNL     1       0.626   3.275  20.251  0.00  0.00    +0.000 C 
ENDBRANCH  22  25
ENDBRANCH  18  19
ENDBRANCH   6  18
TORSDOF 6
ENDMDL
MODEL 3
REMARK VINA RESULT:      -6.8      0.389      1.161
REMARK  Name = 
REMARK  11 active torsions:
REMARK  status: ('A' for Active; 'I' for Inactive)
REMARK    1  A    between atoms: C_1  and  C_2
REMARK    2  A    between atoms: C_2  and  C_3
REMARK    3  A    between atoms: C_2  and  C_4
REMARK    4  A    between atoms: C_4  and  C_5
REMARK    5  A    between atoms: N_9  and  C_10
REMARK    6  A    between atoms: N_16  and  C_17
REMARK    7  A    between atoms: C_17  and  C_18
REMARK    8  A    between atoms: C_21  and  C_22
REMARK    9  A    between atoms: C_22  and  C_23
REMARK   10  A    between atoms: C_22  and  C_24
REMARK   11  A    between atoms: C_22  and  C_25
REMARK                            x       y       z     vdW  Elec       q    Type
REMARK                         _______ _______ _______ _____ _____    ______ ____
ROOT
ATOM      1  C   UNL     1       6.266   3.927  14.390  0.00  0.00    +0.000 C 
ATOM      2  C   UNL     1       7.301   4.957  13.904  0.00  0.00    +0.000 C 
ATOM      3  N   UNL     1       7.765   5.674  15.111  0.00  0.00    +0.000 NA
ATOM      4  C   UNL     1       6.906   5.364  16.050  0.00  0.00    +0.000 C 
ATOM      5  N   UNL     1       7.001   5.782  17.344  0.00  0.00    +0.000 N 
ATOM      6  N   UNL     1       5.874   4.521  15.687  0.00  0.00    +0.000 N 
ATOM      7  H   UNL     1       6.856   5.091  18.065  0.00  0.00    +0.000 HD
ENDROOT
BRANCH   5   8
ATOM      8  C   UNL     1       7.542   7.007  17.771  0.00  0.00    +0.000 A 
ATOM      9  C   UNL     1       7.259   8.205  17.100  0.00  0.00    +0.000 A 
ATOM     10  C   UNL     1       7.754   9.429  17.558  0.00  0.00    +0.000 A 
ATOM     11  C   UNL     1       8.574   9.471  18.682  0.00  0.00    +0.000 A 
ATOM     12  C   UNL     1       8.906   8.287  19.336  0.00  0.00    +0.000 A 
ATOM     13  C   UNL     1       8.391   7.063  18.883  0.00  0.00    +0.000 A 
ENDBRANCH   5   8
BRANCH   1  14
ATOM     14  C   UNL     1       5.097   3.755  13.414  0.00  0.00    +0.000 C 
BRANCH  14  16
ATOM     15  C   UNL     1       4.276   2.931  11.108  0.00  0.00    +0.000 C 
ATOM     16  C   UNL     1       5.339   2.820  12.203  0.00  0.00    +0.000 C 
ATOM     17  C   UNL     1       6.711   3.141  11.594  0.00  0.00    +0.000 C 
ENDBRANCH  14  16
ENDBRANCH   1  14
BRANCH   6  18
ATOM     18  C   UNL     1       5.030   3.736  16.589  0.00  0.00    +0.000 C 
BRANCH  18  19
ATOM     19  C   UNL     1       3.532   4.144  16.609  0.00  0.00    +0.000 C 
ATOM     20  C   UNL     1       2.560   3.043  17.026  0.00  0.00    +0.000 C 
ATOM     21  C   UNL     1       2.725   2.568  18.471  0.00  0.00    +0.000 C 
ATOM     22  C   UNL     1       3.090   3.624  19.555  0.00  0.00    +0.000 C 
ATOM     23  C   UNL     1       3.612   4.979  19.012  0.00  0.00    +0.000 C 
ATOM     24  C   UNL     1       3.277   5.315  17.566  0.00  0.00    +0.000 C 
BRANCH  22  25
ATOM     25  C   UNL     1       2.044   3.729  20.738  0.00  0.00    +0.000 C 
ATOM     26  C   UNL     1       2.012   5.179  21.281  0.00  0.00    +0.000 C 
ATOM     27  C   UNL     1       0.602   3.423  20.262  0.00  0.00    +0.000 C 
ATOM     28  C   UNL     1       2.378   2.767  21.892  0.00  0.00    +0.000 C 
ENDBRANCH  22  25
ENDBRANCH  18  19
ENDBRANCH   6  18
TORSDOF 6
ENDMDL
MODEL 4
REMARK VINA RESULT:      -6.6      2.928      6.274
REMARK  Name = 
REMARK  11 active torsions:
REMARK  status: ('A' for Active; 'I' for Inactive)
REMARK    1  A    between atoms: C_1  and  C_2
REMARK    2  A    between atoms: C_2  and  C_3
REMARK    3  A    between atoms: C_2  and  C_4
REMARK    4  A    between atoms: C_4  and  C_5
REMARK    5  A    between atoms: N_9  and  C_10
REMARK    6  A    between atoms: N_16  and  C_17
REMARK    7  A    between atoms: C_17  and  C_18
REMARK    8  A    between atoms: C_21  and  C_22
REMARK    9  A    between atoms: C_22  and  C_23
REMARK   10  A    between atoms: C_22  and  C_24
REMARK   11  A    between atoms: C_22  and  C_25
REMARK                            x       y       z     vdW  Elec       q    Type
REMARK                         _______ _______ _______ _____ _____    ______ ____
ROOT
ATOM      1  C   UNL     1       3.175   3.226  18.634  0.00  0.00    +0.000 C 
ATOM      2  C   UNL     1       4.141   2.158  18.094  0.00  0.00    +0.000 C 
ATOM      3  N   UNL     1       4.960   2.828  17.061  0.00  0.00    +0.000 NA
ATOM      4  C   UNL     1       4.343   3.956  16.808  0.00  0.00    +0.000 C 
ATOM      5  N   UNL     1       4.801   4.902  15.940  0.00  0.00    +0.000 N 
ATOM      6  N   UNL     1       3.181   4.194  17.515  0.00  0.00    +0.000 N 
ATOM      7  H   UNL     1       4.782   5.862  16.251  0.00  0.00    +0.000 HD
ENDROOT
BRANCH   5   8
ATOM      8  C   UNL     1       5.540   4.651  14.772  0.00  0.00    +0.000 A 
ATOM      9  C   UNL     1       6.798   5.234  14.563  0.00  0.00    +0.000 A 
ATOM     10  C   UNL     1       7.556   4.942  13.426  0.00  0.00    +0.000 A 
ATOM     11  C   UNL     1       7.048   4.083  12.455  0.00  0.00    +0.000 A 
ATOM     12  C   UNL     1       5.780   3.530  12.619  0.00  0.00    +0.000 A 
ATOM     13  C   UNL     1       5.033   3.812  13.772  0.00  0.00    +0.000 A 
ENDBRANCH   5   8
BRANCH   1  14
ATOM     14  C   UNL     1       1.786   2.664  18.953  0.00  0.00    +0.000 C 
BRANCH  14  16
ATOM     15  C   UNL     1       2.401   2.691  21.462  0.00  0.00    +0.000 C 
ATOM     16  C   UNL     1       1.294   2.822  20.414  0.00  0.00    +0.000 C 
ATOM     17  C   UNL     1       0.629   4.197  20.567  0.00  0.00    +0.000 C 
ENDBRANCH  14  16
ENDBRANCH   1  14
BRANCH   6  18
ATOM     18  C   UNL     1       2.526   5.489  17.707  0.00  0.00    +0.000 C 
BRANCH  18  19
ATOM     19  C   UNL     1       3.397   6.570  18.404  0.00  0.00    +0.000 C 
ATOM     20  C   UNL     1       3.518   7.895  17.655  0.00  0.00    +0.000 C 
ATOM     21  C   UNL     1       2.203   8.663  17.515  0.00  0.00    +0.000 C 
ATOM     22  C   UNL     1       1.196   8.622  18.701  0.00  0.00    +0.000 C 
ATOM     23  C   UNL     1       1.455   7.512  19.752  0.00  0.00    +0.000 C 
ATOM     24  C   UNL     1       2.856   6.920  19.795  0.00  0.00    +0.000 C 
BRANCH  22  25
ATOM     25  C   UNL     1       0.833  10.043  19.295  0.00  0.00    +0.000 C 
ATOM     26  C   UNL     1      -0.665  10.348  19.045  0.00  0.00    +0.000 C 
ATOM     27  C   UNL     1       1.024  10.092  20.831  0.00  0.00    +0.000 C 
ATOM     28  C   UNL     1       1.685  11.164  18.674  0.00  0.00    +0.000 C 
ENDBRANCH  22  25
ENDBRANCH  18  19
ENDBRANCH   6  18
TORSDOF 6
ENDMDL
MODEL 5
REMARK VINA RESULT:      -6.6      2.979      6.335
REMARK  Name = 
REMARK  11 active torsions:
REMARK  status: ('A' for Active; 'I' for Inactive)
REMARK    1  A    between atoms: C_1  and  C_2
REMARK    2  A    between atoms: C_2  and  C_3
REMARK    3  A    between atoms: C_2  and  C_4
REMARK    4  A    between atoms: C_4  and  C_5
REMARK    5  A    between atoms: N_9  and  C_10
REMARK    6  A    between atoms: N_16  and  C_17
REMARK    7  A    between atoms: C_17  and  C_18
REMARK    8  A    between atoms: C_21  and  C_22
REMARK    9  A    between atoms: C_22  and  C_23
REMARK   10  A    between atoms: C_22  and  C_24
REMARK   11  A    between atoms: C_22  and  C_25
REMARK                            x       y       z     vdW  Elec       q    Type
REMARK                         _______ _______ _______ _____ _____    ______ ____
ROOT
ATOM      1  C   UNL     1       3.041   3.253  18.748  0.00  0.00    +0.000 C 
ATOM      2  C   UNL     1       4.016   2.178  18.237  0.00  0.00    +0.000 C 
ATOM      3  N   UNL     1       4.864   2.841  17.223  0.00  0.00    +0.000 NA
ATOM      4  C   UNL     1       4.260   3.970  16.951  0.00  0.00    +0.000 C 
ATOM      5  N   UNL     1       4.744   4.911  16.091  0.00  0.00    +0.000 N 
ATOM      6  N   UNL     1       3.081   4.216  17.626  0.00  0.00    +0.000 N 
ATOM      7  H   UNL     1       4.722   5.872  16.398  0.00  0.00    +0.000 HD
ENDROOT
BRANCH   5   8
ATOM      8  C   UNL     1       5.513   4.653  14.944  0.00  0.00    +0.000 A 
ATOM      9  C   UNL     1       5.021   3.862  13.896  0.00  0.00    +0.000 A 
ATOM     10  C   UNL     1       5.766   3.650  12.732  0.00  0.00    +0.000 A 
ATOM     11  C   UNL     1       7.038   4.203  12.612  0.00  0.00    +0.000 A 
ATOM     12  C   UNL     1       7.566   4.953  13.660  0.00  0.00    +0.000 A 
ATOM     13  C   UNL     1       6.806   5.177  14.817  0.00  0.00    +0.000 A 
ENDBRANCH   5   8
BRANCH   1  14
ATOM     14  C   UNL     1       1.642   2.698  19.032  0.00  0.00    +0.000 C 
BRANCH  14  16
ATOM     15  C   UNL     1       2.064   2.552  21.577  0.00  0.00    +0.000 C 
ATOM     16  C   UNL     1       1.085   2.923  20.461  0.00  0.00    +0.000 C 
ATOM     17  C   UNL     1       0.696   4.400  20.615  0.00  0.00    +0.000 C 
ENDBRANCH  14  16
ENDBRANCH   1  14
BRANCH   6  18
ATOM     18  C   UNL     1       2.427   5.515  17.796  0.00  0.00    +0.000 C 
BRANCH  18  19
ATOM     19  C   UNL     1       3.327   6.631  18.394  0.00  0.00    +0.000 C 
ATOM     20  C   UNL     1       3.388   7.925  17.586  0.00  0.00    +0.000 C 
ATOM     21  C   UNL     1       2.059   8.675  17.494  0.00  0.00    +0.000 C 
ATOM     22  C   UNL     1       1.125   8.675  18.739  0.00  0.00    +0.000 C 
ATOM     23  C   UNL     1       1.459   7.613  19.818  0.00  0.00    +0.000 C 
ATOM     24  C   UNL     1       2.867   7.035  19.800  0.00  0.00    +0.000 C 
BRANCH  22  25
ATOM     25  C   UNL     1       0.784  10.117  19.296  0.00  0.00    +0.000 C 
ATOM     26  C   UNL     1       0.924  10.129  20.838  0.00  0.00    +0.000 C 
ATOM     27  C   UNL     1       1.773  11.187  18.772  0.00  0.00    +0.000 C 
ATOM     28  C   UNL     1      -0.641  10.561  18.917  0.00  0.00    +0.000 C 
ENDBRANCH  22  25
ENDBRANCH  18  19
ENDBRANCH   6  18
TORSDOF 6
ENDMDL
MODEL 6
REMARK VINA RESULT:      -6.5      7.446      9.952
REMARK  Name = 
REMARK  11 active torsions:
REMARK  status: ('A' for Active; 'I' for Inactive)
REMARK    1  A    between atoms: C_1  and  C_2
REMARK    2  A    between atoms: C_2  and  C_3
REMARK    3  A    between atoms: C_2  and  C_4
REMARK    4  A    between atoms: C_4  and  C_5
REMARK    5  A    between atoms: N_9  and  C_10
REMARK    6  A    between atoms: N_16  and  C_17
REMARK    7  A    between atoms: C_17  and  C_18
REMARK    8  A    between atoms: C_21  and  C_22
REMARK    9  A    between atoms: C_22  and  C_23
REMARK   10  A    between atoms: C_22  and  C_24
REMARK   11  A    between atoms: C_22  and  C_25
REMARK                            x       y       z     vdW  Elec       q    Type
REMARK                         _______ _______ _______ _____ _____    ______ ____
ROOT
ATOM      1  C   UNL     1      -0.823  11.011  18.294  0.00  0.00    +0.000 C 
ATOM      2  C   UNL     1      -1.430  12.424  18.343  0.00  0.00    +0.000 C 
ATOM      3  N   UNL     1      -1.419  12.827  19.766  0.00  0.00    +0.000 NA
ATOM      4  C   UNL     1      -1.185  11.726  20.436  0.00  0.00    +0.000 C 
ATOM      5  N   UNL     1      -1.045  11.668  21.791  0.00  0.00    +0.000 N 
ATOM      6  N   UNL     1      -1.030  10.573  19.692  0.00  0.00    +0.000 N 
ATOM      7  H   UNL     1      -0.271  11.130  22.153  0.00  0.00    +0.000 HD
ENDROOT
BRANCH   5   8
ATOM      8  C   UNL     1      -1.701  12.495  22.718  0.00  0.00    +0.000 A 
ATOM      9  C   UNL     1      -1.093  13.651  23.227  0.00  0.00    +0.000 A 
ATOM     10  C   UNL     1      -1.767  14.501  24.107  0.00  0.00    +0.000 A 
ATOM     11  C   UNL     1      -3.058  14.188  24.523  0.00  0.00    +0.000 A 
ATOM     12  C   UNL     1      -3.665  13.020  24.067  0.00  0.00    +0.000 A 
ATOM     13  C   UNL     1      -2.990  12.181  23.168  0.00  0.00    +0.000 A 
ENDBRANCH   5   8
BRANCH   1  14
ATOM     14  C   UNL     1      -1.503  10.108  17.259  0.00  0.00    +0.000 C 
BRANCH  14  16
ATOM     15  C   UNL     1      -2.994  10.236  15.153  0.00  0.00    +0.000 C 
ATOM     16  C   UNL     1      -2.801  10.654  16.612  0.00  0.00    +0.000 C 
ATOM     17  C   UNL     1      -4.006  10.166  17.429  0.00  0.00    +0.000 C 
ENDBRANCH  14  16
ENDBRANCH   1  14
BRANCH   6  18
ATOM     18  C   UNL     1      -0.404   9.326  20.135  0.00  0.00    +0.000 C 
BRANCH  18  19
ATOM     19  C   UNL     1       1.120   9.419  20.417  0.00  0.00    +0.000 C 
ATOM     20  C   UNL     1       1.715   8.244  21.189  0.00  0.00    +0.000 C 
ATOM     21  C   UNL     1       1.663   6.909  20.446  0.00  0.00    +0.000 C 
ATOM     22  C   UNL     1       1.886   6.914  18.906  0.00  0.00    +0.000 C 
ATOM     23  C   UNL     1       1.770   8.301  18.224  0.00  0.00    +0.000 C 
ATOM     24  C   UNL     1       1.930   9.522  19.119  0.00  0.00    +0.000 C 
BRANCH  22  25
ATOM     25  C   UNL     1       3.101   6.024  18.422  0.00  0.00    +0.000 C 
ATOM     26  C   UNL     1       3.898   5.515  19.648  0.00  0.00    +0.000 C 
ATOM     27  C   UNL     1       2.626   4.756  17.670  0.00  0.00    +0.000 C 
ATOM     28  C   UNL     1       4.051   6.800  17.492  0.00  0.00    +0.000 C 
ENDBRANCH  22  25
ENDBRANCH  18  19
ENDBRANCH   6  18
TORSDOF 6
ENDMDL
MODEL 7
REMARK VINA RESULT:      -6.5      9.583     12.527
REMARK  Name = 
REMARK  11 active torsions:
REMARK  status: ('A' for Active; 'I' for Inactive)
REMARK    1  A    between atoms: C_1  and  C_2
REMARK    2  A    between atoms: C_2  and  C_3
REMARK    3  A    between atoms: C_2  and  C_4
REMARK    4  A    between atoms: C_4  and  C_5
REMARK    5  A    between atoms: N_9  and  C_10
REMARK    6  A    between atoms: N_16  and  C_17
REMARK    7  A    between atoms: C_17  and  C_18
REMARK    8  A    between atoms: C_21  and  C_22
REMARK    9  A    between atoms: C_22  and  C_23
REMARK   10  A    between atoms: C_22  and  C_24
REMARK   11  A    between atoms: C_22  and  C_25
REMARK                            x       y       z     vdW  Elec       q    Type
REMARK                         _______ _______ _______ _____ _____    ______ ____
ROOT
ATOM      1  C   UNL     1      -0.000  11.209  18.979  0.00  0.00    +0.000 C 
ATOM      2  C   UNL     1      -0.899  10.154  18.311  0.00  0.00    +0.000 C 
ATOM      3  N   UNL     1      -2.258  10.736  18.273  0.00  0.00    +0.000 NA
ATOM      4  C   UNL     1      -2.216  11.767  19.080  0.00  0.00    +0.000 C 
ATOM      5  N   UNL     1      -3.261  12.617  19.293  0.00  0.00    +0.000 N 
ATOM      6  N   UNL     1      -1.010  12.010  19.706  0.00  0.00    +0.000 N 
ATOM      7  H   UNL     1      -3.062  13.606  19.278  0.00  0.00    +0.000 HD
ENDROOT
BRANCH   5   8
ATOM      8  C   UNL     1      -4.621  12.265  19.264  0.00  0.00    +0.000 A 
ATOM      9  C   UNL     1      -5.255  11.890  18.071  0.00  0.00    +0.000 A 
ATOM     10  C   UNL     1      -6.593  11.490  18.052  0.00  0.00    +0.000 A 
ATOM     11  C   UNL     1      -7.335  11.491  19.230  0.00  0.00    +0.000 A 
ATOM     12  C   UNL     1      -6.739  11.905  20.419  0.00  0.00    +0.000 A 
ATOM     13  C   UNL     1      -5.389  12.288  20.434  0.00  0.00    +0.000 A 
ENDBRANCH   5   8
BRANCH   1  14
ATOM     14  C   UNL     1       1.065  10.590  19.889  0.00  0.00    +0.000 C 
BRANCH  14  16
ATOM     15  C   UNL     1       1.814   8.119  19.812  0.00  0.00    +0.000 C 
ATOM     16  C   UNL     1       0.812   9.136  20.361  0.00  0.00    +0.000 C 
ATOM     17  C   UNL     1       0.859   9.097  21.895  0.00  0.00    +0.000 C 
ENDBRANCH  14  16
ENDBRANCH   1  14
BRANCH   6  18
ATOM     18  C   UNL     1      -0.588  13.265  20.331  0.00  0.00    +0.000 C 
BRANCH  18  19
ATOM     19  C   UNL     1      -0.227  13.160  21.838  0.00  0.00    +0.000 C 
ATOM     20  C   UNL     1      -0.420  14.441  22.647  0.00  0.00    +0.000 C 
ATOM     21  C   UNL     1      -1.872  14.908  22.753  0.00  0.00    +0.000 C 
ATOM     22  C   UNL     1      -2.986  13.828  22.882  0.00  0.00    +0.000 C 
ATOM     23  C   UNL     1      -2.554  12.384  22.519  0.00  0.00    +0.000 C 
ATOM     24  C   UNL     1      -1.061  12.086  22.546  0.00  0.00    +0.000 C 
BRANCH  22  25
ATOM     25  C   UNL     1      -3.871  13.959  24.187  0.00  0.00    +0.000 C 
ATOM     26  C   UNL     1      -3.084  14.728  25.278  0.00  0.00    +0.000 C 
ATOM     27  C   UNL     1      -5.157  14.784  23.932  0.00  0.00    +0.000 C 
ATOM     28  C   UNL     1      -4.289  12.586  24.743  0.00  0.00    +0.000 C 
ENDBRANCH  22  25
ENDBRANCH  18  19
ENDBRANCH   6  18
TORSDOF 6
ENDMDL
MODEL 8
REMARK VINA RESULT:      -6.3      3.805      6.767
REMARK  Name = 
REMARK  11 active torsions:
REMARK  status: ('A' for Active; 'I' for Inactive)
REMARK    1  A    between atoms: C_1  and  C_2
REMARK    2  A    between atoms: C_2  and  C_3
REMARK    3  A    between atoms: C_2  and  C_4
REMARK    4  A    between atoms: C_4  and  C_5
REMARK    5  A    between atoms: N_9  and  C_10
REMARK    6  A    between atoms: N_16  and  C_17
REMARK    7  A    between atoms: C_17  and  C_18
REMARK    8  A    between atoms: C_21  and  C_22
REMARK    9  A    between atoms: C_22  and  C_23
REMARK   10  A    between atoms: C_22  and  C_24
REMARK   11  A    between atoms: C_22  and  C_25
REMARK                            x       y       z     vdW  Elec       q    Type
REMARK                         _______ _______ _______ _____ _____    ______ ____
ROOT
ATOM      1  C   UNL     1       3.029   5.190  20.014  0.00  0.00    +0.000 C 
ATOM      2  C   UNL     1       4.176   4.169  19.906  0.00  0.00    +0.000 C 
ATOM      3  N   UNL     1       4.922   4.517  18.677  0.00  0.00    +0.000 NA
ATOM      4  C   UNL     1       4.145   5.345  18.023  0.00  0.00    +0.000 C 
ATOM      5  N   UNL     1       4.485   5.947  16.848  0.00  0.00    +0.000 N 
ATOM      6  N   UNL     1       2.930   5.642  18.608  0.00  0.00    +0.000 N 
ATOM      7  H   UNL     1       4.300   6.936  16.766  0.00  0.00    +0.000 HD
ENDROOT
BRANCH   5   8
ATOM      8  C   UNL     1       5.305   5.393  15.851  0.00  0.00    +0.000 A 
ATOM      9  C   UNL     1       4.788   4.531  14.873  0.00  0.00    +0.000 A 
ATOM     10  C   UNL     1       5.594   4.024  13.851  0.00  0.00    +0.000 A 
ATOM     11  C   UNL     1       6.948   4.345  13.810  0.00  0.00    +0.000 A 
ATOM     12  C   UNL     1       7.493   5.161  14.798  0.00  0.00    +0.000 A 
ATOM     13  C   UNL     1       6.675   5.682  15.811  0.00  0.00    +0.000 A 
ENDBRANCH   5   8
BRANCH   1  14
ATOM     14  C   UNL     1       1.734   4.573  20.553  0.00  0.00    +0.000 C 
BRANCH  14  16
ATOM     15  C   UNL     1       1.274   2.416  21.898  0.00  0.00    +0.000 C 
ATOM     16  C   UNL     1       1.650   3.026  20.546  0.00  0.00    +0.000 C 
ATOM     17  C   UNL     1       0.612   2.590  19.502  0.00  0.00    +0.000 C 
ENDBRANCH  14  16
ENDBRANCH   1  14
BRANCH   6  18
ATOM     18  C   UNL     1       2.071   6.786  18.300  0.00  0.00    +0.000 C 
BRANCH  18  19
ATOM     19  C   UNL     1       2.624   8.165  18.752  0.00  0.00    +0.000 C 
ATOM     20  C   UNL     1       2.349   9.324  17.798  0.00  0.00    +0.000 C 
ATOM     21  C   UNL     1       0.869   9.672  17.636  0.00  0.00    +0.000 C 
ATOM     22  C   UNL     1      -0.054   9.563  18.885  0.00  0.00    +0.000 C 
ATOM     23  C   UNL     1       0.534   8.763  20.076  0.00  0.00    +0.000 C 
ATOM     24  C   UNL     1       2.046   8.589  20.108  0.00  0.00    +0.000 C 
BRANCH  22  25
ATOM     25  C   UNL     1      -0.783  10.913  19.274  0.00  0.00    +0.000 C 
ATOM     26  C   UNL     1      -0.902  11.019  20.815  0.00  0.00    +0.000 C 
ATOM     27  C   UNL     1       0.025  12.156  18.825  0.00  0.00    +0.000 C 
ATOM     28  C   UNL     1      -2.188  11.011  18.653  0.00  0.00    +0.000 C 
ENDBRANCH  22  25
ENDBRANCH  18  19
ENDBRANCH   6  18
TORSDOF 6
ENDMDL
MODEL 9
REMARK VINA RESULT:      -6.3      9.630     12.469
REMARK  Name = 
REMARK  11 active torsions:
REMARK  status: ('A' for Active; 'I' for Inactive)
REMARK    1  A    between atoms: C_1  and  C_2
REMARK    2  A    between atoms: C_2  and  C_3
REMARK    3  A    between atoms: C_2  and  C_4
REMARK    4  A    between atoms: C_4  and  C_5
REMARK    5  A    between atoms: N_9  and  C_10
REMARK    6  A    between atoms: N_16  and  C_17
REMARK    7  A    between atoms: C_17  and  C_18
REMARK    8  A    between atoms: C_21  and  C_22
REMARK    9  A    between atoms: C_22  and  C_23
REMARK   10  A    between atoms: C_22  and  C_24
REMARK   11  A    between atoms: C_22  and  C_25
REMARK                            x       y       z     vdW  Elec       q    Type
REMARK                         _______ _______ _______ _____ _____    ______ ____
ROOT
ATOM      1  C   UNL     1      -0.137  11.208  18.765  0.00  0.00    +0.000 C 
ATOM      2  C   UNL     1      -1.078  10.189  18.098  0.00  0.00    +0.000 C 
ATOM      3  N   UNL     1      -2.427  10.796  18.127  0.00  0.00    +0.000 NA
ATOM      4  C   UNL     1      -2.337  11.801  18.963  0.00  0.00    +0.000 C 
ATOM      5  N   UNL     1      -3.358  12.661  19.239  0.00  0.00    +0.000 N 
ATOM      6  N   UNL     1      -1.105  12.003  19.552  0.00  0.00    +0.000 N 
ATOM      7  H   UNL     1      -3.142  13.647  19.247  0.00  0.00    +0.000 HD
ENDROOT
BRANCH   5   8
ATOM      8  C   UNL     1      -4.724  12.334  19.248  0.00  0.00    +0.000 A 
ATOM      9  C   UNL     1      -5.448  12.245  20.446  0.00  0.00    +0.000 A 
ATOM     10  C   UNL     1      -6.818  11.973  20.450  0.00  0.00    +0.000 A 
ATOM     11  C   UNL     1      -7.485  11.748  19.249  0.00  0.00    +0.000 A 
ATOM     12  C   UNL     1      -6.777  11.784  18.050  0.00  0.00    +0.000 A 
ATOM     13  C   UNL     1      -5.405  12.077  18.051  0.00  0.00    +0.000 A 
ENDBRANCH   5   8
BRANCH   1  14
ATOM     14  C   UNL     1       0.949  10.543  19.617  0.00  0.00    +0.000 C 
BRANCH  14  16
ATOM     15  C   UNL     1       2.095   8.463  18.601  0.00  0.00    +0.000 C 
ATOM     16  C   UNL     1       1.026   8.996  19.556  0.00  0.00    +0.000 C 
ATOM     17  C   UNL     1       1.309   8.458  20.966  0.00  0.00    +0.000 C 
ENDBRANCH  14  16
ENDBRANCH   1  14
BRANCH   6  18
ATOM     18  C   UNL     1      -0.639  13.231  20.200  0.00  0.00    +0.000 C 
BRANCH  18  19
ATOM     19  C   UNL     1      -0.253  13.079  21.696  0.00  0.00    +0.000 C 
ATOM     20  C   UNL     1      -0.366  14.351  22.533  0.00  0.00    +0.000 C 
ATOM     21  C   UNL     1      -1.791  14.887  22.678  0.00  0.00    +0.000 C 
ATOM     22  C   UNL     1      -2.954  13.861  22.810  0.00  0.00    +0.000 C 
ATOM     23  C   UNL     1      -2.601  12.405  22.412  0.00  0.00    +0.000 C 
ATOM     24  C   UNL     1      -1.125  12.033  22.402  0.00  0.00    +0.000 C 
BRANCH  22  25
ATOM     25  C   UNL     1      -3.805  14.009  24.136  0.00  0.00    +0.000 C 
ATOM     26  C   UNL     1      -4.197  12.608  24.667  0.00  0.00    +0.000 C 
ATOM     27  C   UNL     1      -2.992  14.680  25.271  0.00  0.00    +0.000 C 
ATOM     28  C   UNL     1      -5.083  14.838  23.913  0.00  0.00    +0.000 C 
ENDBRANCH  22  25
ENDBRANCH  18  19
ENDBRANCH   6  18
TORSDOF 6
ENDMDL
