MODEL 1
REMARK VINA RESULT:      -4.2      0.000      0.000
REMARK  Name = 
REMARK  2 active torsions:
REMARK  status: ('A' for Active; 'I' for Inactive)
REMARK    1  A    between atoms: C_1  and  C_2
REMARK    2  A    between atoms: C_2  and  N_3
REMARK                            x       y       z     vdW  Elec       q    Type
REMARK                         _______ _______ _______ _____ _____    ______ ____
ROOT
ATOM      1  N   UNL     1       6.901   6.112  17.456  0.00  0.00    +0.000 N 
ATOM      2  C   UNL     1       5.739   6.654  16.799  0.00  0.00    +0.000 C 
ATOM      3  C   UNL     1       4.973   5.408  16.401  0.00  0.00    +0.000 C 
ATOM      4  C   UNL     1       6.073   4.399  16.092  0.00  0.00    +0.000 C 
ATOM      5  C   UNL     1       7.191   4.828  17.010  0.00  0.00    +0.000 C 
ATOM      6  O   UNL     1       8.189   4.168  17.264  0.00  0.00    +0.000 OA
ENDROOT
BRANCH   1   8
ATOM      7  C   UNL     1       7.889   8.360  17.694  0.00  0.00    +0.000 C 
ATOM      8  C   UNL     1       7.830   6.934  18.212  0.00  0.00    +0.000 C 
ENDBRANCH   1   8
TORSDOF 1
ENDMDL
MODEL 2
REMARK VINA RESULT:      -4.1      1.029      2.999
REMARK  Name = 
REMARK  2 active torsions:
REMARK  status: ('A' for Active; 'I' for Inactive)
REMARK    1  A    between atoms: C_1  and  C_2
REMARK    2  A    between atoms: C_2  and  N_3
REMARK                            x       y       z     vdW  Elec       q    Type
REMARK                         _______ _______ _______ _____ _____    ______ ____
ROOT
ATOM      1  N   UNL     1       6.259   5.071  16.474  0.00  0.00    +0.000 N 
ATOM      2  C   UNL     1       5.440   6.225  16.742  0.00  0.00    +0.000 C 
ATOM      3  C   UNL     1       6.442   7.223  17.286  0.00  0.00    +0.000 C 
ATOM      4  C   UNL     1       7.438   6.351  18.041  0.00  0.00    +0.000 C 
ATOM      5  C   UNL     1       7.395   5.052  17.274  0.00  0.00    +0.000 C 
ATOM      6  O   UNL     1       8.201   4.138  17.388  0.00  0.00    +0.000 OA
ENDROOT
BRANCH   1   8
ATOM      7  C   UNL     1       6.181   3.977  14.265  0.00  0.00    +0.000 C 
ATOM      8  C   UNL     1       5.777   3.923  15.727  0.00  0.00    +0.000 C 
ENDBRANCH   1   8
TORSDOF 1
ENDMDL
MODEL 3
REMARK VINA RESULT:      -4.1      5.286      6.270
REMARK  Name = 
REMARK  2 active torsions:
REMARK  status: ('A' for Active; 'I' for Inactive)
REMARK    1  A    between atoms: C_1  and  C_2
REMARK    2  A    between atoms: C_2  and  N_3
REMARK                            x       y       z     vdW  Elec       q    Type
REMARK                         _______ _______ _______ _____ _____    ______ ____
ROOT
ATOM      1  N   UNL     1       2.637   2.759  19.026  0.00  0.00    +0.000 N 
ATOM      2  C   UNL     1       2.978   2.737  20.425  0.00  0.00    +0.000 C 
ATOM      3  C   UNL     1       1.634   2.942  21.096  0.00  0.00    +0.000 C 
ATOM      4  C   UNL     1       0.893   3.861  20.132  0.00  0.00    +0.000 C 
ATOM      5  C   UNL     1       1.474   3.482  18.792  0.00  0.00    +0.000 C 
ATOM      6  O   UNL     1       1.013   3.805  17.706  0.00  0.00    +0.000 OA
ENDROOT
BRANCH   1   8
ATOM      7  C   UNL     1       4.384   3.557  17.477  0.00  0.00    +0.000 C 
ATOM      8  C   UNL     1       3.574   2.377  17.984  0.00  0.00    +0.000 C 
ENDBRANCH   1   8
TORSDOF 1
ENDMDL
MODEL 4
REMARK VINA RESULT:      -4.1      5.148      6.116
REMARK  Name = 
REMARK  2 active torsions:
REMARK  status: ('A' for Active; 'I' for Inactive)
REMARK    1  A    between atoms: C_1  and  C_2
REMARK    2  A    between atoms: C_2  and  N_3
REMARK                            x       y       z     vdW  Elec       q    Type
REMARK                         _______ _______ _______ _____ _____    ______ ____
ROOT
ATOM      1  N   UNL     1       2.514   2.792  19.112  0.00  0.00    +0.000 N 
ATOM      2  C   UNL     1       1.120   3.012  19.398  0.00  0.00    +0.000 C 
ATOM      3  C   UNL     1       1.155   3.564  20.809  0.00  0.00    +0.000 C 
ATOM      4  C   UNL     1       2.333   2.837  21.446  0.00  0.00    +0.000 C 
ATOM      5  C   UNL     1       3.252   2.594  20.273  0.00  0.00    +0.000 C 
ATOM      6  O   UNL     1       4.419   2.240  20.353  0.00  0.00    +0.000 OA
ENDROOT
BRANCH   1   8
ATOM      7  C   UNL     1       3.648   3.670  17.104  0.00  0.00    +0.000 C 
ATOM      8  C   UNL     1       3.002   2.474  17.781  0.00  0.00    +0.000 C 
ENDBRANCH   1   8
TORSDOF 1
ENDMDL
MODEL 5
REMARK VINA RESULT:      -4.1      2.072      2.392
REMARK  Name = 
REMARK  2 active torsions:
REMARK  status: ('A' for Active; 'I' for Inactive)
REMARK    1  A    between atoms: C_1  and  C_2
REMARK    2  A    between atoms: C_2  and  N_3
REMARK                            x       y       z     vdW  Elec       q    Type
REMARK                         _______ _______ _______ _____ _____    ______ ____
ROOT
ATOM      1  N   UNL     1       5.858   4.524  17.342  0.00  0.00    +0.000 N 
ATOM      2  C   UNL     1       4.877   5.016  16.410  0.00  0.00    +0.000 C 
ATOM      3  C   UNL     1       5.483   4.652  15.069  0.00  0.00    +0.000 C 
ATOM      4  C   UNL     1       6.982   4.796  15.306  0.00  0.00    +0.000 C 
ATOM      5  C   UNL     1       7.124   4.463  16.771  0.00  0.00    +0.000 C 
ATOM      6  O   UNL     1       8.180   4.231  17.343  0.00  0.00    +0.000 OA
ENDROOT
BRANCH   1   8
ATOM      7  C   UNL     1       4.499   5.376  19.217  0.00  0.00    +0.000 C 
ATOM      8  C   UNL     1       5.612   4.444  18.771  0.00  0.00    +0.000 C 
ENDBRANCH   1   8
TORSDOF 1
ENDMDL
MODEL 6
REMARK VINA RESULT:      -4.1      5.054      6.115
REMARK  Name = 
REMARK  2 active torsions:
REMARK  status: ('A' for Active; 'I' for Inactive)
REMARK    1  A    between atoms: C_1  and  C_2
REMARK    2  A    between atoms: C_2  and  N_3
REMARK                            x       y       z     vdW  Elec       q    Type
REMARK                         _______ _______ _______ _____ _____    ______ ____
ROOT
ATOM      1  N   UNL     1       2.221   3.663  19.272  0.00  0.00    +0.000 N 
ATOM      2  C   UNL     1       3.523   3.139  19.597  0.00  0.00    +0.000 C 
ATOM      3  C   UNL     1       4.373   3.621  18.439  0.00  0.00    +0.000 C 
ATOM      4  C   UNL     1       3.411   3.590  17.257  0.00  0.00    +0.000 C 
ATOM      5  C   UNL     1       2.075   3.859  17.904  0.00  0.00    +0.000 C 
ATOM      6  O   UNL     1       1.047   4.148  17.308  0.00  0.00    +0.000 OA
ENDROOT
BRANCH   1   8
ATOM      7  C   UNL     1       1.396   2.782  21.423  0.00  0.00    +0.000 C 
ATOM      8  C   UNL     1       1.113   3.649  20.210  0.00  0.00    +0.000 C 
ENDBRANCH   1   8
TORSDOF 1
ENDMDL
MODEL 7
REMARK VINA RESULT:      -4.1      1.794      3.584
REMARK  Name = 
REMARK  2 active torsions:
REMARK  status: ('A' for Active; 'I' for Inactive)
REMARK    1  A    between atoms: C_1  and  C_2
REMARK    2  A    between atoms: C_2  and  N_3
REMARK                            x       y       z     vdW  Elec       q    Type
REMARK                         _______ _______ _______ _____ _____    ______ ____
ROOT
ATOM      1  N   UNL     1       6.376   4.934  16.786  0.00  0.00    +0.000 N 
ATOM      2  C   UNL     1       7.512   4.616  17.611  0.00  0.00    +0.000 C 
ATOM      3  C   UNL     1       7.664   5.861  18.461  0.00  0.00    +0.000 C 
ATOM      4  C   UNL     1       7.231   6.984  17.526  0.00  0.00    +0.000 C 
ATOM      5  C   UNL     1       6.222   6.307  16.631  0.00  0.00    +0.000 C 
ATOM      6  O   UNL     1       5.449   6.881  15.877  0.00  0.00    +0.000 OA
ENDROOT
BRANCH   1   8
ATOM      7  C   UNL     1       6.272   3.905  14.546  0.00  0.00    +0.000 C 
ATOM      8  C   UNL     1       5.708   3.948  15.955  0.00  0.00    +0.000 C 
ENDBRANCH   1   8
TORSDOF 1
ENDMDL
MODEL 8
REMARK VINA RESULT:      -4.1      5.250      6.193
REMARK  Name = 
REMARK  2 active torsions:
REMARK  status: ('A' for Active; 'I' for Inactive)
REMARK    1  A    between atoms: C_1  and  C_2
REMARK    2  A    between atoms: C_2  and  N_3
REMARK                            x       y       z     vdW  Elec       q    Type
REMARK                         _______ _______ _______ _____ _____    ______ ____
ROOT
ATOM      1  N   UNL     1       1.881   4.037  19.394  0.00  0.00    +0.000 N 
ATOM      2  C   UNL     1       3.140   4.690  19.139  0.00  0.00    +0.000 C 
ATOM      3  C   UNL     1       3.236   4.645  17.627  0.00  0.00    +0.000 C 
ATOM      4  C   UNL     1       2.558   3.328  17.267  0.00  0.00    +0.000 C 
ATOM      5  C   UNL     1       1.541   3.162  18.370  0.00  0.00    +0.000 C 
ATOM      6  O   UNL     1       0.618   2.359  18.363  0.00  0.00    +0.000 OA
ENDROOT
BRANCH   1   8
ATOM      7  C   UNL     1       1.818   2.975  21.619  0.00  0.00    +0.000 C 
ATOM      8  C   UNL     1       1.246   4.039  20.700  0.00  0.00    +0.000 C 
ENDBRANCH   1   8
TORSDOF 1
ENDMDL
MODEL 9
REMARK VINA RESULT:      -4.1      1.602      1.750
REMARK  Name = 
REMARK  2 active torsions:
REMARK  status: ('A' for Active; 'I' for Inactive)
REMARK    1  A    between atoms: C_1  and  C_2
REMARK    2  A    between atoms: C_2  and  N_3
REMARK                            x       y       z     vdW  Elec       q    Type
REMARK                         _______ _______ _______ _____ _____    ______ ____
ROOT
ATOM      1  N   UNL     1       6.510   5.567  16.798  0.00  0.00    +0.000 N 
ATOM      2  C   UNL     1       5.194   5.220  17.271  0.00  0.00    +0.000 C 
ATOM      3  C   UNL     1       4.861   3.991  16.449  0.00  0.00    +0.000 C 
ATOM      4  C   UNL     1       5.541   4.263  15.112  0.00  0.00    +0.000 C 
ATOM      5  C   UNL     1       6.728   5.108  15.505  0.00  0.00    +0.000 C 
ATOM      6  O   UNL     1       7.679   5.369  14.782  0.00  0.00    +0.000 OA
ENDROOT
BRANCH   1   8
ATOM      7  C   UNL     1       7.782   6.114  18.840  0.00  0.00    +0.000 C 
ATOM      8  C   UNL     1       7.344   6.558  17.456  0.00  0.00    +0.000 C 
ENDBRANCH   1   8
TORSDOF 1
ENDMDL
