MODEL 1
REMARK VINA RESULT:      -7.0      0.000      0.000
REMARK  Name = 
REMARK  14 active torsions:
REMARK  status: ('A' for Active; 'I' for Inactive)
REMARK    1  A    between atoms: C_1  and  C_2
REMARK    2  A    between atoms: C_2  and  C_3
REMARK    3  A    between atoms: C_3  and  C_5
REMARK    4  A    between atoms: C_5  and  C_6
REMARK    5  A    between atoms: C_5  and  C_24
REMARK    6  A    between atoms: C_6  and  C_7
REMARK    7  A    between atoms: C_7  and  C_8
REMARK    8  A    between atoms: C_8  and  C_9
REMARK    9  A    between atoms: C_9  and  C_10
REMARK   10  A    between atoms: C_10  and  C_11
REMARK   11  A    between atoms: C_11  and  O_12
REMARK   12  A    between atoms: O_12  and  C_13
REMARK   13  A    between atoms: C_24  and  C_26
REMARK   14  A    between atoms: C_26  and  C_27
REMARK                            x       y       z     vdW  Elec       q    Type
REMARK                         _______ _______ _______ _____ _____    ______ ____
ROOT
ATOM      1  C   UNL     1       4.081   4.129  19.426  0.00  0.00    +0.000 C 
ENDROOT
BRANCH   1   2
ATOM      2  C   UNL     1       2.814   3.584  18.755  0.00  0.00    +0.000 C 
BRANCH   2   3
ATOM      3  C   UNL     1       2.953   3.295  17.252  0.00  0.00    +0.000 C 
BRANCH   3   4
ATOM      4  C   UNL     1       4.421   3.191  16.834  0.00  0.00    +0.000 C 
BRANCH   4   5
ATOM      5  C   UNL     1       4.893   4.384  15.997  0.00  0.00    +0.000 C 
BRANCH   5   6
ATOM      6  C   UNL     1       6.418   4.393  15.765  0.00  0.00    +0.000 C 
BRANCH   6   7
ATOM      7  C   UNL     1       7.147   5.339  16.718  0.00  0.00    +0.000 C 
ATOM      8  O   UNL     1       7.214   6.552  16.504  0.00  0.00    +0.000 OA
BRANCH   7  10
ATOM      9  C   UNL     1       7.774   5.776  19.110  0.00  0.00    +0.000 C 
ATOM     10  C   UNL     1       7.702   4.740  18.000  0.00  0.00    +0.000 C 
ENDBRANCH   7  10
ENDBRANCH   6   7
BRANCH   6  11
ATOM     11  C   UNL     1       6.743   4.640  14.299  0.00  0.00    +0.000 C 
ATOM     12  O   UNL     1       7.743   5.270  13.958  0.00  0.00    +0.000 OA
BRANCH  11  13
ATOM     13  C   UNL     1       5.805   4.028  13.271  0.00  0.00    +0.000 C 
ATOM     14  C   UNL     1       6.553   3.332  12.146  0.00  0.00    +0.000 C 
ENDBRANCH  11  13
ENDBRANCH   6  11
ENDBRANCH   5   6
ENDBRANCH   4   5
ENDBRANCH   3   4
ENDBRANCH   2   3
ENDBRANCH   1   2
BRANCH   1  15
ATOM     15  C   UNL     1       4.008   5.637  19.643  0.00  0.00    +0.000 C 
BRANCH  15  16
ATOM     16  O   UNL     1       3.069   6.200  18.729  0.00  0.00    +0.000 OA
BRANCH  16  17
ATOM     17  C   UNL     1       2.327   7.255  19.190  0.00  0.00    +0.000 A 
ATOM     18  C   UNL     1       1.661   7.339  20.420  0.00  0.00    +0.000 A 
ATOM     19  F   UNL     1       1.669   6.321  21.295  0.00  0.00    +0.000 F 
ATOM     20  C   UNL     1       0.963   8.490  20.776  0.00  0.00    +0.000 A 
ATOM     21  F   UNL     1       0.341   8.550  21.963  0.00  0.00    +0.000 F 
ATOM     22  C   UNL     1       0.912   9.572  19.912  0.00  0.00    +0.000 A 
ATOM     23  F   UNL     1       0.245  10.681  20.263  0.00  0.00    +0.000 F 
ATOM     24  C   UNL     1       1.549   9.502  18.683  0.00  0.00    +0.000 A 
ATOM     25  F   UNL     1       1.494  10.543  17.840  0.00  0.00    +0.000 F 
ATOM     26  C   UNL     1       2.249   8.353  18.325  0.00  0.00    +0.000 A 
ATOM     27  F   UNL     1       2.855   8.306  17.129  0.00  0.00    +0.000 F 
ENDBRANCH  16  17
ENDBRANCH  15  16
ENDBRANCH   1  15
TORSDOF 12
ENDMDL
MODEL 2
REMARK VINA RESULT:      -6.8      3.061      5.308
REMARK  Name = 
REMARK  14 active torsions:
REMARK  status: ('A' for Active; 'I' for Inactive)
REMARK    1  A    between atoms: C_1  and  C_2
REMARK    2  A    between atoms: C_2  and  C_3
REMARK    3  A    between atoms: C_3  and  C_5
REMARK    4  A    between atoms: C_5  and  C_6
REMARK    5  A    between atoms: C_5  and  C_24
REMARK    6  A    between atoms: C_6  and  C_7
REMARK    7  A    between atoms: C_7  and  C_8
REMARK    8  A    between atoms: C_8  and  C_9
REMARK    9  A    between atoms: C_9  and  C_10
REMARK   10  A    between atoms: C_10  and  C_11
REMARK   11  A    between atoms: C_11  and  O_12
REMARK   12  A    between atoms: O_12  and  C_13
REMARK   13  A    between atoms: C_24  and  C_26
REMARK   14  A    between atoms: C_26  and  C_27
REMARK                            x       y       z     vdW  Elec       q    Type
REMARK                         _______ _______ _______ _____ _____    ______ ____
ROOT
ATOM      1  C   UNL     1       1.980   5.780  18.478  0.00  0.00    +0.000 C 
ENDROOT
BRANCH   1   2
ATOM      2  C   UNL     1       2.373   7.199  18.051  0.00  0.00    +0.000 C 
BRANCH   2   3
ATOM      3  C   UNL     1       3.816   7.343  17.540  0.00  0.00    +0.000 C 
BRANCH   3   4
ATOM      4  C   UNL     1       4.615   6.056  17.748  0.00  0.00    +0.000 C 
BRANCH   4   5
ATOM      5  C   UNL     1       4.990   5.363  16.434  0.00  0.00    +0.000 C 
BRANCH   5   6
ATOM      6  C   UNL     1       6.424   5.686  15.968  0.00  0.00    +0.000 C 
BRANCH   6   7
ATOM      7  C   UNL     1       6.739   5.095  14.595  0.00  0.00    +0.000 C 
ATOM      8  O   UNL     1       7.793   5.346  14.007  0.00  0.00    +0.000 OA
BRANCH   7  10
ATOM      9  C   UNL     1       6.255   3.483  12.732  0.00  0.00    +0.000 C 
ATOM     10  C   UNL     1       5.743   4.099  14.023  0.00  0.00    +0.000 C 
ENDBRANCH   7  10
ENDBRANCH   6   7
BRANCH   6  11
ATOM     11  C   UNL     1       7.440   5.311  17.037  0.00  0.00    +0.000 C 
ATOM     12  O   UNL     1       8.018   4.225  17.024  0.00  0.00    +0.000 OA
BRANCH  11  13
ATOM     13  C   UNL     1       7.748   6.358  18.095  0.00  0.00    +0.000 C 
ATOM     14  C   UNL     1       7.855   5.761  19.488  0.00  0.00    +0.000 C 
ENDBRANCH  11  13
ENDBRANCH   6  11
ENDBRANCH   5   6
ENDBRANCH   4   5
ENDBRANCH   3   4
ENDBRANCH   2   3
ENDBRANCH   1   2
BRANCH   1  15
ATOM     15  C   UNL     1       1.286   5.017  17.355  0.00  0.00    +0.000 C 
BRANCH  15  16
ATOM     16  O   UNL     1       1.593   3.629  17.469  0.00  0.00    +0.000 OA
BRANCH  16  17
ATOM     17  C   UNL     1       2.021   3.198  18.698  0.00  0.00    +0.000 A 
ATOM     18  C   UNL     1       1.277   3.175  19.884  0.00  0.00    +0.000 A 
ATOM     19  F   UNL     1       0.013   3.626  19.931  0.00  0.00    +0.000 F 
ATOM     20  C   UNL     1       1.829   2.680  21.062  0.00  0.00    +0.000 A 
ATOM     21  F   UNL     1       1.094   2.660  22.184  0.00  0.00    +0.000 F 
ATOM     22  C   UNL     1       3.131   2.207  21.080  0.00  0.00    +0.000 A 
ATOM     23  F   UNL     1       3.655   1.724  22.216  0.00  0.00    +0.000 F 
ATOM     24  C   UNL     1       3.890   2.238  19.920  0.00  0.00    +0.000 A 
ATOM     25  F   UNL     1       5.153   1.790  19.935  0.00  0.00    +0.000 F 
ATOM     26  C   UNL     1       3.339   2.730  18.740  0.00  0.00    +0.000 A 
ATOM     27  F   UNL     1       4.093   2.754  17.631  0.00  0.00    +0.000 F 
ENDBRANCH  16  17
ENDBRANCH  15  16
ENDBRANCH   1  15
TORSDOF 12
ENDMDL
MODEL 3
REMARK VINA RESULT:      -6.7      2.596      4.601
REMARK  Name = 
REMARK  14 active torsions:
REMARK  status: ('A' for Active; 'I' for Inactive)
REMARK    1  A    between atoms: C_1  and  C_2
REMARK    2  A    between atoms: C_2  and  C_3
REMARK    3  A    between atoms: C_3  and  C_5
REMARK    4  A    between atoms: C_5  and  C_6
REMARK    5  A    between atoms: C_5  and  C_24
REMARK    6  A    between atoms: C_6  and  C_7
REMARK    7  A    between atoms: C_7  and  C_8
REMARK    8  A    between atoms: C_8  and  C_9
REMARK    9  A    between atoms: C_9  and  C_10
REMARK   10  A    between atoms: C_10  and  C_11
REMARK   11  A    between atoms: C_11  and  O_12
REMARK   12  A    between atoms: O_12  and  C_13
REMARK   13  A    between atoms: C_24  and  C_26
REMARK   14  A    between atoms: C_26  and  C_27
REMARK                            x       y       z     vdW  Elec       q    Type
REMARK                         _______ _______ _______ _____ _____    ______ ____
ROOT
ATOM      1  C   UNL     1       1.573   8.793  17.593  0.00  0.00    +0.000 C 
ENDROOT
BRANCH   1   2
ATOM      2  C   UNL     1       2.742   7.984  18.167  0.00  0.00    +0.000 C 
BRANCH   2   3
ATOM      3  C   UNL     1       2.490   6.472  18.273  0.00  0.00    +0.000 C 
BRANCH   3   4
ATOM      4  C   UNL     1       2.975   5.915  19.612  0.00  0.00    +0.000 C 
BRANCH   4   5
ATOM      5  C   UNL     1       4.406   5.372  19.555  0.00  0.00    +0.000 C 
BRANCH   5   6
ATOM      6  C   UNL     1       4.610   4.323  18.442  0.00  0.00    +0.000 C 
BRANCH   6   7
ATOM      7  C   UNL     1       4.420   2.894  18.946  0.00  0.00    +0.000 C 
ATOM      8  O   UNL     1       4.915   2.508  20.008  0.00  0.00    +0.000 OA
BRANCH   7  10
ATOM      9  C   UNL     1       2.170   2.653  17.859  0.00  0.00    +0.000 C 
ATOM     10  C   UNL     1       3.508   1.988  18.134  0.00  0.00    +0.000 C 
ENDBRANCH   7  10
ENDBRANCH   6   7
BRANCH   6  11
ATOM     11  C   UNL     1       5.934   4.543  17.724  0.00  0.00    +0.000 C 
ATOM     12  O   UNL     1       6.112   4.160  16.569  0.00  0.00    +0.000 OA
BRANCH  11  13
ATOM     13  C   UNL     1       7.011   5.303  18.480  0.00  0.00    +0.000 C 
ATOM     14  C   UNL     1       7.399   6.600  17.789  0.00  0.00    +0.000 C 
ENDBRANCH  11  13
ENDBRANCH   6  11
ENDBRANCH   5   6
ENDBRANCH   4   5
ENDBRANCH   3   4
ENDBRANCH   2   3
ENDBRANCH   1   2
BRANCH   1  15
ATOM     15  C   UNL     1       1.299  10.056  18.403  0.00  0.00    +0.000 C 
BRANCH  15  16
ATOM     16  O   UNL     1      -0.091  10.126  18.711  0.00  0.00    +0.000 OA
BRANCH  16  17
ATOM     17  C   UNL     1      -0.415  10.414  20.011  0.00  0.00    +0.000 A 
ATOM     18  C   UNL     1      -0.111   9.643  21.140  0.00  0.00    +0.000 A 
ATOM     19  F   UNL     1       0.537   8.472  21.040  0.00  0.00    +0.000 F 
ATOM     20  C   UNL     1      -0.477  10.070  22.414  0.00  0.00    +0.000 A 
ATOM     21  F   UNL     1      -0.168   9.319  23.482  0.00  0.00    +0.000 F 
ATOM     22  C   UNL     1      -1.154  11.267  22.583  0.00  0.00    +0.000 A 
ATOM     23  F   UNL     1      -1.497  11.678  23.812  0.00  0.00    +0.000 F 
ATOM     24  C   UNL     1      -1.480  12.035  21.476  0.00  0.00    +0.000 A 
ATOM     25  F   UNL     1      -2.144  13.188  21.633  0.00  0.00    +0.000 F 
ATOM     26  C   UNL     1      -1.114  11.611  20.201  0.00  0.00    +0.000 A 
ATOM     27  F   UNL     1      -1.442  12.368  19.144  0.00  0.00    +0.000 F 
ENDBRANCH  16  17
ENDBRANCH  15  16
ENDBRANCH   1  15
TORSDOF 12
ENDMDL
MODEL 4
REMARK VINA RESULT:      -6.7      3.391      7.559
REMARK  Name = 
REMARK  14 active torsions:
REMARK  status: ('A' for Active; 'I' for Inactive)
REMARK    1  A    between atoms: C_1  and  C_2
REMARK    2  A    between atoms: C_2  and  C_3
REMARK    3  A    between atoms: C_3  and  C_5
REMARK    4  A    between atoms: C_5  and  C_6
REMARK    5  A    between atoms: C_5  and  C_24
REMARK    6  A    between atoms: C_6  and  C_7
REMARK    7  A    between atoms: C_7  and  C_8
REMARK    8  A    between atoms: C_8  and  C_9
REMARK    9  A    between atoms: C_9  and  C_10
REMARK   10  A    between atoms: C_10  and  C_11
REMARK   11  A    between atoms: C_11  and  O_12
REMARK   12  A    between atoms: O_12  and  C_13
REMARK   13  A    between atoms: C_24  and  C_26
REMARK   14  A    between atoms: C_26  and  C_27
REMARK                            x       y       z     vdW  Elec       q    Type
REMARK                         _______ _______ _______ _____ _____    ______ ____
ROOT
ATOM      1  C   UNL     1       4.565   6.210  16.935  0.00  0.00    +0.000 C 
ENDROOT
BRANCH   1   2
ATOM      2  C   UNL     1       3.992   7.215  17.941  0.00  0.00    +0.000 C 
BRANCH   2   3
ATOM      3  C   UNL     1       2.529   7.614  17.694  0.00  0.00    +0.000 C 
BRANCH   3   4
ATOM      4  C   UNL     1       2.264   9.061  18.110  0.00  0.00    +0.000 C 
BRANCH   4   5
ATOM      5  C   UNL     1       1.092   9.202  19.087  0.00  0.00    +0.000 C 
BRANCH   5   6
ATOM      6  C   UNL     1       0.829  10.662  19.508  0.00  0.00    +0.000 C 
BRANCH   6   7
ATOM      7  C   UNL     1       0.841  10.843  21.025  0.00  0.00    +0.000 C 
ATOM      8  O   UNL     1       0.711  11.953  21.547  0.00  0.00    +0.000 OA
BRANCH   7  10
ATOM      9  C   UNL     1      -0.413   9.291  22.548  0.00  0.00    +0.000 C 
ATOM     10  C   UNL     1       0.916   9.584  21.873  0.00  0.00    +0.000 C 
ENDBRANCH   7  10
ENDBRANCH   6   7
BRANCH   6  11
ATOM     11  C   UNL     1      -0.430  11.201  18.843  0.00  0.00    +0.000 C 
ATOM     12  O   UNL     1      -0.520  12.376  18.491  0.00  0.00    +0.000 OA
BRANCH  11  13
ATOM     13  C   UNL     1      -1.553  10.209  18.586  0.00  0.00    +0.000 C 
ATOM     14  C   UNL     1      -2.034  10.240  17.145  0.00  0.00    +0.000 C 
ENDBRANCH  11  13
ENDBRANCH   6  11
ENDBRANCH   5   6
ENDBRANCH   4   5
ENDBRANCH   3   4
ENDBRANCH   2   3
ENDBRANCH   1   2
BRANCH   1  15
ATOM     15  C   UNL     1       5.006   4.914  17.608  0.00  0.00    +0.000 C 
BRANCH  15  16
ATOM     16  O   UNL     1       3.994   3.926  17.434  0.00  0.00    +0.000 OA
BRANCH  16  17
ATOM     17  C   UNL     1       3.198   3.668  18.521  0.00  0.00    +0.000 A 
ATOM     18  C   UNL     1       1.845   3.997  18.665  0.00  0.00    +0.000 A 
ATOM     19  F   UNL     1       1.175   4.659  17.708  0.00  0.00    +0.000 F 
ATOM     20  C   UNL     1       1.145   3.648  19.817  0.00  0.00    +0.000 A 
ATOM     21  F   UNL     1      -0.153   3.967  19.930  0.00  0.00    +0.000 F 
ATOM     22  C   UNL     1       1.783   2.971  20.844  0.00  0.00    +0.000 A 
ATOM     23  F   UNL     1       1.103   2.629  21.948  0.00  0.00    +0.000 F 
ATOM     24  C   UNL     1       3.127   2.651  20.728  0.00  0.00    +0.000 A 
ATOM     25  F   UNL     1       3.750   2.006  21.723  0.00  0.00    +0.000 F 
ATOM     26  C   UNL     1       3.828   2.998  19.576  0.00  0.00    +0.000 A 
ATOM     27  F   UNL     1       5.129   2.683  19.486  0.00  0.00    +0.000 F 
ENDBRANCH  16  17
ENDBRANCH  15  16
ENDBRANCH   1  15
TORSDOF 12
ENDMDL
MODEL 5
REMARK VINA RESULT:      -6.6      4.701      7.203
REMARK  Name = 
REMARK  14 active torsions:
REMARK  status: ('A' for Active; 'I' for Inactive)
REMARK    1  A    between atoms: C_1  and  C_2
REMARK    2  A    between atoms: C_2  and  C_3
REMARK    3  A    between atoms: C_3  and  C_5
REMARK    4  A    between atoms: C_5  and  C_6
REMARK    5  A    between atoms: C_5  and  C_24
REMARK    6  A    between atoms: C_6  and  C_7
REMARK    7  A    between atoms: C_7  and  C_8
REMARK    8  A    between atoms: C_8  and  C_9
REMARK    9  A    between atoms: C_9  and  C_10
REMARK   10  A    between atoms: C_10  and  C_11
REMARK   11  A    between atoms: C_11  and  O_12
REMARK   12  A    between atoms: O_12  and  C_13
REMARK   13  A    between atoms: C_24  and  C_26
REMARK   14  A    between atoms: C_26  and  C_27
REMARK                            x       y       z     vdW  Elec       q    Type
REMARK                         _______ _______ _______ _____ _____    ______ ____
ROOT
ATOM      1  C   UNL     1       5.819   6.962  16.708  0.00  0.00    +0.000 C 
ENDROOT
BRANCH   1   2
ATOM      2  C   UNL     1       7.222   6.522  17.144  0.00  0.00    +0.000 C 
BRANCH   2   3
ATOM      3  C   UNL     1       7.873   7.412  18.215  0.00  0.00    +0.000 C 
BRANCH   3   4
ATOM      4  C   UNL     1       7.847   8.886  17.809  0.00  0.00    +0.000 C 
BRANCH   4   5
ATOM      5  C   UNL     1       9.116   9.644  18.215  0.00  0.00    +0.000 C 
BRANCH   5   6
ATOM      6  C   UNL     1       8.823  11.033  18.816  0.00  0.00    +0.000 C 
BRANCH   6   7
ATOM      7  C   UNL     1       8.862  12.143  17.768  0.00  0.00    +0.000 C 
ATOM      8  O   UNL     1       7.834  12.583  17.248  0.00  0.00    +0.000 OA
BRANCH   7  10
ATOM      9  C   UNL     1      10.239  14.243  17.801  0.00  0.00    +0.000 C 
ATOM     10  C   UNL     1      10.218  12.762  17.463  0.00  0.00    +0.000 C 
ENDBRANCH   7  10
ENDBRANCH   6   7
BRANCH   6  11
ATOM     11  C   UNL     1       9.715  11.304  20.019  0.00  0.00    +0.000 C 
ATOM     12  O   UNL     1      10.917  11.042  20.003  0.00  0.00    +0.000 OA
BRANCH  11  13
ATOM     13  C   UNL     1       9.066  11.960  21.227  0.00  0.00    +0.000 C 
ATOM     14  C   UNL     1       9.493  13.408  21.400  0.00  0.00    +0.000 C 
ENDBRANCH  11  13
ENDBRANCH   6  11
ENDBRANCH   5   6
ENDBRANCH   4   5
ENDBRANCH   3   4
ENDBRANCH   2   3
ENDBRANCH   1   2
BRANCH   1  15
ATOM     15  C   UNL     1       4.752   6.556  17.719  0.00  0.00    +0.000 C 
BRANCH  15  16
ATOM     16  O   UNL     1       4.055   5.411  17.234  0.00  0.00    +0.000 OA
BRANCH  16  17
ATOM     17  C   UNL     1       3.626   4.513  18.176  0.00  0.00    +0.000 A 
ATOM     18  C   UNL     1       4.429   3.709  18.995  0.00  0.00    +0.000 A 
ATOM     19  F   UNL     1       5.768   3.727  18.903  0.00  0.00    +0.000 F 
ATOM     20  C   UNL     1       3.859   2.857  19.936  0.00  0.00    +0.000 A 
ATOM     21  F   UNL     1       4.648   2.102  20.715  0.00  0.00    +0.000 F 
ATOM     22  C   UNL     1       2.482   2.788  20.075  0.00  0.00    +0.000 A 
ATOM     23  F   UNL     1       1.938   1.971  20.989  0.00  0.00    +0.000 F 
ATOM     24  C   UNL     1       1.669   3.563  19.262  0.00  0.00    +0.000 A 
ATOM     25  F   UNL     1       0.337   3.492  19.385  0.00  0.00    +0.000 F 
ATOM     26  C   UNL     1       2.237   4.417  18.321  0.00  0.00    +0.000 A 
ATOM     27  F   UNL     1       1.431   5.155  17.542  0.00  0.00    +0.000 F 
ENDBRANCH  16  17
ENDBRANCH  15  16
ENDBRANCH   1  15
TORSDOF 12
ENDMDL
MODEL 6
REMARK VINA RESULT:      -6.6      7.233      8.963
REMARK  Name = 
REMARK  14 active torsions:
REMARK  status: ('A' for Active; 'I' for Inactive)
REMARK    1  A    between atoms: C_1  and  C_2
REMARK    2  A    between atoms: C_2  and  C_3
REMARK    3  A    between atoms: C_3  and  C_5
REMARK    4  A    between atoms: C_5  and  C_6
REMARK    5  A    between atoms: C_5  and  C_24
REMARK    6  A    between atoms: C_6  and  C_7
REMARK    7  A    between atoms: C_7  and  C_8
REMARK    8  A    between atoms: C_8  and  C_9
REMARK    9  A    between atoms: C_9  and  C_10
REMARK   10  A    between atoms: C_10  and  C_11
REMARK   11  A    between atoms: C_11  and  O_12
REMARK   12  A    between atoms: O_12  and  C_13
REMARK   13  A    between atoms: C_24  and  C_26
REMARK   14  A    between atoms: C_26  and  C_27
REMARK                            x       y       z     vdW  Elec       q    Type
REMARK                         _______ _______ _______ _____ _____    ______ ____
ROOT
ATOM      1  C   UNL     1       9.698  11.257  17.925  0.00  0.00    +0.000 C 
ENDROOT
BRANCH   1   2
ATOM      2  C   UNL     1       8.431  10.398  18.006  0.00  0.00    +0.000 C 
BRANCH   2   3
ATOM      3  C   UNL     1       8.668   8.932  18.402  0.00  0.00    +0.000 C 
BRANCH   3   4
ATOM      4  C   UNL     1       7.733   7.989  17.643  0.00  0.00    +0.000 C 
BRANCH   4   5
ATOM      5  C   UNL     1       7.524   6.649  18.355  0.00  0.00    +0.000 C 
BRANCH   5   6
ATOM      6  C   UNL     1       6.506   5.737  17.639  0.00  0.00    +0.000 C 
BRANCH   6   7
ATOM      7  C   UNL     1       5.443   5.190  18.589  0.00  0.00    +0.000 C 
ATOM      8  O   UNL     1       5.708   4.334  19.437  0.00  0.00    +0.000 OA
BRANCH   7  10
ATOM      9  C   UNL     1       3.062   4.891  17.850  0.00  0.00    +0.000 C 
ATOM     10  C   UNL     1       4.061   5.820  18.521  0.00  0.00    +0.000 C 
ENDBRANCH   7  10
ENDBRANCH   6   7
BRANCH   6  11
ATOM     11  C   UNL     1       7.216   4.656  16.836  0.00  0.00    +0.000 C 
ATOM     12  O   UNL     1       8.248   4.124  17.242  0.00  0.00    +0.000 OA
BRANCH  11  13
ATOM     13  C   UNL     1       6.564   4.225  15.532  0.00  0.00    +0.000 C 
ATOM     14  C   UNL     1       5.706   5.322  14.923  0.00  0.00    +0.000 C 
ENDBRANCH  11  13
ENDBRANCH   6  11
ENDBRANCH   5   6
ENDBRANCH   4   5
ENDBRANCH   3   4
ENDBRANCH   2   3
ENDBRANCH   1   2
BRANCH   1  15
ATOM     15  C   UNL     1      10.167  11.717  19.301  0.00  0.00    +0.000 C 
BRANCH  15  16
ATOM     16  O   UNL     1      11.337  12.519  19.157  0.00  0.00    +0.000 OA
BRANCH  16  17
ATOM     17  C   UNL     1      11.139  13.835  18.831  0.00  0.00    +0.000 A 
ATOM     18  C   UNL     1      11.216  14.403  17.553  0.00  0.00    +0.000 A 
ATOM     19  F   UNL     1      11.538  13.670  16.475  0.00  0.00    +0.000 F 
ATOM     20  C   UNL     1      10.962  15.758  17.358  0.00  0.00    +0.000 A 
ATOM     21  F   UNL     1      11.034  16.278  16.124  0.00  0.00    +0.000 F 
ATOM     22  C   UNL     1      10.631  16.569  18.432  0.00  0.00    +0.000 A 
ATOM     23  F   UNL     1      10.379  17.871  18.238  0.00  0.00    +0.000 F 
ATOM     24  C   UNL     1      10.567  16.029  19.708  0.00  0.00    +0.000 A 
ATOM     25  F   UNL     1      10.258  16.811  20.751  0.00  0.00    +0.000 F 
ATOM     26  C   UNL     1      10.820  14.674  19.904  0.00  0.00    +0.000 A 
ATOM     27  F   UNL     1      10.755  14.174  21.147  0.00  0.00    +0.000 F 
ENDBRANCH  16  17
ENDBRANCH  15  16
ENDBRANCH   1  15
TORSDOF 12
ENDMDL
MODEL 7
REMARK VINA RESULT:      -6.6      3.387      5.584
REMARK  Name = 
REMARK  14 active torsions:
REMARK  status: ('A' for Active; 'I' for Inactive)
REMARK    1  A    between atoms: C_1  and  C_2
REMARK    2  A    between atoms: C_2  and  C_3
REMARK    3  A    between atoms: C_3  and  C_5
REMARK    4  A    between atoms: C_5  and  C_6
REMARK    5  A    between atoms: C_5  and  C_24
REMARK    6  A    between atoms: C_6  and  C_7
REMARK    7  A    between atoms: C_7  and  C_8
REMARK    8  A    between atoms: C_8  and  C_9
REMARK    9  A    between atoms: C_9  and  C_10
REMARK   10  A    between atoms: C_10  and  C_11
REMARK   11  A    between atoms: C_11  and  O_12
REMARK   12  A    between atoms: O_12  and  C_13
REMARK   13  A    between atoms: C_24  and  C_26
REMARK   14  A    between atoms: C_26  and  C_27
REMARK                            x       y       z     vdW  Elec       q    Type
REMARK                         _______ _______ _______ _____ _____    ______ ____
ROOT
ATOM      1  C   UNL     1       1.440   8.947  19.702  0.00  0.00    +0.000 C 
ENDROOT
BRANCH   1   2
ATOM      2  C   UNL     1       1.621   7.583  20.377  0.00  0.00    +0.000 C 
BRANCH   2   3
ATOM      3  C   UNL     1       2.574   6.623  19.648  0.00  0.00    +0.000 C 
BRANCH   3   4
ATOM      4  C   UNL     1       2.072   6.296  18.241  0.00  0.00    +0.000 C 
BRANCH   4   5
ATOM      5  C   UNL     1       2.476   4.895  17.769  0.00  0.00    +0.000 C 
BRANCH   5   6
ATOM      6  C   UNL     1       3.294   4.117  18.819  0.00  0.00    +0.000 C 
BRANCH   6   7
ATOM      7  C   UNL     1       4.774   4.022  18.452  0.00  0.00    +0.000 C 
ATOM      8  O   UNL     1       5.648   3.873  19.310  0.00  0.00    +0.000 OA
BRANCH   7  10
ATOM      9  C   UNL     1       5.845   5.290  16.567  0.00  0.00    +0.000 C 
ATOM     10  C   UNL     1       5.123   4.015  16.972  0.00  0.00    +0.000 C 
ENDBRANCH   7  10
ENDBRANCH   6   7
BRANCH   6  11
ATOM     11  C   UNL     1       2.656   2.768  19.115  0.00  0.00    +0.000 C 
ATOM     12  O   UNL     1       3.220   1.711  18.832  0.00  0.00    +0.000 OA
BRANCH  11  13
ATOM     13  C   UNL     1       1.311   2.781  19.823  0.00  0.00    +0.000 C 
ATOM     14  C   UNL     1       1.395   3.387  21.214  0.00  0.00    +0.000 C 
ENDBRANCH  11  13
ENDBRANCH   6  11
ENDBRANCH   5   6
ENDBRANCH   4   5
ENDBRANCH   3   4
ENDBRANCH   2   3
ENDBRANCH   1   2
BRANCH   1  15
ATOM     15  C   UNL     1       0.153   9.637  20.144  0.00  0.00    +0.000 C 
BRANCH  15  16
ATOM     16  O   UNL     1      -0.084  10.769  19.311  0.00  0.00    +0.000 OA
BRANCH  16  17
ATOM     17  C   UNL     1      -1.331  10.864  18.751  0.00  0.00    +0.000 A 
ATOM     18  C   UNL     1      -2.412  11.614  19.233  0.00  0.00    +0.000 A 
ATOM     19  F   UNL     1      -2.324  12.324  20.370  0.00  0.00    +0.000 F 
ATOM     20  C   UNL     1      -3.621  11.645  18.545  0.00  0.00    +0.000 A 
ATOM     21  F   UNL     1      -4.640  12.377  19.022  0.00  0.00    +0.000 F 
ATOM     22  C   UNL     1      -3.777  10.928  17.370  0.00  0.00    +0.000 A 
ATOM     23  F   UNL     1      -4.941  10.968  16.707  0.00  0.00    +0.000 F 
ATOM     24  C   UNL     1      -2.725  10.166  16.885  0.00  0.00    +0.000 A 
ATOM     25  F   UNL     1      -2.873   9.462  15.754  0.00  0.00    +0.000 F 
ATOM     26  C   UNL     1      -1.513  10.134  17.571  0.00  0.00    +0.000 A 
ATOM     27  F   UNL     1      -0.510   9.388  17.086  0.00  0.00    +0.000 F 
ENDBRANCH  16  17
ENDBRANCH  15  16
ENDBRANCH   1  15
TORSDOF 12
ENDMDL
MODEL 8
REMARK VINA RESULT:      -6.6      1.548      3.242
REMARK  Name = 
REMARK  14 active torsions:
REMARK  status: ('A' for Active; 'I' for Inactive)
REMARK    1  A    between atoms: C_1  and  C_2
REMARK    2  A    between atoms: C_2  and  C_3
REMARK    3  A    between atoms: C_3  and  C_5
REMARK    4  A    between atoms: C_5  and  C_6
REMARK    5  A    between atoms: C_5  and  C_24
REMARK    6  A    between atoms: C_6  and  C_7
REMARK    7  A    between atoms: C_7  and  C_8
REMARK    8  A    between atoms: C_8  and  C_9
REMARK    9  A    between atoms: C_9  and  C_10
REMARK   10  A    between atoms: C_10  and  C_11
REMARK   11  A    between atoms: C_11  and  O_12
REMARK   12  A    between atoms: O_12  and  C_13
REMARK   13  A    between atoms: C_24  and  C_26
REMARK   14  A    between atoms: C_26  and  C_27
REMARK                            x       y       z     vdW  Elec       q    Type
REMARK                         _______ _______ _______ _____ _____    ______ ____
ROOT
ATOM      1  C   UNL     1       1.705   5.369  19.853  0.00  0.00    +0.000 C 
ENDROOT
BRANCH   1   2
ATOM      2  C   UNL     1       3.093   4.765  20.097  0.00  0.00    +0.000 C 
BRANCH   2   3
ATOM      3  C   UNL     1       4.235   5.434  19.316  0.00  0.00    +0.000 C 
BRANCH   3   4
ATOM      4  C   UNL     1       5.016   4.416  18.484  0.00  0.00    +0.000 C 
BRANCH   4   5
ATOM      5  C   UNL     1       5.008   4.732  16.984  0.00  0.00    +0.000 C 
BRANCH   5   6
ATOM      6  C   UNL     1       6.289   5.448  16.511  0.00  0.00    +0.000 C 
BRANCH   6   7
ATOM      7  C   UNL     1       6.617   5.151  15.049  0.00  0.00    +0.000 C 
ATOM      8  O   UNL     1       7.699   5.468  14.549  0.00  0.00    +0.000 OA
BRANCH   7  10
ATOM      9  C   UNL     1       6.259   3.532  13.164  0.00  0.00    +0.000 C 
ATOM     10  C   UNL     1       5.594   4.353  14.256  0.00  0.00    +0.000 C 
ENDBRANCH   7  10
ENDBRANCH   6   7
BRANCH   6  11
ATOM     11  C   UNL     1       7.447   5.175  17.460  0.00  0.00    +0.000 C 
ATOM     12  O   UNL     1       8.135   4.160  17.363  0.00  0.00    +0.000 OA
BRANCH  11  13
ATOM     13  C   UNL     1       7.749   6.238  18.505  0.00  0.00    +0.000 C 
ATOM     14  C   UNL     1       7.898   7.622  17.896  0.00  0.00    +0.000 C 
ENDBRANCH  11  13
ENDBRANCH   6  11
ENDBRANCH   5   6
ENDBRANCH   4   5
ENDBRANCH   3   4
ENDBRANCH   2   3
ENDBRANCH   1   2
BRANCH   1  15
ATOM     15  C   UNL     1       1.378   6.472  20.854  0.00  0.00    +0.000 C 
BRANCH  15  16
ATOM     16  O   UNL     1       2.033   7.675  20.459  0.00  0.00    +0.000 OA
BRANCH  16  17
ATOM     17  C   UNL     1       1.292   8.826  20.531  0.00  0.00    +0.000 A 
ATOM     18  C   UNL     1       0.823   9.449  21.695  0.00  0.00    +0.000 A 
ATOM     19  F   UNL     1       1.047   8.928  22.911  0.00  0.00    +0.000 F 
ATOM     20  C   UNL     1       0.102  10.638  21.626  0.00  0.00    +0.000 A 
ATOM     21  F   UNL     1      -0.330  11.221  22.754  0.00  0.00    +0.000 F 
ATOM     22  C   UNL     1      -0.168  11.222  20.399  0.00  0.00    +0.000 A 
ATOM     23  F   UNL     1      -0.855  12.372  20.338  0.00  0.00    +0.000 F 
ATOM     24  C   UNL     1       0.273  10.612  19.234  0.00  0.00    +0.000 A 
ATOM     25  F   UNL     1       0.006  11.168  18.044  0.00  0.00    +0.000 F 
ATOM     26  C   UNL     1       0.995   9.424  19.301  0.00  0.00    +0.000 A 
ATOM     27  F   UNL     1       1.408   8.848  18.162  0.00  0.00    +0.000 F 
ENDBRANCH  16  17
ENDBRANCH  15  16
ENDBRANCH   1  15
TORSDOF 12
ENDMDL
MODEL 9
REMARK VINA RESULT:      -6.6      4.730      7.238
REMARK  Name = 
REMARK  14 active torsions:
REMARK  status: ('A' for Active; 'I' for Inactive)
REMARK    1  A    between atoms: C_1  and  C_2
REMARK    2  A    between atoms: C_2  and  C_3
REMARK    3  A    between atoms: C_3  and  C_5
REMARK    4  A    between atoms: C_5  and  C_6
REMARK    5  A    between atoms: C_5  and  C_24
REMARK    6  A    between atoms: C_6  and  C_7
REMARK    7  A    between atoms: C_7  and  C_8
REMARK    8  A    between atoms: C_8  and  C_9
REMARK    9  A    between atoms: C_9  and  C_10
REMARK   10  A    between atoms: C_10  and  C_11
REMARK   11  A    between atoms: C_11  and  O_12
REMARK   12  A    between atoms: O_12  and  C_13
REMARK   13  A    between atoms: C_24  and  C_26
REMARK   14  A    between atoms: C_26  and  C_27
REMARK                            x       y       z     vdW  Elec       q    Type
REMARK                         _______ _______ _______ _____ _____    ______ ____
ROOT
ATOM      1  C   UNL     1       7.380   5.905  18.439  0.00  0.00    +0.000 C 
ENDROOT
BRANCH   1   2
ATOM      2  C   UNL     1       7.069   6.920  17.332  0.00  0.00    +0.000 C 
BRANCH   2   3
ATOM      3  C   UNL     1       7.962   8.170  17.333  0.00  0.00    +0.000 C 
BRANCH   3   4
ATOM      4  C   UNL     1       8.337   8.590  18.754  0.00  0.00    +0.000 C 
BRANCH   4   5
ATOM      5  C   UNL     1       9.418   9.676  18.795  0.00  0.00    +0.000 C 
BRANCH   5   6
ATOM      6  C   UNL     1       8.842  11.094  18.981  0.00  0.00    +0.000 C 
BRANCH   6   7
ATOM      7  C   UNL     1       9.255  12.044  17.858  0.00  0.00    +0.000 C 
ATOM      8  O   UNL     1       8.442  12.787  17.304  0.00  0.00    +0.000 OA
BRANCH   7  10
ATOM      9  C   UNL     1      11.137  13.512  17.079  0.00  0.00    +0.000 C 
ATOM     10  C   UNL     1      10.735  12.113  17.518  0.00  0.00    +0.000 C 
ENDBRANCH   7  10
ENDBRANCH   6   7
BRANCH   6  11
ATOM     11  C   UNL     1       9.153  11.629  20.372  0.00  0.00    +0.000 C 
ATOM     12  O   UNL     1       9.484  10.881  21.291  0.00  0.00    +0.000 OA
BRANCH  11  13
ATOM     13  C   UNL     1       9.087  13.136  20.563  0.00  0.00    +0.000 C 
ATOM     14  C   UNL     1      10.447  13.741  20.870  0.00  0.00    +0.000 C 
ENDBRANCH  11  13
ENDBRANCH   6  11
ENDBRANCH   5   6
ENDBRANCH   4   5
ENDBRANCH   3   4
ENDBRANCH   2   3
ENDBRANCH   1   2
BRANCH   1  15
ATOM     15  C   UNL     1       6.122   5.462  19.179  0.00  0.00    +0.000 C 
BRANCH  15  16
ATOM     16  O   UNL     1       4.976   5.779  18.391  0.00  0.00    +0.000 OA
BRANCH  16  17
ATOM     17  C   UNL     1       3.922   4.908  18.468  0.00  0.00    +0.000 A 
ATOM     18  C   UNL     1       3.744   3.738  17.719  0.00  0.00    +0.000 A 
ATOM     19  F   UNL     1       4.629   3.361  16.783  0.00  0.00    +0.000 F 
ATOM     20  C   UNL     1       2.633   2.924  17.921  0.00  0.00    +0.000 A 
ATOM     21  F   UNL     1       2.488   1.804  17.197  0.00  0.00    +0.000 F 
ATOM     22  C   UNL     1       1.680   3.263  18.868  0.00  0.00    +0.000 A 
ATOM     23  F   UNL     1       0.616   2.471  19.064  0.00  0.00    +0.000 F 
ATOM     24  C   UNL     1       1.829   4.426  19.607  0.00  0.00    +0.000 A 
ATOM     25  F   UNL     1       0.904   4.764  20.517  0.00  0.00    +0.000 F 
ATOM     26  C   UNL     1       2.940   5.241  19.408  0.00  0.00    +0.000 A 
ATOM     27  F   UNL     1       3.061   6.364  20.132  0.00  0.00    +0.000 F 
ENDBRANCH  16  17
ENDBRANCH  15  16
ENDBRANCH   1  15
TORSDOF 12
ENDMDL
