MODEL 1
REMARK VINA RESULT:      -8.3      0.000      0.000
REMARK  Name = 
REMARK  2 active torsions:
REMARK  status: ('A' for Active; 'I' for Inactive)
REMARK    1  A    between atoms: C_5  and  N_6
REMARK    2  A    between atoms: C_10  and  C_11
REMARK                            x       y       z     vdW  Elec       q    Type
REMARK                         _______ _______ _______ _____ _____    ______ ____
ROOT
ATOM      1  N   UNL     1       1.503   9.885  18.522  0.00  0.00    +0.000 N 
ATOM      2  N   UNL     1       2.165   9.431  17.419  0.00  0.00    +0.000 NA
ATOM      3  C   UNL     1       2.575   8.208  17.750  0.00  0.00    +0.000 A 
ATOM      4  C   UNL     1       2.156   7.817  19.033  0.00  0.00    +0.000 A 
ATOM      5  C   UNL     1       2.255   6.682  19.855  0.00  0.00    +0.000 A 
ATOM      6  C   UNL     1       1.602   6.704  21.086  0.00  0.00    +0.000 A 
ATOM      7  C   UNL     1       0.923   7.855  21.455  0.00  0.00    +0.000 A 
ATOM      8  N   UNL     1       0.834   8.989  20.724  0.00  0.00    +0.000 NA
ATOM      9  C   UNL     1       1.463   8.918  19.525  0.00  0.00    +0.000 A 
ENDROOT
BRANCH   5  10
ATOM     10  C   UNL     1       3.025   5.528  19.381  0.00  0.00    +0.000 A 
ATOM     11  C   UNL     1       4.370   5.652  19.309  0.00  0.00    +0.000 A 
ATOM     12  N   UNL     1       5.255   4.677  18.892  0.00  0.00    +0.000 NA
ATOM     13  C   UNL     1       4.744   3.530  18.552  0.00  0.00    +0.000 A 
ATOM     14  N   UNL     1       3.368   3.307  18.608  0.00  0.00    +0.000 N 
ATOM     15  C   UNL     1       2.685   2.154  18.301  0.00  0.00    +0.000 A 
ATOM     16  C   UNL     1       1.339   2.390  18.493  0.00  0.00    +0.000 A 
ATOM     17  C   UNL     1       1.201   3.734  18.926  0.00  0.00    +0.000 A 
ATOM     18  C   UNL     1       2.469   4.273  19.005  0.00  0.00    +0.000 A 
ENDBRANCH   5  10
BRANCH   1  23
ATOM     19  F   UNL     1      -0.534  15.043  18.592  0.00  0.00    +0.000 F 
ATOM     20  C   UNL     1      -0.039  13.799  18.579  0.00  0.00    +0.000 A 
ATOM     21  C   UNL     1       1.338  13.609  18.637  0.00  0.00    +0.000 A 
ATOM     22  C   UNL     1       1.859  12.312  18.644  0.00  0.00    +0.000 A 
ATOM     23  C   UNL     1       0.995  11.209  18.561  0.00  0.00    +0.000 A 
ATOM     24  C   UNL     1      -0.388  11.427  18.499  0.00  0.00    +0.000 A 
ATOM     25  F   UNL     1      -1.264  10.414  18.493  0.00  0.00    +0.000 F 
ATOM     26  C   UNL     1      -0.908  12.720  18.518  0.00  0.00    +0.000 A 
ENDBRANCH   1  23
TORSDOF 2
ENDMDL
MODEL 2
REMARK VINA RESULT:      -8.2      2.103      3.174
REMARK  Name = 
REMARK  2 active torsions:
REMARK  status: ('A' for Active; 'I' for Inactive)
REMARK    1  A    between atoms: C_5  and  N_6
REMARK    2  A    between atoms: C_10  and  C_11
REMARK                            x       y       z     vdW  Elec       q    Type
REMARK                         _______ _______ _______ _____ _____    ______ ____
ROOT
ATOM      1  N   UNL     1       1.573   8.702  19.152  0.00  0.00    +0.000 N 
ATOM      2  N   UNL     1       2.244   8.991  18.001  0.00  0.00    +0.000 NA
ATOM      3  C   UNL     1       3.009   7.923  17.779  0.00  0.00    +0.000 A 
ATOM      4  C   UNL     1       2.823   6.907  18.732  0.00  0.00    +0.000 A 
ATOM      5  C   UNL     1       3.305   5.609  18.971  0.00  0.00    +0.000 A 
ATOM      6  C   UNL     1       2.774   4.899  20.047  0.00  0.00    +0.000 A 
ATOM      7  C   UNL     1       1.829   5.521  20.849  0.00  0.00    +0.000 A 
ATOM      8  N   UNL     1       1.365   6.781  20.691  0.00  0.00    +0.000 NA
ATOM      9  C   UNL     1       1.889   7.428  19.620  0.00  0.00    +0.000 A 
ENDROOT
BRANCH   5  10
ATOM     10  C   UNL     1       4.329   5.057  18.079  0.00  0.00    +0.000 A 
ATOM     11  C   UNL     1       3.918   4.479  16.927  0.00  0.00    +0.000 A 
ATOM     12  N   UNL     1       4.733   3.910  15.966  0.00  0.00    +0.000 NA
ATOM     13  C   UNL     1       6.013   3.950  16.189  0.00  0.00    +0.000 A 
ATOM     14  N   UNL     1       6.529   4.539  17.344  0.00  0.00    +0.000 N 
ATOM     15  C   UNL     1       7.847   4.674  17.709  0.00  0.00    +0.000 A 
ATOM     16  C   UNL     1       7.890   5.311  18.933  0.00  0.00    +0.000 A 
ATOM     17  C   UNL     1       6.550   5.566  19.325  0.00  0.00    +0.000 A 
ATOM     18  C   UNL     1       5.730   5.096  18.320  0.00  0.00    +0.000 A 
ENDBRANCH   5  10
BRANCH   1  23
ATOM     19  F   UNL     1      -1.760  12.527  21.393  0.00  0.00    +0.000 F 
ATOM     20  C   UNL     1      -0.956  11.600  20.856  0.00  0.00    +0.000 A 
ATOM     21  C   UNL     1       0.093  11.086  21.610  0.00  0.00    +0.000 A 
ATOM     22  C   UNL     1       0.924  10.104  21.062  0.00  0.00    +0.000 A 
ATOM     23  C   UNL     1       0.715   9.665  19.745  0.00  0.00    +0.000 A 
ATOM     24  C   UNL     1      -0.346  10.203  19.005  0.00  0.00    +0.000 A 
ATOM     25  F   UNL     1      -0.639   9.770  17.772  0.00  0.00    +0.000 F 
ATOM     26  C   UNL     1      -1.189  11.163  19.561  0.00  0.00    +0.000 A 
ENDBRANCH   1  23
TORSDOF 2
ENDMDL
MODEL 3
REMARK VINA RESULT:      -8.0      0.928      1.324
REMARK  Name = 
REMARK  2 active torsions:
REMARK  status: ('A' for Active; 'I' for Inactive)
REMARK    1  A    between atoms: C_5  and  N_6
REMARK    2  A    between atoms: C_10  and  C_11
REMARK                            x       y       z     vdW  Elec       q    Type
REMARK                         _______ _______ _______ _____ _____    ______ ____
ROOT
ATOM      1  N   UNL     1       1.420   9.934  18.499  0.00  0.00    +0.000 N 
ATOM      2  N   UNL     1       2.079   9.495  17.389  0.00  0.00    +0.000 NA
ATOM      3  C   UNL     1       2.519   8.281  17.715  0.00  0.00    +0.000 A 
ATOM      4  C   UNL     1       2.125   7.882  19.004  0.00  0.00    +0.000 A 
ATOM      5  C   UNL     1       2.259   6.750  19.824  0.00  0.00    +0.000 A 
ATOM      6  C   UNL     1       1.620   6.758  21.064  0.00  0.00    +0.000 A 
ATOM      7  C   UNL     1       0.920   7.894  21.440  0.00  0.00    +0.000 A 
ATOM      8  N   UNL     1       0.798   9.025  20.710  0.00  0.00    +0.000 NA
ATOM      9  C   UNL     1       1.413   8.967  19.503  0.00  0.00    +0.000 A 
ENDROOT
BRANCH   5  10
ATOM     10  C   UNL     1       3.048   5.613  19.342  0.00  0.00    +0.000 A 
ATOM     11  C   UNL     1       4.390   5.763  19.263  0.00  0.00    +0.000 A 
ATOM     12  N   UNL     1       5.292   4.807  18.838  0.00  0.00    +0.000 NA
ATOM     13  C   UNL     1       4.801   3.652  18.496  0.00  0.00    +0.000 A 
ATOM     14  N   UNL     1       3.430   3.402  18.558  0.00  0.00    +0.000 N 
ATOM     15  C   UNL     1       2.768   2.237  18.250  0.00  0.00    +0.000 A 
ATOM     16  C   UNL     1       1.418   2.446  18.451  0.00  0.00    +0.000 A 
ATOM     17  C   UNL     1       1.257   3.786  18.890  0.00  0.00    +0.000 A 
ATOM     18  C   UNL     1       2.515   4.349  18.964  0.00  0.00    +0.000 A 
ENDBRANCH   5  10
BRANCH   1  23
ATOM     19  F   UNL     1      -0.617  15.086  18.749  0.00  0.00    +0.000 F 
ATOM     20  C   UNL     1      -0.129  13.841  18.685  0.00  0.00    +0.000 A 
ATOM     21  C   UNL     1      -1.000  12.760  18.766  0.00  0.00    +0.000 A 
ATOM     22  C   UNL     1      -0.498  11.457  18.680  0.00  0.00    +0.000 A 
ATOM     23  C   UNL     1       0.883  11.247  18.544  0.00  0.00    +0.000 A 
ATOM     24  C   UNL     1       1.740  12.353  18.470  0.00  0.00    +0.000 A 
ATOM     25  F   UNL     1       3.057  12.216  18.266  0.00  0.00    +0.000 F 
ATOM     26  C   UNL     1       1.236  13.651  18.530  0.00  0.00    +0.000 A 
ENDBRANCH   1  23
TORSDOF 2
ENDMDL
MODEL 4
REMARK VINA RESULT:      -8.0      1.477      2.286
REMARK  Name = 
REMARK  2 active torsions:
REMARK  status: ('A' for Active; 'I' for Inactive)
REMARK    1  A    between atoms: C_5  and  N_6
REMARK    2  A    between atoms: C_10  and  C_11
REMARK                            x       y       z     vdW  Elec       q    Type
REMARK                         _______ _______ _______ _____ _____    ______ ____
ROOT
ATOM      1  N   UNL     1       0.943   9.022  20.289  0.00  0.00    +0.000 N 
ATOM      2  N   UNL     1       0.864   8.073  21.265  0.00  0.00    +0.000 NA
ATOM      3  C   UNL     1       1.570   7.046  20.796  0.00  0.00    +0.000 A 
ATOM      4  C   UNL     1       2.159   7.310  19.548  0.00  0.00    +0.000 A 
ATOM      5  C   UNL     1       2.999   6.647  18.637  0.00  0.00    +0.000 A 
ATOM      6  C   UNL     1       3.412   7.340  17.500  0.00  0.00    +0.000 A 
ATOM      7  C   UNL     1       2.943   8.630  17.305  0.00  0.00    +0.000 A 
ATOM      8  N   UNL     1       2.100   9.297  18.124  0.00  0.00    +0.000 NA
ATOM      9  C   UNL     1       1.741   8.597  19.229  0.00  0.00    +0.000 A 
ENDROOT
BRANCH   5  10
ATOM     10  C   UNL     1       3.412   5.270  18.925  0.00  0.00    +0.000 A 
ATOM     11  C   UNL     1       4.698   5.059  19.286  0.00  0.00    +0.000 A 
ATOM     12  N   UNL     1       5.265   3.837  19.597  0.00  0.00    +0.000 NA
ATOM     13  C   UNL     1       4.481   2.801  19.550  0.00  0.00    +0.000 A 
ATOM     14  N   UNL     1       3.136   2.926  19.201  0.00  0.00    +0.000 N 
ATOM     15  C   UNL     1       2.187   1.935  19.125  0.00  0.00    +0.000 A 
ATOM     16  C   UNL     1       0.996   2.513  18.734  0.00  0.00    +0.000 A 
ATOM     17  C   UNL     1       1.234   3.901  18.561  0.00  0.00    +0.000 A 
ATOM     18  C   UNL     1       2.559   4.133  18.871  0.00  0.00    +0.000 A 
ENDBRANCH   5  10
BRANCH   1  23
ATOM     19  F   UNL     1      -1.843  13.802  20.672  0.00  0.00    +0.000 F 
ATOM     20  C   UNL     1      -1.171  12.648  20.585  0.00  0.00    +0.000 A 
ATOM     21  C   UNL     1      -0.092  12.419  21.432  0.00  0.00    +0.000 A 
ATOM     22  C   UNL     1       0.601  11.207  21.359  0.00  0.00    +0.000 A 
ATOM     23  C   UNL     1       0.226  10.241  20.412  0.00  0.00    +0.000 A 
ATOM     24  C   UNL     1      -0.861  10.498  19.567  0.00  0.00    +0.000 A 
ATOM     25  F   UNL     1      -1.311   9.586  18.695  0.00  0.00    +0.000 F 
ATOM     26  C   UNL     1      -1.568  11.696  19.658  0.00  0.00    +0.000 A 
ENDBRANCH   1  23
TORSDOF 2
ENDMDL
MODEL 5
REMARK VINA RESULT:      -8.0      2.343      3.117
REMARK  Name = 
REMARK  2 active torsions:
REMARK  status: ('A' for Active; 'I' for Inactive)
REMARK    1  A    between atoms: C_5  and  N_6
REMARK    2  A    between atoms: C_10  and  C_11
REMARK                            x       y       z     vdW  Elec       q    Type
REMARK                         _______ _______ _______ _____ _____    ______ ____
ROOT
ATOM      1  N   UNL     1       1.800   8.579  18.535  0.00  0.00    +0.000 N 
ATOM      2  N   UNL     1       2.692   8.907  17.557  0.00  0.00    +0.000 NA
ATOM      3  C   UNL     1       3.623   7.957  17.616  0.00  0.00    +0.000 A 
ATOM      4  C   UNL     1       3.344   6.974  18.581  0.00  0.00    +0.000 A 
ATOM      5  C   UNL     1       3.922   5.778  19.038  0.00  0.00    +0.000 A 
ATOM      6  C   UNL     1       3.241   5.051  20.014  0.00  0.00    +0.000 A 
ATOM      7  C   UNL     1       2.052   5.564  20.511  0.00  0.00    +0.000 A 
ATOM      8  N   UNL     1       1.477   6.729  20.140  0.00  0.00    +0.000 NA
ATOM      9  C   UNL     1       2.158   7.393  19.173  0.00  0.00    +0.000 A 
ENDROOT
BRANCH   5  10
ATOM     10  C   UNL     1       5.199   5.342  18.466  0.00  0.00    +0.000 A 
ATOM     11  C   UNL     1       6.286   5.347  19.272  0.00  0.00    +0.000 A 
ATOM     12  N   UNL     1       7.566   4.969  18.912  0.00  0.00    +0.000 NA
ATOM     13  C   UNL     1       7.732   4.558  17.690  0.00  0.00    +0.000 A 
ATOM     14  N   UNL     1       6.664   4.505  16.793  0.00  0.00    +0.000 N 
ATOM     15  C   UNL     1       6.678   4.080  15.486  0.00  0.00    +0.000 A 
ATOM     16  C   UNL     1       5.400   4.209  14.980  0.00  0.00    +0.000 A 
ATOM     17  C   UNL     1       4.585   4.736  16.016  0.00  0.00    +0.000 A 
ATOM     18  C   UNL     1       5.385   4.894  17.129  0.00  0.00    +0.000 A 
ENDBRANCH   5  10
BRANCH   1  23
ATOM     19  F   UNL     1      -2.516  11.850  19.735  0.00  0.00    +0.000 F 
ATOM     20  C   UNL     1      -1.472  11.063  19.440  0.00  0.00    +0.000 A 
ATOM     21  C   UNL     1      -1.367  10.515  18.167  0.00  0.00    +0.000 A 
ATOM     22  C   UNL     1      -0.269   9.709  17.848  0.00  0.00    +0.000 A 
ATOM     23  C   UNL     1       0.702   9.431  18.822  0.00  0.00    +0.000 A 
ATOM     24  C   UNL     1       0.569   9.991  20.100  0.00  0.00    +0.000 A 
ATOM     25  F   UNL     1       1.502   9.822  21.047  0.00  0.00    +0.000 F 
ATOM     26  C   UNL     1      -0.511  10.815  20.409  0.00  0.00    +0.000 A 
ENDBRANCH   1  23
TORSDOF 2
ENDMDL
MODEL 6
REMARK VINA RESULT:      -8.0      2.275      3.416
REMARK  Name = 
REMARK  2 active torsions:
REMARK  status: ('A' for Active; 'I' for Inactive)
REMARK    1  A    between atoms: C_5  and  N_6
REMARK    2  A    between atoms: C_10  and  C_11
REMARK                            x       y       z     vdW  Elec       q    Type
REMARK                         _______ _______ _______ _____ _____    ______ ____
ROOT
ATOM      1  N   UNL     1       1.560   8.683  19.234  0.00  0.00    +0.000 N 
ATOM      2  N   UNL     1       2.246   8.999  18.100  0.00  0.00    +0.000 NA
ATOM      3  C   UNL     1       3.006   7.933  17.856  0.00  0.00    +0.000 A 
ATOM      4  C   UNL     1       2.803   6.892  18.778  0.00  0.00    +0.000 A 
ATOM      5  C   UNL     1       3.275   5.585  18.986  0.00  0.00    +0.000 A 
ATOM      6  C   UNL     1       2.728   4.849  20.036  0.00  0.00    +0.000 A 
ATOM      7  C   UNL     1       1.778   5.455  20.845  0.00  0.00    +0.000 A 
ATOM      8  N   UNL     1       1.323   6.722  20.717  0.00  0.00    +0.000 NA
ATOM      9  C   UNL     1       1.863   7.395  19.671  0.00  0.00    +0.000 A 
ENDROOT
BRANCH   5  10
ATOM     10  C   UNL     1       4.305   5.051  18.090  0.00  0.00    +0.000 A 
ATOM     11  C   UNL     1       3.901   4.480  16.933  0.00  0.00    +0.000 A 
ATOM     12  N   UNL     1       4.722   3.929  15.968  0.00  0.00    +0.000 NA
ATOM     13  C   UNL     1       6.002   3.979  16.193  0.00  0.00    +0.000 A 
ATOM     14  N   UNL     1       6.511   4.562  17.354  0.00  0.00    +0.000 N 
ATOM     15  C   UNL     1       7.827   4.706  17.721  0.00  0.00    +0.000 A 
ATOM     16  C   UNL     1       7.862   5.332  18.951  0.00  0.00    +0.000 A 
ATOM     17  C   UNL     1       6.520   5.571  19.344  0.00  0.00    +0.000 A 
ATOM     18  C   UNL     1       5.705   5.101  18.334  0.00  0.00    +0.000 A 
ENDBRANCH   5  10
BRANCH   1  23
ATOM     19  F   UNL     1      -1.816  12.336  21.689  0.00  0.00    +0.000 F 
ATOM     20  C   UNL     1      -1.000  11.458  21.092  0.00  0.00    +0.000 A 
ATOM     21  C   UNL     1      -1.176  11.167  19.744  0.00  0.00    +0.000 A 
ATOM     22  C   UNL     1      -0.315  10.265  19.111  0.00  0.00    +0.000 A 
ATOM     23  C   UNL     1       0.702   9.635  19.845  0.00  0.00    +0.000 A 
ATOM     24  C   UNL     1       0.855   9.941  21.203  0.00  0.00    +0.000 A 
ATOM     25  F   UNL     1       1.852   9.428  21.936  0.00  0.00    +0.000 F 
ATOM     26  C   UNL     1       0.012  10.859  21.827  0.00  0.00    +0.000 A 
ENDBRANCH   1  23
TORSDOF 2
ENDMDL
MODEL 7
REMARK VINA RESULT:      -8.0      2.010      2.883
REMARK  Name = 
REMARK  2 active torsions:
REMARK  status: ('A' for Active; 'I' for Inactive)
REMARK    1  A    between atoms: C_5  and  N_6
REMARK    2  A    between atoms: C_10  and  C_11
REMARK                            x       y       z     vdW  Elec       q    Type
REMARK                         _______ _______ _______ _____ _____    ______ ____
ROOT
ATOM      1  N   UNL     1       0.691   8.912  20.781  0.00  0.00    +0.000 N 
ATOM      2  N   UNL     1       0.782   7.883  21.670  0.00  0.00    +0.000 NA
ATOM      3  C   UNL     1       1.538   6.973  21.058  0.00  0.00    +0.000 A 
ATOM      4  C   UNL     1       1.993   7.396  19.798  0.00  0.00    +0.000 A 
ATOM      5  C   UNL     1       2.812   6.897  18.771  0.00  0.00    +0.000 A 
ATOM      6  C   UNL     1       3.062   7.719  17.673  0.00  0.00    +0.000 A 
ATOM      7  C   UNL     1       2.461   8.969  17.631  0.00  0.00    +0.000 A 
ATOM      8  N   UNL     1       1.632   9.479  18.568  0.00  0.00    +0.000 NA
ATOM      9  C   UNL     1       1.433   8.657  19.629  0.00  0.00    +0.000 A 
ENDROOT
BRANCH   5  10
ATOM     10  C   UNL     1       3.372   5.549  18.901  0.00  0.00    +0.000 A 
ATOM     11  C   UNL     1       4.689   5.438  19.188  0.00  0.00    +0.000 A 
ATOM     12  N   UNL     1       5.389   4.257  19.351  0.00  0.00    +0.000 NA
ATOM     13  C   UNL     1       4.710   3.155  19.230  0.00  0.00    +0.000 A 
ATOM     14  N   UNL     1       3.344   3.173  18.948  0.00  0.00    +0.000 N 
ATOM     15  C   UNL     1       2.494   2.102  18.810  0.00  0.00    +0.000 A 
ATOM     16  C   UNL     1       1.234   2.589  18.526  0.00  0.00    +0.000 A 
ATOM     17  C   UNL     1       1.325   4.004  18.486  0.00  0.00    +0.000 A 
ATOM     18  C   UNL     1       2.634   4.341  18.766  0.00  0.00    +0.000 A 
ENDBRANCH   5  10
BRANCH   1  23
ATOM     19  F   UNL     1      -2.543  13.262  21.960  0.00  0.00    +0.000 F 
ATOM     20  C   UNL     1      -1.759  12.215  21.671  0.00  0.00    +0.000 A 
ATOM     21  C   UNL     1      -1.558  11.855  20.343  0.00  0.00    +0.000 A 
ATOM     22  C   UNL     1      -0.725  10.775  20.035  0.00  0.00    +0.000 A 
ATOM     23  C   UNL     1      -0.123  10.040  21.067  0.00  0.00    +0.000 A 
ATOM     24  C   UNL     1      -0.345  10.419  22.398  0.00  0.00    +0.000 A 
ATOM     25  F   UNL     1       0.262   9.801  23.420  0.00  0.00    +0.000 F 
ATOM     26  C   UNL     1      -1.155  11.511  22.702  0.00  0.00    +0.000 A 
ENDBRANCH   1  23
TORSDOF 2
ENDMDL
MODEL 8
REMARK VINA RESULT:      -7.9      2.818      7.953
REMARK  Name = 
REMARK  2 active torsions:
REMARK  status: ('A' for Active; 'I' for Inactive)
REMARK    1  A    between atoms: C_5  and  N_6
REMARK    2  A    between atoms: C_10  and  C_11
REMARK                            x       y       z     vdW  Elec       q    Type
REMARK                         _______ _______ _______ _____ _____    ______ ____
ROOT
ATOM      1  N   UNL     1       2.560   7.156  18.659  0.00  0.00    +0.000 N 
ATOM      2  N   UNL     1       2.768   7.959  17.577  0.00  0.00    +0.000 NA
ATOM      3  C   UNL     1       2.127   9.090  17.867  0.00  0.00    +0.000 A 
ATOM      4  C   UNL     1       1.537   9.075  19.142  0.00  0.00    +0.000 A 
ATOM      5  C   UNL     1       0.804   9.956  19.955  0.00  0.00    +0.000 A 
ATOM      6  C   UNL     1       0.461   9.533  21.239  0.00  0.00    +0.000 A 
ATOM      7  C   UNL     1       0.825   8.254  21.633  0.00  0.00    +0.000 A 
ATOM      8  N   UNL     1       1.489   7.352  20.877  0.00  0.00    +0.000 NA
ATOM      9  C   UNL     1       1.824   7.811  19.645  0.00  0.00    +0.000 A 
ENDROOT
BRANCH   5  10
ATOM     10  C   UNL     1       0.444  11.275  19.428  0.00  0.00    +0.000 A 
ATOM     11  C   UNL     1      -0.636  11.358  18.618  0.00  0.00    +0.000 A 
ATOM     12  N   UNL     1      -1.127  12.510  18.033  0.00  0.00    +0.000 NA
ATOM     13  C   UNL     1      -0.496  13.615  18.300  0.00  0.00    +0.000 A 
ATOM     14  N   UNL     1       0.621  13.627  19.137  0.00  0.00    +0.000 N 
ATOM     15  C   UNL     1       1.376  14.708  19.524  0.00  0.00    +0.000 A 
ATOM     16  C   UNL     1       2.385  14.252  20.348  0.00  0.00    +0.000 A 
ATOM     17  C   UNL     1       2.239  12.845  20.458  0.00  0.00    +0.000 A 
ATOM     18  C   UNL     1       1.134  12.486  19.715  0.00  0.00    +0.000 A 
ENDBRANCH   5  10
BRANCH   1  23
ATOM     19  F   UNL     1       4.331   1.900  18.719  0.00  0.00    +0.000 F 
ATOM     20  C   UNL     1       3.908   3.171  18.703  0.00  0.00    +0.000 A 
ATOM     21  C   UNL     1       4.671   4.154  19.324  0.00  0.00    +0.000 A 
ATOM     22  C   UNL     1       4.245   5.485  19.293  0.00  0.00    +0.000 A 
ATOM     23  C   UNL     1       3.035   5.819  18.665  0.00  0.00    +0.000 A 
ATOM     24  C   UNL     1       2.282   4.809  18.051  0.00  0.00    +0.000 A 
ATOM     25  F   UNL     1       1.158   5.078  17.373  0.00  0.00    +0.000 F 
ATOM     26  C   UNL     1       2.721   3.486  18.060  0.00  0.00    +0.000 A 
ENDBRANCH   1  23
TORSDOF 2
ENDMDL
MODEL 9
REMARK VINA RESULT:      -7.7      3.282      7.402
REMARK  Name = 
REMARK  2 active torsions:
REMARK  status: ('A' for Active; 'I' for Inactive)
REMARK    1  A    between atoms: C_5  and  N_6
REMARK    2  A    between atoms: C_10  and  C_11
REMARK                            x       y       z     vdW  Elec       q    Type
REMARK                         _______ _______ _______ _____ _____    ______ ____
ROOT
ATOM      1  N   UNL     1       2.957   7.718  17.950  0.00  0.00    +0.000 N 
ATOM      2  N   UNL     1       2.729   8.803  17.157  0.00  0.00    +0.000 NA
ATOM      3  C   UNL     1       1.811   9.513  17.812  0.00  0.00    +0.000 A 
ATOM      4  C   UNL     1       1.459   8.947  19.049  0.00  0.00    +0.000 A 
ATOM      5  C   UNL     1       0.615   9.258  20.128  0.00  0.00    +0.000 A 
ATOM      6  C   UNL     1       0.625   8.411  21.235  0.00  0.00    +0.000 A 
ATOM      7  C   UNL     1       1.435   7.286  21.200  0.00  0.00    +0.000 A 
ATOM      8  N   UNL     1       2.230   6.916  20.171  0.00  0.00    +0.000 NA
ATOM      9  C   UNL     1       2.208   7.779  19.125  0.00  0.00    +0.000 A 
ENDROOT
BRANCH   5  10
ATOM     10  C   UNL     1      -0.225  10.457  20.050  0.00  0.00    +0.000 A 
ATOM     11  C   UNL     1       0.055  11.481  20.888  0.00  0.00    +0.000 A 
ATOM     12  N   UNL     1      -0.621  12.684  20.956  0.00  0.00    +0.000 NA
ATOM     13  C   UNL     1      -1.608  12.847  20.126  0.00  0.00    +0.000 A 
ATOM     14  N   UNL     1      -1.961  11.850  19.216  0.00  0.00    +0.000 N 
ATOM     15  C   UNL     1      -2.959  11.881  18.272  0.00  0.00    +0.000 A 
ATOM     16  C   UNL     1      -2.951  10.675  17.601  0.00  0.00    +0.000 A 
ATOM     17  C   UNL     1      -1.916   9.884  18.162  0.00  0.00    +0.000 A 
ATOM     18  C   UNL     1      -1.309  10.638  19.145  0.00  0.00    +0.000 A 
ENDBRANCH   5  10
BRANCH   1  23
ATOM     19  F   UNL     1       6.351   3.631  16.358  0.00  0.00    +0.000 F 
ATOM     20  C   UNL     1       5.533   4.621  16.737  0.00  0.00    +0.000 A 
ATOM     21  C   UNL     1       6.019   5.922  16.806  0.00  0.00    +0.000 A 
ATOM     22  C   UNL     1       5.164   6.962  17.183  0.00  0.00    +0.000 A 
ATOM     23  C   UNL     1       3.831   6.685  17.521  0.00  0.00    +0.000 A 
ATOM     24  C   UNL     1       3.367   5.365  17.450  0.00  0.00    +0.000 A 
ATOM     25  F   UNL     1       2.087   5.050  17.689  0.00  0.00    +0.000 F 
ATOM     26  C   UNL     1       4.213   4.332  17.049  0.00  0.00    +0.000 A 
ENDBRANCH   1  23
TORSDOF 2
ENDMDL
