MODEL 1
REMARK VINA RESULT:      -8.5      0.000      0.000
REMARK  Name = 
REMARK  6 active torsions:
REMARK  status: ('A' for Active; 'I' for Inactive)
REMARK    1  A    between atoms: C_1  and  C_2
REMARK    2  A    between atoms: C_2  and  N_3
REMARK    3  A    between atoms: N_3  and  C_4
REMARK    4  A    between atoms: C_6  and  N_7
REMARK    5  A    between atoms: N_7  and  S_8
REMARK    6  A    between atoms: S_8  and  C_11
REMARK                            x       y       z     vdW  Elec       q    Type
REMARK                         _______ _______ _______ _____ _____    ______ ____
ROOT
ATOM      1  C   UNL     1       6.859   5.640  17.325  0.00  0.00    +0.000 A 
ATOM      2  C   UNL     1       5.905   4.839  18.001  0.00  0.00    +0.000 A 
ATOM      3  C   UNL     1       5.163   3.776  17.405  0.00  0.00    +0.000 A 
ATOM      4  C   UNL     1       5.237   3.431  16.047  0.00  0.00    +0.000 A 
ATOM      5  C   UNL     1       6.138   4.251  15.379  0.00  0.00    +0.000 A 
ATOM      6  C   UNL     1       6.424   4.224  14.049  0.00  0.00    +0.000 A 
ATOM      7 CL   UNL     1       5.882   3.314  12.729  0.00  0.00    +0.000 Cl
ATOM      8  N   UNL     1       7.349   5.195  13.841  0.00  0.00    +0.000 N 
ATOM      9  N   UNL     1       7.705   5.862  14.963  0.00  0.00    +0.000 NA
ATOM     10  C   UNL     1       6.949   5.314  15.940  0.00  0.00    +0.000 A 
ATOM     11  H   UNL     1       7.778   5.457  12.960  0.00  0.00    +0.000 HD
ENDROOT
BRANCH   1  12
ATOM     12  N   UNL     1       7.601   6.636  17.937  0.00  0.00    +0.000 N 
ATOM     13  H   UNL     1       8.087   6.374  18.791  0.00  0.00    +0.000 HD
BRANCH  12  15
ATOM     14  C   UNL     1       8.469   8.897  18.315  0.00  0.00    +0.000 C 
ATOM     15  C   UNL     1       7.527   8.022  17.518  0.00  0.00    +0.000 C 
ENDBRANCH  12  15
ENDBRANCH   1  12
BRANCH   3  16
ATOM     16  N   UNL     1       4.299   3.020  18.239  0.00  0.00    +0.000 N 
ATOM     17  H   UNL     1       4.629   2.155  18.660  0.00  0.00    +0.000 HD
BRANCH  16  18
ATOM     18  S   UNL     1       2.633   3.180  18.096  0.00  0.00    +0.000 S 
ATOM     19  O   UNL     1       2.373   3.366  16.683  0.00  0.00    +0.000 OA
ATOM     20  O   UNL     1       1.985   2.125  18.846  0.00  0.00    +0.000 OA
BRANCH  18  21
ATOM     21  C   UNL     1       2.264   4.732  18.900  0.00  0.00    +0.000 A 
ATOM     22  C   UNL     1       1.789   4.732  20.219  0.00  0.00    +0.000 A 
ATOM     23  C   UNL     1       1.562   5.946  20.873  0.00  0.00    +0.000 A 
ATOM     24  C   UNL     1       1.818   7.150  20.216  0.00  0.00    +0.000 A 
ATOM     25 CL   UNL     1       1.539   8.642  21.026  0.00  0.00    +0.000 Cl
ATOM     26  C   UNL     1       2.310   7.151  18.909  0.00  0.00    +0.000 A 
ATOM     27  C   UNL     1       2.543   5.941  18.250  0.00  0.00    +0.000 A 
ENDBRANCH  18  21
ENDBRANCH  16  18
ENDBRANCH   3  16
TORSDOF 5
ENDMDL
MODEL 2
REMARK VINA RESULT:      -8.4      0.195      1.006
REMARK  Name = 
REMARK  6 active torsions:
REMARK  status: ('A' for Active; 'I' for Inactive)
REMARK    1  A    between atoms: C_1  and  C_2
REMARK    2  A    between atoms: C_2  and  N_3
REMARK    3  A    between atoms: N_3  and  C_4
REMARK    4  A    between atoms: C_6  and  N_7
REMARK    5  A    between atoms: N_7  and  S_8
REMARK    6  A    between atoms: S_8  and  C_11
REMARK                            x       y       z     vdW  Elec       q    Type
REMARK                         _______ _______ _______ _____ _____    ______ ____
ROOT
ATOM      1  C   UNL     1       6.823   5.622  17.518  0.00  0.00    +0.000 A 
ATOM      2  C   UNL     1       5.873   4.792  18.164  0.00  0.00    +0.000 A 
ATOM      3  C   UNL     1       5.148   3.737  17.534  0.00  0.00    +0.000 A 
ATOM      4  C   UNL     1       5.237   3.428  16.168  0.00  0.00    +0.000 A 
ATOM      5  C   UNL     1       6.134   4.276  15.530  0.00  0.00    +0.000 A 
ATOM      6  C   UNL     1       6.431   4.288  14.202  0.00  0.00    +0.000 A 
ATOM      7 CL   UNL     1       5.911   3.406  12.854  0.00  0.00    +0.000 Cl
ATOM      8  N   UNL     1       7.346   5.274  14.028  0.00  0.00    +0.000 N 
ATOM      9  N   UNL     1       7.685   5.917  15.169  0.00  0.00    +0.000 NA
ATOM     10  C   UNL     1       6.927   5.334  16.125  0.00  0.00    +0.000 A 
ATOM     11  H   UNL     1       7.779   5.565  13.158  0.00  0.00    +0.000 HD
ENDROOT
BRANCH   1  12
ATOM     12  N   UNL     1       7.547   6.610  18.162  0.00  0.00    +0.000 N 
ATOM     13  H   UNL     1       7.870   6.392  19.101  0.00  0.00    +0.000 HD
BRANCH  12  15
ATOM     14  C   UNL     1       8.568   8.816  18.483  0.00  0.00    +0.000 C 
ATOM     15  C   UNL     1       7.663   7.954  17.629  0.00  0.00    +0.000 C 
ENDBRANCH  12  15
ENDBRANCH   1  12
BRANCH   3  16
ATOM     16  N   UNL     1       4.287   2.948  18.341  0.00  0.00    +0.000 N 
ATOM     17  H   UNL     1       4.602   2.045  18.687  0.00  0.00    +0.000 HD
BRANCH  16  18
ATOM     18  S   UNL     1       2.623   3.170  18.267  0.00  0.00    +0.000 S 
ATOM     19  O   UNL     1       2.301   3.283  16.860  0.00  0.00    +0.000 OA
ATOM     20  O   UNL     1       1.973   2.189  19.110  0.00  0.00    +0.000 OA
BRANCH  18  21
ATOM     21  C   UNL     1       2.356   4.780  18.992  0.00  0.00    +0.000 A 
ATOM     22  C   UNL     1       2.504   5.929  18.202  0.00  0.00    +0.000 A 
ATOM     23  C   UNL     1       2.233   7.186  18.749  0.00  0.00    +0.000 A 
ATOM     24  C   UNL     1       1.807   7.292  20.073  0.00  0.00    +0.000 A 
ATOM     25 CL   UNL     1       1.472   8.842  20.741  0.00  0.00    +0.000 Cl
ATOM     26  C   UNL     1       1.641   6.148  20.856  0.00  0.00    +0.000 A 
ATOM     27  C   UNL     1       1.907   4.887  20.314  0.00  0.00    +0.000 A 
ENDBRANCH  18  21
ENDBRANCH  16  18
ENDBRANCH   3  16
TORSDOF 5
ENDMDL
MODEL 3
REMARK VINA RESULT:      -8.0      1.898      3.351
REMARK  Name = 
REMARK  6 active torsions:
REMARK  status: ('A' for Active; 'I' for Inactive)
REMARK    1  A    between atoms: C_1  and  C_2
REMARK    2  A    between atoms: C_2  and  N_3
REMARK    3  A    between atoms: N_3  and  C_4
REMARK    4  A    between atoms: C_6  and  N_7
REMARK    5  A    between atoms: N_7  and  S_8
REMARK    6  A    between atoms: S_8  and  C_11
REMARK                            x       y       z     vdW  Elec       q    Type
REMARK                         _______ _______ _______ _____ _____    ______ ____
ROOT
ATOM      1  C   UNL     1       5.503   4.365  15.421  0.00  0.00    +0.000 A 
ATOM      2  C   UNL     1       4.788   3.478  16.263  0.00  0.00    +0.000 A 
ATOM      3  C   UNL     1       4.876   3.456  17.687  0.00  0.00    +0.000 A 
ATOM      4  C   UNL     1       5.738   4.273  18.435  0.00  0.00    +0.000 A 
ATOM      5  C   UNL     1       6.472   5.107  17.600  0.00  0.00    +0.000 A 
ATOM      6  C   UNL     1       7.430   5.995  17.982  0.00  0.00    +0.000 A 
ATOM      7 CL   UNL     1       8.119   6.445  19.461  0.00  0.00    +0.000 Cl
ATOM      8  N   UNL     1       7.876   6.583  16.844  0.00  0.00    +0.000 N 
ATOM      9  N   UNL     1       7.261   6.144  15.722  0.00  0.00    +0.000 NA
ATOM     10  C   UNL     1       6.394   5.202  16.155  0.00  0.00    +0.000 A 
ATOM     11  H   UNL     1       8.600   7.289  16.759  0.00  0.00    +0.000 HD
ENDROOT
BRANCH   1  12
ATOM     12  N   UNL     1       5.367   4.397  14.044  0.00  0.00    +0.000 N 
ATOM     13  H   UNL     1       4.571   4.918  13.683  0.00  0.00    +0.000 HD
BRANCH  12  15
ATOM     14  C   UNL     1       5.390   3.108  11.959  0.00  0.00    +0.000 C 
ATOM     15  C   UNL     1       6.174   3.571  13.168  0.00  0.00    +0.000 C 
ENDBRANCH  12  15
ENDBRANCH   1  12
BRANCH   3  16
ATOM     16  N   UNL     1       4.035   2.555  18.391  0.00  0.00    +0.000 N 
ATOM     17  H   UNL     1       4.365   1.618  18.610  0.00  0.00    +0.000 HD
BRANCH  16  18
ATOM     18  S   UNL     1       2.368   2.761  18.365  0.00  0.00    +0.000 S 
ATOM     19  O   UNL     1       1.997   2.813  16.966  0.00  0.00    +0.000 OA
ATOM     20  O   UNL     1       1.755   1.812  19.270  0.00  0.00    +0.000 OA
BRANCH  18  21
ATOM     21  C   UNL     1       2.112   4.399  19.031  0.00  0.00    +0.000 A 
ATOM     22  C   UNL     1       1.787   4.552  20.386  0.00  0.00    +0.000 A 
ATOM     23  C   UNL     1       1.650   5.835  20.925  0.00  0.00    +0.000 A 
ATOM     24  C   UNL     1       1.847   6.955  20.116  0.00  0.00    +0.000 A 
ATOM     25 CL   UNL     1       1.680   8.531  20.785  0.00  0.00    +0.000 Cl
ATOM     26  C   UNL     1       2.189   6.803  18.771  0.00  0.00    +0.000 A 
ATOM     27  C   UNL     1       2.332   5.524  18.227  0.00  0.00    +0.000 A 
ENDBRANCH  18  21
ENDBRANCH  16  18
ENDBRANCH   3  16
TORSDOF 5
ENDMDL
MODEL 4
REMARK VINA RESULT:      -7.9      1.314      1.774
REMARK  Name = 
REMARK  6 active torsions:
REMARK  status: ('A' for Active; 'I' for Inactive)
REMARK    1  A    between atoms: C_1  and  C_2
REMARK    2  A    between atoms: C_2  and  N_3
REMARK    3  A    between atoms: N_3  and  C_4
REMARK    4  A    between atoms: C_6  and  N_7
REMARK    5  A    between atoms: N_7  and  S_8
REMARK    6  A    between atoms: S_8  and  C_11
REMARK                            x       y       z     vdW  Elec       q    Type
REMARK                         _______ _______ _______ _____ _____    ______ ____
ROOT
ATOM      1  C   UNL     1       6.874   5.656  16.147  0.00  0.00    +0.000 A 
ATOM      2  C   UNL     1       5.819   5.079  16.896  0.00  0.00    +0.000 A 
ATOM      3  C   UNL     1       4.968   4.030  16.434  0.00  0.00    +0.000 A 
ATOM      4  C   UNL     1       5.028   3.480  15.145  0.00  0.00    +0.000 A 
ATOM      5  C   UNL     1       6.033   4.084  14.399  0.00  0.00    +0.000 A 
ATOM      6  C   UNL     1       6.340   3.827  13.098  0.00  0.00    +0.000 A 
ATOM      7 CL   UNL     1       5.721   2.797  11.905  0.00  0.00    +0.000 Cl
ATOM      8  N   UNL     1       7.377   4.644  12.786  0.00  0.00    +0.000 N 
ATOM      9  N   UNL     1       7.786   5.427  13.810  0.00  0.00    +0.000 NA
ATOM     10  C   UNL     1       6.952   5.120  14.828  0.00  0.00    +0.000 A 
ATOM     11  H   UNL     1       7.851   4.722  11.892  0.00  0.00    +0.000 HD
ENDROOT
BRANCH   1  12
ATOM     12  N   UNL     1       7.715   6.642  16.634  0.00  0.00    +0.000 N 
ATOM     13  H   UNL     1       8.639   6.693  16.213  0.00  0.00    +0.000 HD
BRANCH  12  15
ATOM     14  C   UNL     1       8.054   8.780  17.784  0.00  0.00    +0.000 C 
ATOM     15  C   UNL     1       7.390   7.420  17.813  0.00  0.00    +0.000 C 
ENDBRANCH  12  15
ENDBRANCH   1  12
BRANCH   3  16
ATOM     16  N   UNL     1       4.006   3.509  17.337  0.00  0.00    +0.000 N 
ATOM     17  H   UNL     1       3.028   3.458  17.064  0.00  0.00    +0.000 HD
BRANCH  16  18
ATOM     18  S   UNL     1       4.308   3.516  18.990  0.00  0.00    +0.000 S 
ATOM     19  O   UNL     1       3.747   2.282  19.500  0.00  0.00    +0.000 OA
ATOM     20  O   UNL     1       5.695   3.863  19.221  0.00  0.00    +0.000 OA
BRANCH  18  21
ATOM     21  C   UNL     1       3.297   4.846  19.622  0.00  0.00    +0.000 A 
ATOM     22  C   UNL     1       3.364   6.111  19.023  0.00  0.00    +0.000 A 
ATOM     23  C   UNL     1       2.527   7.136  19.473  0.00  0.00    +0.000 A 
ATOM     24  C   UNL     1       1.622   6.893  20.507  0.00  0.00    +0.000 A 
ATOM     25 CL   UNL     1       0.592   8.157  21.055  0.00  0.00    +0.000 Cl
ATOM     26  C   UNL     1       1.540   5.628  21.091  0.00  0.00    +0.000 A 
ATOM     27  C   UNL     1       2.371   4.597  20.644  0.00  0.00    +0.000 A 
ENDBRANCH  18  21
ENDBRANCH  16  18
ENDBRANCH   3  16
TORSDOF 5
ENDMDL
MODEL 5
REMARK VINA RESULT:      -7.5      3.267      6.995
REMARK  Name = 
REMARK  6 active torsions:
REMARK  status: ('A' for Active; 'I' for Inactive)
REMARK    1  A    between atoms: C_1  and  C_2
REMARK    2  A    between atoms: C_2  and  N_3
REMARK    3  A    between atoms: N_3  and  C_4
REMARK    4  A    between atoms: C_6  and  N_7
REMARK    5  A    between atoms: N_7  and  S_8
REMARK    6  A    between atoms: S_8  and  C_11
REMARK                            x       y       z     vdW  Elec       q    Type
REMARK                         _______ _______ _______ _____ _____    ______ ____
ROOT
ATOM      1  C   UNL     1       2.256   6.770  19.984  0.00  0.00    +0.000 A 
ATOM      2  C   UNL     1       3.179   7.066  18.950  0.00  0.00    +0.000 A 
ATOM      3  C   UNL     1       3.529   6.177  17.890  0.00  0.00    +0.000 A 
ATOM      4  C   UNL     1       3.049   4.863  17.775  0.00  0.00    +0.000 A 
ATOM      5  C   UNL     1       2.182   4.563  18.819  0.00  0.00    +0.000 A 
ATOM      6  C   UNL     1       1.569   3.369  19.043  0.00  0.00    +0.000 A 
ATOM      7 CL   UNL     1       1.576   1.860  18.275  0.00  0.00    +0.000 Cl
ATOM      8  N   UNL     1       0.825   3.531  20.166  0.00  0.00    +0.000 N 
ATOM      9  N   UNL     1       0.899   4.773  20.699  0.00  0.00    +0.000 NA
ATOM     10  C   UNL     1       1.759   5.438  19.895  0.00  0.00    +0.000 A 
ATOM     11  H   UNL     1       0.246   2.837  20.625  0.00  0.00    +0.000 HD
ENDROOT
BRANCH   1  12
ATOM     12  N   UNL     1       1.898   7.667  20.976  0.00  0.00    +0.000 N 
ATOM     13  H   UNL     1       2.228   7.455  21.915  0.00  0.00    +0.000 HD
BRANCH  12  15
ATOM     14  C   UNL     1      -0.263   8.601  21.661  0.00  0.00    +0.000 C 
ATOM     15  C   UNL     1       0.938   8.728  20.748  0.00  0.00    +0.000 C 
ENDBRANCH  12  15
ENDBRANCH   1  12
BRANCH   3  16
ATOM     16  N   UNL     1       4.414   6.653  16.889  0.00  0.00    +0.000 N 
ATOM     17  H   UNL     1       4.045   6.989  16.003  0.00  0.00    +0.000 HD
BRANCH  16  18
ATOM     18  S   UNL     1       6.021   6.160  16.877  0.00  0.00    +0.000 S 
ATOM     19  O   UNL     1       6.806   7.371  16.767  0.00  0.00    +0.000 OA
ATOM     20  O   UNL     1       6.239   5.219  17.955  0.00  0.00    +0.000 OA
BRANCH  18  21
ATOM     21  C   UNL     1       6.204   5.279  15.334  0.00  0.00    +0.000 A 
ATOM     22  C   UNL     1       7.372   5.445  14.576  0.00  0.00    +0.000 A 
ATOM     23  C   UNL     1       7.547   4.709  13.401  0.00  0.00    +0.000 A 
ATOM     24  C   UNL     1       6.565   3.805  12.994  0.00  0.00    +0.000 A 
ATOM     25 CL   UNL     1       6.785   2.899  11.548  0.00  0.00    +0.000 Cl
ATOM     26  C   UNL     1       5.410   3.624  13.757  0.00  0.00    +0.000 A 
ATOM     27  C   UNL     1       5.230   4.355  14.935  0.00  0.00    +0.000 A 
ENDBRANCH  18  21
ENDBRANCH  16  18
ENDBRANCH   3  16
TORSDOF 5
ENDMDL
MODEL 6
REMARK VINA RESULT:      -7.4      0.981      1.147
REMARK  Name = 
REMARK  6 active torsions:
REMARK  status: ('A' for Active; 'I' for Inactive)
REMARK    1  A    between atoms: C_1  and  C_2
REMARK    2  A    between atoms: C_2  and  N_3
REMARK    3  A    between atoms: N_3  and  C_4
REMARK    4  A    between atoms: C_6  and  N_7
REMARK    5  A    between atoms: N_7  and  S_8
REMARK    6  A    between atoms: S_8  and  C_11
REMARK                            x       y       z     vdW  Elec       q    Type
REMARK                         _______ _______ _______ _____ _____    ______ ____
ROOT
ATOM      1  C   UNL     1       6.693   5.522  16.840  0.00  0.00    +0.000 A 
ATOM      2  C   UNL     1       5.576   4.863  17.412  0.00  0.00    +0.000 A 
ATOM      3  C   UNL     1       4.769   3.895  16.743  0.00  0.00    +0.000 A 
ATOM      4  C   UNL     1       4.941   3.520  15.401  0.00  0.00    +0.000 A 
ATOM      5  C   UNL     1       6.008   4.206  14.832  0.00  0.00    +0.000 A 
ATOM      6  C   UNL     1       6.427   4.120  13.540  0.00  0.00    +0.000 A 
ATOM      7 CL   UNL     1       5.914   3.265  12.172  0.00  0.00    +0.000 Cl
ATOM      8  N   UNL     1       7.487   4.959  13.431  0.00  0.00    +0.000 N 
ATOM      9  N   UNL     1       7.806   5.594  14.582  0.00  0.00    +0.000 NA
ATOM     10  C   UNL     1       6.885   5.165  15.474  0.00  0.00    +0.000 A 
ATOM     11  H   UNL     1       8.038   5.149  12.600  0.00  0.00    +0.000 HD
ENDROOT
BRANCH   1  12
ATOM     12  N   UNL     1       7.488   6.424  17.525  0.00  0.00    +0.000 N 
ATOM     13  H   UNL     1       8.105   6.033  18.234  0.00  0.00    +0.000 HD
BRANCH  12  15
ATOM     14  C   UNL     1       8.379   8.618  18.160  0.00  0.00    +0.000 C 
ATOM     15  C   UNL     1       7.312   7.858  17.403  0.00  0.00    +0.000 C 
ENDBRANCH  12  15
ENDBRANCH   1  12
BRANCH   3  16
ATOM     16  N   UNL     1       3.731   3.270  17.482  0.00  0.00    +0.000 N 
ATOM     17  H   UNL     1       2.842   3.064  17.033  0.00  0.00    +0.000 HD
BRANCH  16  18
ATOM     18  S   UNL     1       3.701   3.384  19.158  0.00  0.00    +0.000 S 
ATOM     19  O   UNL     1       2.801   2.344  19.609  0.00  0.00    +0.000 OA
ATOM     20  O   UNL     1       5.058   3.471  19.655  0.00  0.00    +0.000 OA
BRANCH  18  21
ATOM     21  C   UNL     1       2.896   4.945  19.483  0.00  0.00    +0.000 A 
ATOM     22  C   UNL     1       2.173   5.117  20.671  0.00  0.00    +0.000 A 
ATOM     23  C   UNL     1       1.596   6.357  20.959  0.00  0.00    +0.000 A 
ATOM     24  C   UNL     1       1.752   7.420  20.069  0.00  0.00    +0.000 A 
ATOM     25 CL   UNL     1       1.042   8.946  20.428  0.00  0.00    +0.000 Cl
ATOM     26  C   UNL     1       2.488   7.257  18.894  0.00  0.00    +0.000 A 
ATOM     27  C   UNL     1       3.070   6.020  18.602  0.00  0.00    +0.000 A 
ENDBRANCH  18  21
ENDBRANCH  16  18
ENDBRANCH   3  16
TORSDOF 5
ENDMDL
MODEL 7
REMARK VINA RESULT:      -7.4      2.240      3.552
REMARK  Name = 
REMARK  6 active torsions:
REMARK  status: ('A' for Active; 'I' for Inactive)
REMARK    1  A    between atoms: C_1  and  C_2
REMARK    2  A    between atoms: C_2  and  N_3
REMARK    3  A    between atoms: N_3  and  C_4
REMARK    4  A    between atoms: C_6  and  N_7
REMARK    5  A    between atoms: N_7  and  S_8
REMARK    6  A    between atoms: S_8  and  C_11
REMARK                            x       y       z     vdW  Elec       q    Type
REMARK                         _______ _______ _______ _____ _____    ______ ____
ROOT
ATOM      1  C   UNL     1       5.461   4.352  15.695  0.00  0.00    +0.000 A 
ATOM      2  C   UNL     1       4.679   3.397  16.391  0.00  0.00    +0.000 A 
ATOM      3  C   UNL     1       4.699   3.200  17.804  0.00  0.00    +0.000 A 
ATOM      4  C   UNL     1       5.552   3.888  18.682  0.00  0.00    +0.000 A 
ATOM      5  C   UNL     1       6.350   4.788  17.987  0.00  0.00    +0.000 A 
ATOM      6  C   UNL     1       7.317   5.586  18.516  0.00  0.00    +0.000 A 
ATOM      7 CL   UNL     1       7.951   5.828  20.067  0.00  0.00    +0.000 Cl
ATOM      8  N   UNL     1       7.835   6.290  17.478  0.00  0.00    +0.000 N 
ATOM      9  N   UNL     1       7.260   6.013  16.285  0.00  0.00    +0.000 NA
ATOM     10  C   UNL     1       6.343   5.059  16.563  0.00  0.00    +0.000 A 
ATOM     11  H   UNL     1       8.585   6.973  17.511  0.00  0.00    +0.000 HD
ENDROOT
BRANCH   1  12
ATOM     12  N   UNL     1       5.390   4.555  14.327  0.00  0.00    +0.000 N 
ATOM     13  H   UNL     1       4.572   5.056  13.989  0.00  0.00    +0.000 HD
BRANCH  12  15
ATOM     14  C   UNL     1       5.570   3.224  12.276  0.00  0.00    +0.000 C 
ATOM     15  C   UNL     1       6.306   3.917  13.403  0.00  0.00    +0.000 C 
ENDBRANCH  12  15
ENDBRANCH   1  12
BRANCH   3  16
ATOM     16  N   UNL     1       3.798   2.253  18.356  0.00  0.00    +0.000 N 
ATOM     17  H   UNL     1       3.592   1.394  17.853  0.00  0.00    +0.000 HD
BRANCH  16  18
ATOM     18  S   UNL     1       2.649   2.738  19.484  0.00  0.00    +0.000 S 
ATOM     19  O   UNL     1       1.421   2.068  19.111  0.00  0.00    +0.000 OA
ATOM     20  O   UNL     1       3.202   2.607  20.815  0.00  0.00    +0.000 OA
BRANCH  18  21
ATOM     21  C   UNL     1       2.412   4.478  19.156  0.00  0.00    +0.000 A 
ATOM     22  C   UNL     1       2.737   5.419  20.143  0.00  0.00    +0.000 A 
ATOM     23  C   UNL     1       2.614   6.784  19.867  0.00  0.00    +0.000 A 
ATOM     24  C   UNL     1       2.179   7.203  18.609  0.00  0.00    +0.000 A 
ATOM     25 CL   UNL     1       2.031   8.884  18.273  0.00  0.00    +0.000 Cl
ATOM     26  C   UNL     1       1.873   6.267  17.619  0.00  0.00    +0.000 A 
ATOM     27  C   UNL     1       1.997   4.901  17.887  0.00  0.00    +0.000 A 
ENDBRANCH  18  21
ENDBRANCH  16  18
ENDBRANCH   3  16
TORSDOF 5
ENDMDL
MODEL 8
REMARK VINA RESULT:      -7.4      2.003      3.535
REMARK  Name = 
REMARK  6 active torsions:
REMARK  status: ('A' for Active; 'I' for Inactive)
REMARK    1  A    between atoms: C_1  and  C_2
REMARK    2  A    between atoms: C_2  and  N_3
REMARK    3  A    between atoms: N_3  and  C_4
REMARK    4  A    between atoms: C_6  and  N_7
REMARK    5  A    between atoms: N_7  and  S_8
REMARK    6  A    between atoms: S_8  and  C_11
REMARK                            x       y       z     vdW  Elec       q    Type
REMARK                         _______ _______ _______ _____ _____    ______ ____
ROOT
ATOM      1  C   UNL     1       5.858   3.916  15.940  0.00  0.00    +0.000 A 
ATOM      2  C   UNL     1       5.145   3.485  17.086  0.00  0.00    +0.000 A 
ATOM      3  C   UNL     1       5.133   4.161  18.343  0.00  0.00    +0.000 A 
ATOM      4  C   UNL     1       5.885   5.313  18.622  0.00  0.00    +0.000 A 
ATOM      5  C   UNL     1       6.619   5.703  17.509  0.00  0.00    +0.000 A 
ATOM      6  C   UNL     1       7.487   6.749  17.439  0.00  0.00    +0.000 A 
ATOM      7 CL   UNL     1       8.038   7.919  18.531  0.00  0.00    +0.000 Cl
ATOM      8  N   UNL     1       7.972   6.753  16.172  0.00  0.00    +0.000 N 
ATOM      9  N   UNL     1       7.469   5.772  15.388  0.00  0.00    +0.000 NA
ATOM     10  C   UNL     1       6.637   5.081  16.199  0.00  0.00    +0.000 A 
ATOM     11  H   UNL     1       8.652   7.393  15.776  0.00  0.00    +0.000 HD
ENDROOT
BRANCH   1  12
ATOM     12  N   UNL     1       5.816   3.267  14.718  0.00  0.00    +0.000 N 
ATOM     13  H   UNL     1       5.705   2.256  14.749  0.00  0.00    +0.000 HD
BRANCH  12  15
ATOM     14  C   UNL     1       5.616   3.168  12.277  0.00  0.00    +0.000 C 
ATOM     15  C   UNL     1       6.124   3.943  13.473  0.00  0.00    +0.000 C 
ENDBRANCH  12  15
ENDBRANCH   1  12
BRANCH   3  16
ATOM     16  N   UNL     1       4.307   3.639  19.371  0.00  0.00    +0.000 N 
ATOM     17  H   UNL     1       4.638   2.870  19.948  0.00  0.00    +0.000 HD
BRANCH  16  18
ATOM     18  S   UNL     1       2.640   3.838  19.297  0.00  0.00    +0.000 S 
ATOM     19  O   UNL     1       2.230   3.278  18.026  0.00  0.00    +0.000 OA
ATOM     20  O   UNL     1       2.050   3.390  20.541  0.00  0.00    +0.000 OA
BRANCH  18  21
ATOM     21  C   UNL     1       2.408   5.606  19.185  0.00  0.00    +0.000 A 
ATOM     22  C   UNL     1       2.486   6.237  17.936  0.00  0.00    +0.000 A 
ATOM     23  C   UNL     1       2.241   7.609  17.835  0.00  0.00    +0.000 A 
ATOM     24  C   UNL     1       1.911   8.342  18.976  0.00  0.00    +0.000 A 
ATOM     25 CL   UNL     1       1.608  10.031  18.847  0.00  0.00    +0.000 Cl
ATOM     26  C   UNL     1       1.814   7.712  20.218  0.00  0.00    +0.000 A 
ATOM     27  C   UNL     1       2.054   6.340  20.325  0.00  0.00    +0.000 A 
ENDBRANCH  18  21
ENDBRANCH  16  18
ENDBRANCH   3  16
TORSDOF 5
ENDMDL
MODEL 9
REMARK VINA RESULT:      -7.4      3.297      6.487
REMARK  Name = 
REMARK  6 active torsions:
REMARK  status: ('A' for Active; 'I' for Inactive)
REMARK    1  A    between atoms: C_1  and  C_2
REMARK    2  A    between atoms: C_2  and  N_3
REMARK    3  A    between atoms: N_3  and  C_4
REMARK    4  A    between atoms: C_6  and  N_7
REMARK    5  A    between atoms: N_7  and  S_8
REMARK    6  A    between atoms: S_8  and  C_11
REMARK                            x       y       z     vdW  Elec       q    Type
REMARK                         _______ _______ _______ _____ _____    ______ ____
ROOT
ATOM      1  C   UNL     1       2.628   5.512  20.052  0.00  0.00    +0.000 A 
ATOM      2  C   UNL     1       3.362   5.026  18.941  0.00  0.00    +0.000 A 
ATOM      3  C   UNL     1       3.710   5.797  17.792  0.00  0.00    +0.000 A 
ATOM      4  C   UNL     1       3.309   7.126  17.586  0.00  0.00    +0.000 A 
ATOM      5  C   UNL     1       2.549   7.581  18.657  0.00  0.00    +0.000 A 
ATOM      6  C   UNL     1       1.963   8.805  18.769  0.00  0.00    +0.000 A 
ATOM      7 CL   UNL     1       1.869  10.179  17.786  0.00  0.00    +0.000 Cl
ATOM      8  N   UNL     1       1.326   8.809  19.967  0.00  0.00    +0.000 N 
ATOM      9  N   UNL     1       1.462   7.658  20.666  0.00  0.00    +0.000 NA
ATOM     10  C   UNL     1       2.201   6.859  19.865  0.00  0.00    +0.000 A 
ATOM     11  H   UNL     1       0.777   9.561  20.369  0.00  0.00    +0.000 HD
ENDROOT
BRANCH   1  12
ATOM     12  N   UNL     1       2.343   4.757  21.176  0.00  0.00    +0.000 N 
ATOM     13  H   UNL     1       2.951   4.897  21.979  0.00  0.00    +0.000 HD
BRANCH  12  15
ATOM     14  C   UNL     1       1.933   2.416  21.777  0.00  0.00    +0.000 C 
ATOM     15  C   UNL     1       1.375   3.678  21.156  0.00  0.00    +0.000 C 
ENDBRANCH  12  15
ENDBRANCH   1  12
BRANCH   3  16
ATOM     16  N   UNL     1       4.515   5.182  16.798  0.00  0.00    +0.000 N 
ATOM     17  H   UNL     1       4.079   4.751  15.986  0.00  0.00    +0.000 HD
BRANCH  16  18
ATOM     18  S   UNL     1       6.060   4.641  17.178  0.00  0.00    +0.000 S 
ATOM     19  O   UNL     1       5.905   3.786  18.337  0.00  0.00    +0.000 OA
ATOM     20  O   UNL     1       6.709   4.165  15.975  0.00  0.00    +0.000 OA
BRANCH  18  21
ATOM     21  C   UNL     1       6.922   6.107  17.725  0.00  0.00    +0.000 A 
ATOM     22  C   UNL     1       7.766   6.037  18.842  0.00  0.00    +0.000 A 
ATOM     23  C   UNL     1       8.492   7.166  19.233  0.00  0.00    +0.000 A 
ATOM     24  C   UNL     1       8.382   8.351  18.506  0.00  0.00    +0.000 A 
ATOM     25 CL   UNL     1       9.279   9.737  18.990  0.00  0.00    +0.000 Cl
ATOM     26  C   UNL     1       7.556   8.416  17.382  0.00  0.00    +0.000 A 
ATOM     27  C   UNL     1       6.830   7.291  16.983  0.00  0.00    +0.000 A 
ENDBRANCH  18  21
ENDBRANCH  16  18
ENDBRANCH   3  16
TORSDOF 5
ENDMDL
