MODEL 1
REMARK VINA RESULT:      -9.1      0.000      0.000
REMARK  Name = 
REMARK  6 active torsions:
REMARK  status: ('A' for Active; 'I' for Inactive)
REMARK    1  A    between atoms: C_1  and  C_2
REMARK    2  A    between atoms: N_5  and  C_6
REMARK    3  A    between atoms: C_11  and  C_12
REMARK    4  A    between atoms: C_12  and  C_14
REMARK    5  A    between atoms: C_20  and  C_22
REMARK    6  A    between atoms: C_28  and  C_29
REMARK                            x       y       z     vdW  Elec       q    Type
REMARK                         _______ _______ _______ _____ _____    ______ ____
ROOT
ATOM      1  C   UNL     1       2.586   6.361  19.020  0.00  0.00    +0.000 C 
ATOM      2  O   UNL     1       2.121   5.954  20.081  0.00  0.00    +0.000 OA
ENDROOT
BRANCH   1   3
ATOM      3  C   UNL     1       2.276   7.822  18.671  0.00  0.00    +0.000 C 
ATOM      4  O   UNL     1       2.698   8.271  17.595  0.00  0.00    +0.000 OA
ATOM      5  N   UNL     1       1.544   8.606  19.582  0.00  0.00    +0.000 N 
ATOM      6  C   UNL     1       1.328   8.261  20.994  0.00  0.00    +0.000 C 
ATOM      7  C   UNL     1       0.014   8.851  21.570  0.00  0.00    +0.000 C 
ATOM      8  N   UNL     1      -0.222  10.263  21.191  0.00  0.00    +0.000 N 
ATOM      9  C   UNL     1      -0.693  11.140  22.186  0.00  0.00    +0.000 C 
ATOM     10  O   UNL     1      -0.784  10.818  23.366  0.00  0.00    +0.000 OA
ATOM     11  C   UNL     1      -0.011  10.574  19.758  0.00  0.00    +0.000 C 
ATOM     12  C   UNL     1      -1.145   9.954  18.899  0.00  0.00    +0.000 C 
ATOM     13  C   UNL     1       1.357  10.028  19.283  0.00  0.00    +0.000 C 
BRANCH   9  14
ATOM     14  C   UNL     1      -1.061  12.569  21.859  0.00  0.00    +0.000 A 
ATOM     15  C   UNL     1      -0.136  13.618  21.873  0.00  0.00    +0.000 A 
ATOM     16  C   UNL     1      -0.548  14.936  21.641  0.00  0.00    +0.000 A 
ATOM     17  C   UNL     1      -1.862  15.205  21.274  0.00  0.00    +0.000 A 
ATOM     18  C   UNL     1      -2.768  14.155  21.141  0.00  0.00    +0.000 A 
ATOM     19  C   UNL     1      -2.375  12.845  21.439  0.00  0.00    +0.000 A 
ENDBRANCH   9  14
ENDBRANCH   1   3
BRANCH   1  25
ATOM     20  C   UNL     1       5.981   4.966  15.808  0.00  0.00    +0.000 A 
ATOM     21  C   UNL     1       6.936   5.742  16.479  0.00  0.00    +0.000 A 
ATOM     22  C   UNL     1       6.806   5.949  17.820  0.00  0.00    +0.000 A 
ATOM     23  N   UNL     1       5.605   6.228  18.312  0.00  0.00    +0.000 NA
ATOM     24  C   UNL     1       4.621   5.522  17.723  0.00  0.00    +0.000 A 
ATOM     25  C   UNL     1       3.278   5.453  18.109  0.00  0.00    +0.000 A 
ATOM     26  C   UNL     1       2.843   4.254  17.565  0.00  0.00    +0.000 A 
ATOM     27  N   UNL     1       3.763   3.851  16.607  0.00  0.00    +0.000 N 
ATOM     28  C   UNL     1       4.825   4.728  16.580  0.00  0.00    +0.000 A 
ATOM     29  H   UNL     1       3.721   2.963  16.121  0.00  0.00    +0.000 HD
BRANCH  20  34
ATOM     30  C   UNL     1       5.362   2.659  11.654  0.00  0.00    +0.000 C 
ATOM     31  C   UNL     1       6.050   3.541  12.624  0.00  0.00    +0.000 A 
ATOM     32  C   UNL     1       7.229   4.290  12.473  0.00  0.00    +0.000 A 
ATOM     33  C   UNL     1       7.382   4.979  13.672  0.00  0.00    +0.000 A 
ATOM     34  N   UNL     1       6.321   4.618  14.475  0.00  0.00    +0.000 N 
ATOM     35  N   UNL     1       5.532   3.704  13.841  0.00  0.00    +0.000 NA
ENDBRANCH  20  34
ENDBRANCH   1  25
TORSDOF 4
ENDMDL
MODEL 2
REMARK VINA RESULT:      -8.8      3.481      5.403
REMARK  Name = 
REMARK  6 active torsions:
REMARK  status: ('A' for Active; 'I' for Inactive)
REMARK    1  A    between atoms: C_1  and  C_2
REMARK    2  A    between atoms: N_5  and  C_6
REMARK    3  A    between atoms: C_11  and  C_12
REMARK    4  A    between atoms: C_12  and  C_14
REMARK    5  A    between atoms: C_20  and  C_22
REMARK    6  A    between atoms: C_28  and  C_29
REMARK                            x       y       z     vdW  Elec       q    Type
REMARK                         _______ _______ _______ _____ _____    ______ ____
ROOT
ATOM      1  C   UNL     1       0.439  10.448  19.572  0.00  0.00    +0.000 C 
ATOM      2  O   UNL     1      -0.282  10.447  18.577  0.00  0.00    +0.000 OA
ENDROOT
BRANCH   1   3
ATOM      3  C   UNL     1       0.721  11.821  20.193  0.00  0.00    +0.000 C 
ATOM      4  O   UNL     1       1.739  12.430  19.834  0.00  0.00    +0.000 OA
ATOM      5  N   UNL     1      -0.169  12.336  21.154  0.00  0.00    +0.000 N 
ATOM      6  C   UNL     1      -1.171  11.540  21.874  0.00  0.00    +0.000 C 
ATOM      7  C   UNL     1      -2.405  12.370  22.316  0.00  0.00    +0.000 C 
ATOM      8  N   UNL     1      -2.058  13.684  22.904  0.00  0.00    +0.000 N 
ATOM      9  C   UNL     1      -2.757  14.093  24.056  0.00  0.00    +0.000 C 
ATOM     10  O   UNL     1      -3.531  13.357  24.660  0.00  0.00    +0.000 OA
ATOM     11  C   UNL     1      -1.057  14.469  22.146  0.00  0.00    +0.000 C 
ATOM     12  C   UNL     1      -1.677  15.007  20.829  0.00  0.00    +0.000 C 
ATOM     13  C   UNL     1       0.177  13.595  21.819  0.00  0.00    +0.000 C 
BRANCH   9  14
ATOM     14  C   UNL     1      -2.543  15.463  24.656  0.00  0.00    +0.000 A 
ATOM     15  C   UNL     1      -3.311  16.579  24.306  0.00  0.00    +0.000 A 
ATOM     16  C   UNL     1      -3.016  17.842  24.833  0.00  0.00    +0.000 A 
ATOM     17  C   UNL     1      -2.032  17.983  25.806  0.00  0.00    +0.000 A 
ATOM     18  C   UNL     1      -1.339  16.860  26.251  0.00  0.00    +0.000 A 
ATOM     19  C   UNL     1      -1.585  15.607  25.675  0.00  0.00    +0.000 A 
ENDBRANCH   9  14
ENDBRANCH   1   3
BRANCH   1  25
ATOM     20  C   UNL     1       2.385   5.991  19.188  0.00  0.00    +0.000 A 
ATOM     21  C   UNL     1       2.927   6.334  17.942  0.00  0.00    +0.000 A 
ATOM     22  C   UNL     1       3.262   7.633  17.693  0.00  0.00    +0.000 A 
ATOM     23  N   UNL     1       2.431   8.593  18.078  0.00  0.00    +0.000 NA
ATOM     24  C   UNL     1       1.862   8.346  19.273  0.00  0.00    +0.000 A 
ATOM     25  C   UNL     1       1.075   9.217  20.035  0.00  0.00    +0.000 A 
ATOM     26  C   UNL     1       1.197   8.723  21.325  0.00  0.00    +0.000 A 
ATOM     27  N   UNL     1       1.702   7.433  21.252  0.00  0.00    +0.000 N 
ATOM     28  C   UNL     1       1.984   7.115  19.942  0.00  0.00    +0.000 A 
ATOM     29  H   UNL     1       1.963   6.881  22.060  0.00  0.00    +0.000 HD
BRANCH  20  34
ATOM     30  C   UNL     1       3.567   1.393  18.539  0.00  0.00    +0.000 C 
ATOM     31  C   UNL     1       2.802   2.528  19.103  0.00  0.00    +0.000 A 
ATOM     32  C   UNL     1       1.772   2.527  20.059  0.00  0.00    +0.000 A 
ATOM     33  C   UNL     1       1.459   3.867  20.262  0.00  0.00    +0.000 A 
ATOM     34  N   UNL     1       2.285   4.598  19.435  0.00  0.00    +0.000 N 
ATOM     35  N   UNL     1       3.077   3.768  18.698  0.00  0.00    +0.000 NA
ENDBRANCH  20  34
ENDBRANCH   1  25
TORSDOF 4
ENDMDL
MODEL 3
REMARK VINA RESULT:      -8.8      3.657      5.692
REMARK  Name = 
REMARK  6 active torsions:
REMARK  status: ('A' for Active; 'I' for Inactive)
REMARK    1  A    between atoms: C_1  and  C_2
REMARK    2  A    between atoms: N_5  and  C_6
REMARK    3  A    between atoms: C_11  and  C_12
REMARK    4  A    between atoms: C_12  and  C_14
REMARK    5  A    between atoms: C_20  and  C_22
REMARK    6  A    between atoms: C_28  and  C_29
REMARK                            x       y       z     vdW  Elec       q    Type
REMARK                         _______ _______ _______ _____ _____    ______ ____
ROOT
ATOM      1  C   UNL     1       0.274  10.551  19.557  0.00  0.00    +0.000 C 
ATOM      2  O   UNL     1      -0.461  10.479  18.576  0.00  0.00    +0.000 OA
ENDROOT
BRANCH   1   3
ATOM      3  C   UNL     1       0.475  11.955  20.141  0.00  0.00    +0.000 C 
ATOM      4  O   UNL     1       1.423  12.635  19.723  0.00  0.00    +0.000 OA
ATOM      5  N   UNL     1      -0.407  12.417  21.136  0.00  0.00    +0.000 N 
ATOM      6  C   UNL     1      -1.308  11.559  21.916  0.00  0.00    +0.000 C 
ATOM      7  C   UNL     1      -2.582  12.298  22.403  0.00  0.00    +0.000 C 
ATOM      8  N   UNL     1      -2.315  13.647  22.952  0.00  0.00    +0.000 N 
ATOM      9  C   UNL     1      -2.989  14.023  24.129  0.00  0.00    +0.000 C 
ATOM     10  O   UNL     1      -3.672  13.241  24.782  0.00  0.00    +0.000 OA
ATOM     11  C   UNL     1      -1.416  14.493  22.133  0.00  0.00    +0.000 C 
ATOM     12  C   UNL     1      -2.138  14.953  20.839  0.00  0.00    +0.000 C 
ATOM     13  C   UNL     1      -0.132  13.713  21.761  0.00  0.00    +0.000 C 
BRANCH   9  14
ATOM     14  C   UNL     1      -2.857  15.418  24.695  0.00  0.00    +0.000 A 
ATOM     15  C   UNL     1      -3.855  16.390  24.572  0.00  0.00    +0.000 A 
ATOM     16  C   UNL     1      -3.647  17.691  25.045  0.00  0.00    +0.000 A 
ATOM     17  C   UNL     1      -2.491  18.002  25.753  0.00  0.00    +0.000 A 
ATOM     18  C   UNL     1      -1.540  17.012  25.987  0.00  0.00    +0.000 A 
ATOM     19  C   UNL     1      -1.715  15.729  25.455  0.00  0.00    +0.000 A 
ENDBRANCH   9  14
ENDBRANCH   1   3
BRANCH   1  25
ATOM     20  C   UNL     1       2.491   6.217  19.245  0.00  0.00    +0.000 A 
ATOM     21  C   UNL     1       2.981   6.558  17.977  0.00  0.00    +0.000 A 
ATOM     22  C   UNL     1       3.226   7.867  17.685  0.00  0.00    +0.000 A 
ATOM     23  N   UNL     1       2.345   8.784  18.065  0.00  0.00    +0.000 NA
ATOM     24  C   UNL     1       1.821   8.535  19.280  0.00  0.00    +0.000 A 
ATOM     25  C   UNL     1       0.998   9.377  20.037  0.00  0.00    +0.000 A 
ATOM     26  C   UNL     1       1.182   8.929  21.337  0.00  0.00    +0.000 A 
ATOM     27  N   UNL     1       1.766   7.671  21.286  0.00  0.00    +0.000 N 
ATOM     28  C   UNL     1       2.037   7.334  19.978  0.00  0.00    +0.000 A 
ATOM     29  H   UNL     1       2.081   7.160  22.102  0.00  0.00    +0.000 HD
BRANCH  20  34
ATOM     30  C   UNL     1       1.521   2.362  21.922  0.00  0.00    +0.000 C 
ATOM     31  C   UNL     1       2.077   3.105  20.768  0.00  0.00    +0.000 A 
ATOM     32  C   UNL     1       2.740   2.621  19.627  0.00  0.00    +0.000 A 
ATOM     33  C   UNL     1       2.989   3.744  18.844  0.00  0.00    +0.000 A 
ATOM     34  N   UNL     1       2.486   4.828  19.532  0.00  0.00    +0.000 N 
ATOM     35  N   UNL     1       1.965   4.433  20.729  0.00  0.00    +0.000 NA
ENDBRANCH  20  34
ENDBRANCH   1  25
TORSDOF 4
ENDMDL
MODEL 4
REMARK VINA RESULT:      -8.6      0.631      1.357
REMARK  Name = 
REMARK  6 active torsions:
REMARK  status: ('A' for Active; 'I' for Inactive)
REMARK    1  A    between atoms: C_1  and  C_2
REMARK    2  A    between atoms: N_5  and  C_6
REMARK    3  A    between atoms: C_11  and  C_12
REMARK    4  A    between atoms: C_12  and  C_14
REMARK    5  A    between atoms: C_20  and  C_22
REMARK    6  A    between atoms: C_28  and  C_29
REMARK                            x       y       z     vdW  Elec       q    Type
REMARK                         _______ _______ _______ _____ _____    ______ ____
ROOT
ATOM      1  C   UNL     1       2.492   6.419  19.243  0.00  0.00    +0.000 C 
ATOM      2  O   UNL     1       2.020   6.004  20.298  0.00  0.00    +0.000 OA
ENDROOT
BRANCH   1   3
ATOM      3  C   UNL     1       2.210   7.890  18.916  0.00  0.00    +0.000 C 
ATOM      4  O   UNL     1       2.699   8.366  17.881  0.00  0.00    +0.000 OA
ATOM      5  N   UNL     1       1.425   8.652  19.802  0.00  0.00    +0.000 N 
ATOM      6  C   UNL     1       1.121   8.270  21.187  0.00  0.00    +0.000 C 
ATOM      7  C   UNL     1      -0.224   8.851  21.696  0.00  0.00    +0.000 C 
ATOM      8  N   UNL     1      -0.431  10.274  21.343  0.00  0.00    +0.000 N 
ATOM      9  C   UNL     1      -0.960  11.126  22.331  0.00  0.00    +0.000 C 
ATOM     10  O   UNL     1      -1.125  10.772  23.494  0.00  0.00    +0.000 OA
ATOM     11  C   UNL     1      -0.131  10.623  19.935  0.00  0.00    +0.000 C 
ATOM     12  C   UNL     1      -1.211  10.033  18.990  0.00  0.00    +0.000 C 
ATOM     13  C   UNL     1       1.262  10.083  19.531  0.00  0.00    +0.000 C 
BRANCH   9  14
ATOM     14  C   UNL     1      -1.302  12.565  22.022  0.00  0.00    +0.000 A 
ATOM     15  C   UNL     1      -2.547  12.963  21.522  0.00  0.00    +0.000 A 
ATOM     16  C   UNL     1      -2.783  14.300  21.177  0.00  0.00    +0.000 A 
ATOM     17  C   UNL     1      -1.823  15.271  21.439  0.00  0.00    +0.000 A 
ATOM     18  C   UNL     1      -0.623  14.907  22.046  0.00  0.00    +0.000 A 
ATOM     19  C   UNL     1      -0.358  13.561  22.329  0.00  0.00    +0.000 A 
ENDBRANCH   9  14
ENDBRANCH   1   3
BRANCH   1  25
ATOM     20  C   UNL     1       6.032   4.876  16.263  0.00  0.00    +0.000 A 
ATOM     21  C   UNL     1       6.993   5.455  17.103  0.00  0.00    +0.000 A 
ATOM     22  C   UNL     1       6.738   5.557  18.438  0.00  0.00    +0.000 A 
ATOM     23  N   UNL     1       5.533   5.948  18.832  0.00  0.00    +0.000 NA
ATOM     24  C   UNL     1       4.543   5.435  18.078  0.00  0.00    +0.000 A 
ATOM     25  C   UNL     1       3.166   5.512  18.317  0.00  0.00    +0.000 A 
ATOM     26  C   UNL     1       2.652   4.434  17.612  0.00  0.00    +0.000 A 
ATOM     27  N   UNL     1       3.617   3.999  16.715  0.00  0.00    +0.000 N 
ATOM     28  C   UNL     1       4.775   4.726  16.886  0.00  0.00    +0.000 A 
ATOM     29  H   UNL     1       3.522   3.172  16.139  0.00  0.00    +0.000 HD
BRANCH  20  34
ATOM     30  C   UNL     1       8.583   5.740  12.299  0.00  0.00    +0.000 C 
ATOM     31  C   UNL     1       7.601   5.030  13.150  0.00  0.00    +0.000 A 
ATOM     32  C   UNL     1       6.852   3.873  12.877  0.00  0.00    +0.000 A 
ATOM     33  C   UNL     1       6.140   3.614  14.044  0.00  0.00    +0.000 A 
ATOM     34  N   UNL     1       6.475   4.605  14.942  0.00  0.00    +0.000 N 
ATOM     35  N   UNL     1       7.340   5.492  14.372  0.00  0.00    +0.000 NA
ENDBRANCH  20  34
ENDBRANCH   1  25
TORSDOF 4
ENDMDL
MODEL 5
REMARK VINA RESULT:      -8.4      7.027     10.728
REMARK  Name = 
REMARK  6 active torsions:
REMARK  status: ('A' for Active; 'I' for Inactive)
REMARK    1  A    between atoms: C_1  and  C_2
REMARK    2  A    between atoms: N_5  and  C_6
REMARK    3  A    between atoms: C_11  and  C_12
REMARK    4  A    between atoms: C_12  and  C_14
REMARK    5  A    between atoms: C_20  and  C_22
REMARK    6  A    between atoms: C_28  and  C_29
REMARK                            x       y       z     vdW  Elec       q    Type
REMARK                         _______ _______ _______ _____ _____    ______ ____
ROOT
ATOM      1  C   UNL     1       2.528  16.355  18.756  0.00  0.00    +0.000 C 
ATOM      2  O   UNL     1       2.708  17.515  19.118  0.00  0.00    +0.000 OA
ENDROOT
BRANCH   1   3
ATOM      3  C   UNL     1       3.677  15.714  17.969  0.00  0.00    +0.000 C 
ATOM      4  O   UNL     1       3.563  15.614  16.739  0.00  0.00    +0.000 OA
ATOM      5  N   UNL     1       4.809  15.248  18.664  0.00  0.00    +0.000 N 
ATOM      6  C   UNL     1       4.861  15.010  20.112  0.00  0.00    +0.000 C 
ATOM      7  C   UNL     1       6.285  15.170  20.705  0.00  0.00    +0.000 C 
ATOM      8  N   UNL     1       7.344  14.529  19.893  0.00  0.00    +0.000 N 
ATOM      9  C   UNL     1       8.344  13.806  20.570  0.00  0.00    +0.000 C 
ATOM     10  O   UNL     1       8.297  13.575  21.774  0.00  0.00    +0.000 OA
ATOM     11  C   UNL     1       7.274  14.802  18.438  0.00  0.00    +0.000 C 
ATOM     12  C   UNL     1       7.672  16.273  18.145  0.00  0.00    +0.000 C 
ATOM     13  C   UNL     1       5.844  14.536  17.909  0.00  0.00    +0.000 C 
BRANCH   9  14
ATOM     14  C   UNL     1       9.519  13.213  19.828  0.00  0.00    +0.000 A 
ATOM     15  C   UNL     1       9.468  11.970  19.187  0.00  0.00    +0.000 A 
ATOM     16  C   UNL     1      10.611  11.431  18.583  0.00  0.00    +0.000 A 
ATOM     17  C   UNL     1      11.781  12.179  18.507  0.00  0.00    +0.000 A 
ATOM     18  C   UNL     1      11.811  13.467  19.037  0.00  0.00    +0.000 A 
ATOM     19  C   UNL     1      10.691  13.980  19.701  0.00  0.00    +0.000 A 
ENDBRANCH   9  14
ENDBRANCH   1   3
BRANCH   1  25
ATOM     20  C   UNL     1      -0.663  12.666  18.801  0.00  0.00    +0.000 A 
ATOM     21  C   UNL     1       0.359  11.785  19.181  0.00  0.00    +0.000 A 
ATOM     22  C   UNL     1       1.406  12.255  19.918  0.00  0.00    +0.000 A 
ATOM     23  N   UNL     1       1.946  13.423  19.592  0.00  0.00    +0.000 NA
ATOM     24  C   UNL     1       1.031  14.336  19.214  0.00  0.00    +0.000 A 
ATOM     25  C   UNL     1       1.241  15.697  18.968  0.00  0.00    +0.000 A 
ATOM     26  C   UNL     1      -0.014  16.258  19.145  0.00  0.00    +0.000 A 
ATOM     27  N   UNL     1      -0.956  15.239  19.112  0.00  0.00    +0.000 N 
ATOM     28  C   UNL     1      -0.323  14.021  18.998  0.00  0.00    +0.000 A 
ATOM     29  H   UNL     1      -1.941  15.374  19.301  0.00  0.00    +0.000 HD
BRANCH  20  34
ATOM     30  C   UNL     1      -3.053  10.238  15.432  0.00  0.00    +0.000 C 
ATOM     31  C   UNL     1      -2.883  10.987  16.698  0.00  0.00    +0.000 A 
ATOM     32  C   UNL     1      -3.822  11.270  17.704  0.00  0.00    +0.000 A 
ATOM     33  C   UNL     1      -3.111  11.947  18.689  0.00  0.00    +0.000 A 
ATOM     34  N   UNL     1      -1.811  12.047  18.243  0.00  0.00    +0.000 N 
ATOM     35  N   UNL     1      -1.688  11.492  17.003  0.00  0.00    +0.000 NA
ENDBRANCH  20  34
ENDBRANCH   1  25
TORSDOF 4
ENDMDL
MODEL 6
REMARK VINA RESULT:      -8.4      7.082     10.599
REMARK  Name = 
REMARK  6 active torsions:
REMARK  status: ('A' for Active; 'I' for Inactive)
REMARK    1  A    between atoms: C_1  and  C_2
REMARK    2  A    between atoms: N_5  and  C_6
REMARK    3  A    between atoms: C_11  and  C_12
REMARK    4  A    between atoms: C_12  and  C_14
REMARK    5  A    between atoms: C_20  and  C_22
REMARK    6  A    between atoms: C_28  and  C_29
REMARK                            x       y       z     vdW  Elec       q    Type
REMARK                         _______ _______ _______ _____ _____    ______ ____
ROOT
ATOM      1  C   UNL     1       2.616  16.093  19.030  0.00  0.00    +0.000 C 
ATOM      2  O   UNL     1       2.684  17.237  19.473  0.00  0.00    +0.000 OA
ENDROOT
BRANCH   1   3
ATOM      3  C   UNL     1       3.890  15.557  18.365  0.00  0.00    +0.000 C 
ATOM      4  O   UNL     1       3.889  15.399  17.136  0.00  0.00    +0.000 OA
ATOM      5  N   UNL     1       5.006  15.249  19.166  0.00  0.00    +0.000 N 
ATOM      6  C   UNL     1       4.964  15.074  20.624  0.00  0.00    +0.000 C 
ATOM      7  C   UNL     1       6.308  15.417  21.317  0.00  0.00    +0.000 C 
ATOM      8  N   UNL     1       7.494  14.871  20.620  0.00  0.00    +0.000 N 
ATOM      9  C   UNL     1       8.509  14.292  21.406  0.00  0.00    +0.000 C 
ATOM     10  O   UNL     1       8.389  14.102  22.612  0.00  0.00    +0.000 OA
ATOM     11  C   UNL     1       7.515  15.079  19.154  0.00  0.00    +0.000 C 
ATOM     12  C   UNL     1       7.771  16.573  18.824  0.00  0.00    +0.000 C 
ATOM     13  C   UNL     1       6.171  14.633  18.528  0.00  0.00    +0.000 C 
BRANCH   9  14
ATOM     14  C   UNL     1       9.799  13.808  20.786  0.00  0.00    +0.000 A 
ATOM     15  C   UNL     1      10.773  14.674  20.276  0.00  0.00    +0.000 A 
ATOM     16  C   UNL     1      11.913  14.170  19.639  0.00  0.00    +0.000 A 
ATOM     17  C   UNL     1      12.153  12.801  19.611  0.00  0.00    +0.000 A 
ATOM     18  C   UNL     1      11.250  11.932  20.220  0.00  0.00    +0.000 A 
ATOM     19  C   UNL     1      10.075  12.429  20.797  0.00  0.00    +0.000 A 
ENDBRANCH   9  14
ENDBRANCH   1   3
BRANCH   1  25
ATOM     20  C   UNL     1      -0.295  12.182  18.909  0.00  0.00    +0.000 A 
ATOM     21  C   UNL     1       0.649  11.454  19.647  0.00  0.00    +0.000 A 
ATOM     22  C   UNL     1       1.462  12.111  20.523  0.00  0.00    +0.000 A 
ATOM     23  N   UNL     1       2.003  13.265  20.154  0.00  0.00    +0.000 NA
ATOM     24  C   UNL     1       1.160  14.033  19.437  0.00  0.00    +0.000 A 
ATOM     25  C   UNL     1       1.353  15.361  19.039  0.00  0.00    +0.000 A 
ATOM     26  C   UNL     1       0.064  15.829  18.832  0.00  0.00    +0.000 A 
ATOM     27  N   UNL     1      -0.788  14.737  18.741  0.00  0.00    +0.000 N 
ATOM     28  C   UNL     1      -0.084  13.575  18.967  0.00  0.00    +0.000 A 
ATOM     29  H   UNL     1      -1.795  14.811  18.674  0.00  0.00    +0.000 HD
BRANCH  20  34
ATOM     30  C   UNL     1      -4.531  11.349  16.828  0.00  0.00    +0.000 C 
ATOM     31  C   UNL     1      -3.167  11.020  17.304  0.00  0.00    +0.000 A 
ATOM     32  C   UNL     1      -2.433   9.830  17.166  0.00  0.00    +0.000 A 
ATOM     33  C   UNL     1      -1.196  10.094  17.745  0.00  0.00    +0.000 A 
ATOM     34  N   UNL     1      -1.241  11.393  18.204  0.00  0.00    +0.000 N 
ATOM     35  N   UNL     1      -2.467  11.941  17.966  0.00  0.00    +0.000 NA
ENDBRANCH  20  34
ENDBRANCH   1  25
TORSDOF 4
ENDMDL
MODEL 7
REMARK VINA RESULT:      -8.4      2.751      4.444
REMARK  Name = 
REMARK  6 active torsions:
REMARK  status: ('A' for Active; 'I' for Inactive)
REMARK    1  A    between atoms: C_1  and  C_2
REMARK    2  A    between atoms: N_5  and  C_6
REMARK    3  A    between atoms: C_11  and  C_12
REMARK    4  A    between atoms: C_12  and  C_14
REMARK    5  A    between atoms: C_20  and  C_22
REMARK    6  A    between atoms: C_28  and  C_29
REMARK                            x       y       z     vdW  Elec       q    Type
REMARK                         _______ _______ _______ _____ _____    ______ ____
ROOT
ATOM      1  C   UNL     1       1.081   9.210  20.372  0.00  0.00    +0.000 C 
ATOM      2  O   UNL     1       1.278   9.022  21.570  0.00  0.00    +0.000 OA
ENDROOT
BRANCH   1   3
ATOM      3  C   UNL     1      -0.043  10.194  20.026  0.00  0.00    +0.000 C 
ATOM      4  O   UNL     1      -1.195   9.752  19.907  0.00  0.00    +0.000 OA
ATOM      5  N   UNL     1       0.269  11.554  19.839  0.00  0.00    +0.000 N 
ATOM      6  C   UNL     1       1.623  12.077  19.614  0.00  0.00    +0.000 C 
ATOM      7  C   UNL     1       1.800  13.537  20.106  0.00  0.00    +0.000 C 
ATOM      8  N   UNL     1       0.678  14.430  19.738  0.00  0.00    +0.000 N 
ATOM      9  C   UNL     1       0.991  15.721  19.271  0.00  0.00    +0.000 C 
ATOM     10  O   UNL     1       2.140  16.079  19.030  0.00  0.00    +0.000 OA
ATOM     11  C   UNL     1      -0.674  13.880  19.993  0.00  0.00    +0.000 C 
ATOM     12  C   UNL     1      -0.959  13.832  21.517  0.00  0.00    +0.000 C 
ATOM     13  C   UNL     1      -0.797  12.457  19.398  0.00  0.00    +0.000 C 
BRANCH   9  14
ATOM     14  C   UNL     1      -0.093  16.731  18.977  0.00  0.00    +0.000 A 
ATOM     15  C   UNL     1      -0.223  17.374  17.741  0.00  0.00    +0.000 A 
ATOM     16  C   UNL     1      -1.197  18.362  17.549  0.00  0.00    +0.000 A 
ATOM     17  C   UNL     1      -2.127  18.631  18.547  0.00  0.00    +0.000 A 
ATOM     18  C   UNL     1      -2.084  17.914  19.740  0.00  0.00    +0.000 A 
ATOM     19  C   UNL     1      -1.069  16.975  19.960  0.00  0.00    +0.000 A 
ENDBRANCH   9  14
ENDBRANCH   1   3
BRANCH   1  25
ATOM     20  C   UNL     1       4.046   5.730  18.672  0.00  0.00    +0.000 A 
ATOM     21  C   UNL     1       3.595   4.856  19.670  0.00  0.00    +0.000 A 
ATOM     22  C   UNL     1       2.325   4.988  20.150  0.00  0.00    +0.000 A 
ATOM     23  N   UNL     1       1.859   6.205  20.402  0.00  0.00    +0.000 NA
ATOM     24  C   UNL     1       2.245   7.114  19.487  0.00  0.00    +0.000 A 
ATOM     25  C   UNL     1       1.802   8.435  19.365  0.00  0.00    +0.000 A 
ATOM     26  C   UNL     1       2.058   8.744  18.037  0.00  0.00    +0.000 A 
ATOM     27  N   UNL     1       2.942   7.800  17.533  0.00  0.00    +0.000 N 
ATOM     28  C   UNL     1       3.197   6.842  18.489  0.00  0.00    +0.000 A 
ATOM     29  H   UNL     1       3.223   7.751  16.562  0.00  0.00    +0.000 HD
BRANCH  20  34
ATOM     30  C   UNL     1       6.889   4.493  15.018  0.00  0.00    +0.000 C 
ATOM     31  C   UNL     1       6.544   4.780  16.429  0.00  0.00    +0.000 A 
ATOM     32  C   UNL     1       7.368   4.791  17.568  0.00  0.00    +0.000 A 
ATOM     33  C   UNL     1       6.541   5.181  18.615  0.00  0.00    +0.000 A 
ATOM     34  N   UNL     1       5.285   5.374  18.079  0.00  0.00    +0.000 N 
ATOM     35  N   UNL     1       5.286   5.086  16.746  0.00  0.00    +0.000 NA
ENDBRANCH  20  34
ENDBRANCH   1  25
TORSDOF 4
ENDMDL
MODEL 8
REMARK VINA RESULT:      -8.1      3.482      5.348
REMARK  Name = 
REMARK  6 active torsions:
REMARK  status: ('A' for Active; 'I' for Inactive)
REMARK    1  A    between atoms: C_1  and  C_2
REMARK    2  A    between atoms: N_5  and  C_6
REMARK    3  A    between atoms: C_11  and  C_12
REMARK    4  A    between atoms: C_12  and  C_14
REMARK    5  A    between atoms: C_20  and  C_22
REMARK    6  A    between atoms: C_28  and  C_29
REMARK                            x       y       z     vdW  Elec       q    Type
REMARK                         _______ _______ _______ _____ _____    ______ ____
ROOT
ATOM      1  C   UNL     1       0.458  10.038  18.640  0.00  0.00    +0.000 C 
ATOM      2  O   UNL     1       0.900  10.492  17.588  0.00  0.00    +0.000 OA
ENDROOT
BRANCH   1   3
ATOM      3  C   UNL     1      -0.818  10.703  19.171  0.00  0.00    +0.000 C 
ATOM      4  O   UNL     1      -1.912  10.283  18.765  0.00  0.00    +0.000 OA
ATOM      5  N   UNL     1      -0.708  11.771  20.081  0.00  0.00    +0.000 N 
ATOM      6  C   UNL     1       0.520  12.538  20.324  0.00  0.00    +0.000 C 
ATOM      7  C   UNL     1       0.591  13.138  21.752  0.00  0.00    +0.000 C 
ATOM      8  N   UNL     1      -0.676  13.760  22.200  0.00  0.00    +0.000 N 
ATOM      9  C   UNL     1      -0.599  14.993  22.876  0.00  0.00    +0.000 C 
ATOM     10  O   UNL     1       0.446  15.627  22.984  0.00  0.00    +0.000 OA
ATOM     11  C   UNL     1      -1.894  12.954  21.957  0.00  0.00    +0.000 C 
ATOM     12  C   UNL     1      -1.933  11.732  22.912  0.00  0.00    +0.000 C 
ATOM     13  C   UNL     1      -1.932  12.466  20.489  0.00  0.00    +0.000 C 
BRANCH   9  14
ATOM     14  C   UNL     1      -1.831  15.643  23.461  0.00  0.00    +0.000 A 
ATOM     15  C   UNL     1      -2.649  16.518  22.737  0.00  0.00    +0.000 A 
ATOM     16  C   UNL     1      -3.733  17.155  23.353  0.00  0.00    +0.000 A 
ATOM     17  C   UNL     1      -4.084  16.834  24.660  0.00  0.00    +0.000 A 
ATOM     18  C   UNL     1      -3.349  15.876  25.355  0.00  0.00    +0.000 A 
ATOM     19  C   UNL     1      -2.223  15.289  24.764  0.00  0.00    +0.000 A 
ENDBRANCH   9  14
ENDBRANCH   1   3
BRANCH   1  25
ATOM     20  C   UNL     1       2.965   5.903  19.277  0.00  0.00    +0.000 A 
ATOM     21  C   UNL     1       3.583   6.085  18.032  0.00  0.00    +0.000 A 
ATOM     22  C   UNL     1       3.778   7.349  17.561  0.00  0.00    +0.000 A 
ATOM     23  N   UNL     1       2.801   8.238  17.689  0.00  0.00    +0.000 NA
ATOM     24  C   UNL     1       2.150   8.137  18.863  0.00  0.00    +0.000 A 
ATOM     25  C   UNL     1       1.191   9.014  19.380  0.00  0.00    +0.000 A 
ATOM     26  C   UNL     1       1.243   8.787  20.747  0.00  0.00    +0.000 A 
ATOM     27  N   UNL     1       1.907   7.588  20.964  0.00  0.00    +0.000 N 
ATOM     28  C   UNL     1       2.356   7.078  19.766  0.00  0.00    +0.000 A 
ATOM     29  H   UNL     1       2.153   7.236  21.881  0.00  0.00    +0.000 HD
BRANCH  20  34
ATOM     30  C   UNL     1       1.484   2.275  22.036  0.00  0.00    +0.000 C 
ATOM     31  C   UNL     1       2.358   2.966  21.060  0.00  0.00    +0.000 A 
ATOM     32  C   UNL     1       3.471   2.480  20.355  0.00  0.00    +0.000 A 
ATOM     33  C   UNL     1       3.873   3.530  19.536  0.00  0.00    +0.000 A 
ATOM     34  N   UNL     1       3.013   4.578  19.783  0.00  0.00    +0.000 N 
ATOM     35  N   UNL     1       2.113   4.239  20.749  0.00  0.00    +0.000 NA
ENDBRANCH  20  34
ENDBRANCH   1  25
TORSDOF 4
ENDMDL
MODEL 9
REMARK VINA RESULT:      -8.1      3.601      5.590
REMARK  Name = 
REMARK  6 active torsions:
REMARK  status: ('A' for Active; 'I' for Inactive)
REMARK    1  A    between atoms: C_1  and  C_2
REMARK    2  A    between atoms: N_5  and  C_6
REMARK    3  A    between atoms: C_11  and  C_12
REMARK    4  A    between atoms: C_12  and  C_14
REMARK    5  A    between atoms: C_20  and  C_22
REMARK    6  A    between atoms: C_28  and  C_29
REMARK                            x       y       z     vdW  Elec       q    Type
REMARK                         _______ _______ _______ _____ _____    ______ ____
ROOT
ATOM      1  C   UNL     1       0.653  10.520  19.031  0.00  0.00    +0.000 C 
ATOM      2  O   UNL     1       1.334  11.224  18.290  0.00  0.00    +0.000 OA
ENDROOT
BRANCH   1   3
ATOM      3  C   UNL     1      -0.739  11.062  19.375  0.00  0.00    +0.000 C 
ATOM      4  O   UNL     1      -1.727  10.502  18.878  0.00  0.00    +0.000 OA
ATOM      5  N   UNL     1      -0.851  12.179  20.224  0.00  0.00    +0.000 N 
ATOM      6  C   UNL     1       0.251  13.092  20.553  0.00  0.00    +0.000 C 
ATOM      7  C   UNL     1       0.090  13.766  21.940  0.00  0.00    +0.000 C 
ATOM      8  N   UNL     1      -1.279  14.263  22.205  0.00  0.00    +0.000 N 
ATOM      9  C   UNL     1      -1.414  15.529  22.807  0.00  0.00    +0.000 C 
ATOM     10  O   UNL     1      -0.462  16.281  22.991  0.00  0.00    +0.000 OA
ATOM     11  C   UNL     1      -2.368  13.313  21.879  0.00  0.00    +0.000 C 
ATOM     12  C   UNL     1      -2.388  12.144  22.898  0.00  0.00    +0.000 C 
ATOM     13  C   UNL     1      -2.182  12.751  20.449  0.00  0.00    +0.000 C 
BRANCH   9  14
ATOM     14  C   UNL     1      -2.768  16.064  23.210  0.00  0.00    +0.000 A 
ATOM     15  C   UNL     1      -3.273  15.962  24.511  0.00  0.00    +0.000 A 
ATOM     16  C   UNL     1      -4.568  16.402  24.810  0.00  0.00    +0.000 A 
ATOM     17  C   UNL     1      -5.325  17.058  23.846  0.00  0.00    +0.000 A 
ATOM     18  C   UNL     1      -4.789  17.272  22.578  0.00  0.00    +0.000 A 
ATOM     19  C   UNL     1      -3.522  16.772  22.257  0.00  0.00    +0.000 A 
ENDBRANCH   9  14
ENDBRANCH   1   3
BRANCH   1  25
ATOM     20  C   UNL     1       2.494   6.004  19.129  0.00  0.00    +0.000 A 
ATOM     21  C   UNL     1       3.156   6.247  17.918  0.00  0.00    +0.000 A 
ATOM     22  C   UNL     1       3.549   7.516  17.613  0.00  0.00    +0.000 A 
ATOM     23  N   UNL     1       2.715   8.520  17.855  0.00  0.00    +0.000 NA
ATOM     24  C   UNL     1       2.035   8.371  19.007  0.00  0.00    +0.000 A 
ATOM     25  C   UNL     1       1.209   9.311  19.633  0.00  0.00    +0.000 A 
ATOM     26  C   UNL     1       1.201   8.906  20.960  0.00  0.00    +0.000 A 
ATOM     27  N   UNL     1       1.672   7.602  21.020  0.00  0.00    +0.000 N 
ATOM     28  C   UNL     1       2.061   7.187  19.766  0.00  0.00    +0.000 A 
ATOM     29  H   UNL     1       1.844   7.103  21.884  0.00  0.00    +0.000 HD
BRANCH  20  34
ATOM     30  C   UNL     1       1.392   2.366  22.047  0.00  0.00    +0.000 C 
ATOM     31  C   UNL     1       1.869   3.005  20.799  0.00  0.00    +0.000 A 
ATOM     32  C   UNL     1       2.277   2.416  19.590  0.00  0.00    +0.000 A 
ATOM     33  C   UNL     1       2.564   3.480  18.743  0.00  0.00    +0.000 A 
ATOM     34  N   UNL     1       2.332   4.634  19.461  0.00  0.00    +0.000 N 
ATOM     35  N   UNL     1       1.946   4.334  20.733  0.00  0.00    +0.000 NA
ENDBRANCH  20  34
ENDBRANCH   1  25
TORSDOF 4
ENDMDL
