MODEL 1
REMARK VINA RESULT:      -8.4      0.000      0.000
REMARK  Name = 
REMARK  5 active torsions:
REMARK  status: ('A' for Active; 'I' for Inactive)
REMARK    1  A    between atoms: C_1  and  C_2
REMARK    2  A    between atoms: C_6  and  C_7
REMARK    3  A    between atoms: C_15  and  O_16
REMARK    4  A    between atoms: C_17  and  C_18
REMARK    5  A    between atoms: C_18  and  C_19
REMARK                            x       y       z     vdW  Elec       q    Type
REMARK                         _______ _______ _______ _____ _____    ______ ____
ROOT
ATOM      1  C   UNL     1       0.151   8.548  21.675  0.00  0.00    +0.000 C 
ATOM      2  C   UNL     1       0.989   8.404  20.424  0.00  0.00    +0.000 A 
ATOM      3  N   UNL     1       1.735   7.336  20.365  0.00  0.00    +0.000 NA
ATOM      4  C   UNL     1       2.534   7.193  19.272  0.00  0.00    +0.000 A 
ATOM      5  N   UNL     1       3.395   6.247  18.965  0.00  0.00    +0.000 NA
ATOM      6  C   UNL     1       3.935   6.658  17.770  0.00  0.00    +0.000 A 
ATOM      7  N   UNL     1       3.442   7.819  17.310  0.00  0.00    +0.000 NA
ATOM      8  N   UNL     1       2.552   8.150  18.273  0.00  0.00    +0.000 N 
ATOM      9  C   UNL     1       1.768   9.302  18.334  0.00  0.00    +0.000 A 
ATOM     10  C   UNL     1       0.936   9.502  19.373  0.00  0.00    +0.000 A 
ENDROOT
BRANCH   6  11
ATOM     11  C   UNL     1       4.970   5.912  17.070  0.00  0.00    +0.000 A 
ATOM     12  C   UNL     1       4.737   4.615  16.596  0.00  0.00    +0.000 A 
ATOM     13  C   UNL     1       5.740   3.932  15.914  0.00  0.00    +0.000 A 
ATOM     14  C   UNL     1       6.956   4.569  15.729  0.00  0.00    +0.000 A 
ATOM     15  N   UNL     1       7.225   5.815  16.174  0.00  0.00    +0.000 NA
ATOM     16  C   UNL     1       6.226   6.458  16.835  0.00  0.00    +0.000 A 
ENDBRANCH   6  11
BRANCH   9  17
ATOM     17  O   UNL     1       1.903  10.234  17.312  0.00  0.00    +0.000 OA
ATOM     18  H   UNL     1       1.166  10.055  16.687  0.00  0.00    +0.000 HD
ENDBRANCH   9  17
BRANCH  10  19
ATOM     19  C   UNL     1       0.163  10.777  19.574  0.00  0.00    +0.000 C 
BRANCH  19  20
ATOM     20  C   UNL     1      -1.185  10.863  18.889  0.00  0.00    +0.000 A 
ATOM     21  C   UNL     1      -1.561   9.931  17.913  0.00  0.00    +0.000 A 
ATOM     22  C   UNL     1      -2.846   9.947  17.364  0.00  0.00    +0.000 A 
ATOM     23  C   UNL     1      -3.776  10.894  17.785  0.00  0.00    +0.000 A 
ATOM     24  C   UNL     1      -3.415  11.842  18.739  0.00  0.00    +0.000 A 
ATOM     25  C   UNL     1      -2.125  11.833  19.282  0.00  0.00    +0.000 A 
ENDBRANCH  19  20
ENDBRANCH  10  19
TORSDOF 4
ENDMDL
MODEL 2
REMARK VINA RESULT:      -8.1      0.366      1.048
REMARK  Name = 
REMARK  5 active torsions:
REMARK  status: ('A' for Active; 'I' for Inactive)
REMARK    1  A    between atoms: C_1  and  C_2
REMARK    2  A    between atoms: C_6  and  C_7
REMARK    3  A    between atoms: C_15  and  O_16
REMARK    4  A    between atoms: C_17  and  C_18
REMARK    5  A    between atoms: C_18  and  C_19
REMARK                            x       y       z     vdW  Elec       q    Type
REMARK                         _______ _______ _______ _____ _____    ______ ____
ROOT
ATOM      1  C   UNL     1       0.204   8.827  21.852  0.00  0.00    +0.000 C 
ATOM      2  C   UNL     1       0.978   8.617  20.569  0.00  0.00    +0.000 A 
ATOM      3  N   UNL     1       1.678   7.519  20.506  0.00  0.00    +0.000 NA
ATOM      4  C   UNL     1       2.419   7.316  19.382  0.00  0.00    +0.000 A 
ATOM      5  N   UNL     1       3.229   6.329  19.063  0.00  0.00    +0.000 NA
ATOM      6  C   UNL     1       3.728   6.687  17.835  0.00  0.00    +0.000 A 
ATOM      7  N   UNL     1       3.260   7.854  17.365  0.00  0.00    +0.000 NA
ATOM      8  N   UNL     1       2.429   8.245  18.358  0.00  0.00    +0.000 N 
ATOM      9  C   UNL     1       1.694   9.429  18.422  0.00  0.00    +0.000 A 
ATOM     10  C   UNL     1       0.919   9.689  19.491  0.00  0.00    +0.000 A 
ENDROOT
BRANCH   6  11
ATOM     11  C   UNL     1       4.700   5.882  17.110  0.00  0.00    +0.000 A 
ATOM     12  C   UNL     1       4.506   4.508  16.913  0.00  0.00    +0.000 A 
ATOM     13  C   UNL     1       5.444   3.767  16.201  0.00  0.00    +0.000 A 
ATOM     14  C   UNL     1       6.558   4.424  15.705  0.00  0.00    +0.000 A 
ATOM     15  N   UNL     1       6.787   5.744  15.876  0.00  0.00    +0.000 NA
ATOM     16  C   UNL     1       5.854   6.442  16.574  0.00  0.00    +0.000 A 
ENDBRANCH   6  11
BRANCH   9  17
ATOM     17  O   UNL     1       1.817  10.328  17.370  0.00  0.00    +0.000 OA
ATOM     18  H   UNL     1       2.581  10.904  17.596  0.00  0.00    +0.000 HD
ENDBRANCH   9  17
BRANCH  10  19
ATOM     19  C   UNL     1       0.206  10.999  19.691  0.00  0.00    +0.000 C 
BRANCH  19  20
ATOM     20  C   UNL     1      -1.236  11.058  19.233  0.00  0.00    +0.000 A 
ATOM     21  C   UNL     1      -2.097  12.068  19.681  0.00  0.00    +0.000 A 
ATOM     22  C   UNL     1      -3.393  12.185  19.171  0.00  0.00    +0.000 A 
ATOM     23  C   UNL     1      -3.848  11.292  18.204  0.00  0.00    +0.000 A 
ATOM     24  C   UNL     1      -3.015  10.268  17.762  0.00  0.00    +0.000 A 
ATOM     25  C   UNL     1      -1.720  10.145  18.279  0.00  0.00    +0.000 A 
ENDBRANCH  19  20
ENDBRANCH  10  19
TORSDOF 4
ENDMDL
MODEL 3
REMARK VINA RESULT:      -7.8      0.803      1.078
REMARK  Name = 
REMARK  5 active torsions:
REMARK  status: ('A' for Active; 'I' for Inactive)
REMARK    1  A    between atoms: C_1  and  C_2
REMARK    2  A    between atoms: C_6  and  C_7
REMARK    3  A    between atoms: C_15  and  O_16
REMARK    4  A    between atoms: C_17  and  C_18
REMARK    5  A    between atoms: C_18  and  C_19
REMARK                            x       y       z     vdW  Elec       q    Type
REMARK                         _______ _______ _______ _____ _____    ______ ____
ROOT
ATOM      1  C   UNL     1       0.147   8.980  21.937  0.00  0.00    +0.000 C 
ATOM      2  C   UNL     1       0.895   8.712  20.649  0.00  0.00    +0.000 A 
ATOM      3  N   UNL     1       1.568   7.595  20.609  0.00  0.00    +0.000 NA
ATOM      4  C   UNL     1       2.286   7.340  19.481  0.00  0.00    +0.000 A 
ATOM      5  N   UNL     1       3.067   6.325  19.181  0.00  0.00    +0.000 NA
ATOM      6  C   UNL     1       3.555   6.633  17.935  0.00  0.00    +0.000 A 
ATOM      7  N   UNL     1       3.107   7.796  17.436  0.00  0.00    +0.000 NA
ATOM      8  N   UNL     1       2.302   8.238  18.429  0.00  0.00    +0.000 N 
ATOM      9  C   UNL     1       1.596   9.440  18.468  0.00  0.00    +0.000 A 
ATOM     10  C   UNL     1       0.845   9.751  19.539  0.00  0.00    +0.000 A 
ENDROOT
BRANCH   6  11
ATOM     11  C   UNL     1       4.496   5.783  17.220  0.00  0.00    +0.000 A 
ATOM     12  C   UNL     1       5.548   6.330  16.473  0.00  0.00    +0.000 A 
ATOM     13  C   UNL     1       6.443   5.492  15.814  0.00  0.00    +0.000 A 
ATOM     14  C   UNL     1       6.258   4.124  15.919  0.00  0.00    +0.000 A 
ATOM     15  N   UNL     1       5.255   3.555  16.623  0.00  0.00    +0.000 NA
ATOM     16  C   UNL     1       4.398   4.398  17.257  0.00  0.00    +0.000 A 
ENDBRANCH   6  11
BRANCH   9  17
ATOM     17  O   UNL     1       1.724  10.303  17.386  0.00  0.00    +0.000 OA
ATOM     18  H   UNL     1       0.812  10.458  17.056  0.00  0.00    +0.000 HD
ENDBRANCH   9  17
BRANCH  10  19
ATOM     19  C   UNL     1       0.166  11.084  19.710  0.00  0.00    +0.000 C 
BRANCH  19  20
ATOM     20  C   UNL     1      -1.237  11.202  19.152  0.00  0.00    +0.000 A 
ATOM     21  C   UNL     1      -1.704  10.312  18.176  0.00  0.00    +0.000 A 
ATOM     22  C   UNL     1      -3.033  10.354  17.745  0.00  0.00    +0.000 A 
ATOM     23  C   UNL     1      -3.915  11.287  18.284  0.00  0.00    +0.000 A 
ATOM     24  C   UNL     1      -3.464  12.194  19.239  0.00  0.00    +0.000 A 
ATOM     25  C   UNL     1      -2.131  12.158  19.665  0.00  0.00    +0.000 A 
ENDBRANCH  19  20
ENDBRANCH  10  19
TORSDOF 4
ENDMDL
MODEL 4
REMARK VINA RESULT:      -7.7      2.623      8.187
REMARK  Name = 
REMARK  5 active torsions:
REMARK  status: ('A' for Active; 'I' for Inactive)
REMARK    1  A    between atoms: C_1  and  C_2
REMARK    2  A    between atoms: C_6  and  C_7
REMARK    3  A    between atoms: C_15  and  O_16
REMARK    4  A    between atoms: C_17  and  C_18
REMARK    5  A    between atoms: C_18  and  C_19
REMARK                            x       y       z     vdW  Elec       q    Type
REMARK                         _______ _______ _______ _____ _____    ______ ____
ROOT
ATOM      1  C   UNL     1       2.578   4.466  20.430  0.00  0.00    +0.000 C 
ATOM      2  C   UNL     1       2.219   5.917  20.193  0.00  0.00    +0.000 A 
ATOM      3  N   UNL     1       1.415   6.450  21.071  0.00  0.00    +0.000 NA
ATOM      4  C   UNL     1       1.038   7.742  20.867  0.00  0.00    +0.000 A 
ATOM      5  N   UNL     1       0.229   8.512  21.562  0.00  0.00    +0.000 NA
ATOM      6  C   UNL     1       0.195   9.689  20.855  0.00  0.00    +0.000 A 
ATOM      7  N   UNL     1       0.957   9.693  19.750  0.00  0.00    +0.000 NA
ATOM      8  N   UNL     1       1.487   8.449  19.767  0.00  0.00    +0.000 N 
ATOM      9  C   UNL     1       2.335   7.883  18.815  0.00  0.00    +0.000 A 
ATOM     10  C   UNL     1       2.770   6.618  18.961  0.00  0.00    +0.000 A 
ENDROOT
BRANCH   6  11
ATOM     11  C   UNL     1      -0.613  10.831  21.256  0.00  0.00    +0.000 A 
ATOM     12  C   UNL     1      -0.865  11.106  22.607  0.00  0.00    +0.000 A 
ATOM     13  C   UNL     1      -1.627  12.215  22.961  0.00  0.00    +0.000 A 
ATOM     14  C   UNL     1      -2.121  13.021  21.949  0.00  0.00    +0.000 A 
ATOM     15  N   UNL     1      -1.908  12.789  20.636  0.00  0.00    +0.000 NA
ATOM     16  C   UNL     1      -1.159  11.700  20.320  0.00  0.00    +0.000 A 
ENDBRANCH   6  11
BRANCH   9  17
ATOM     17  O   UNL     1       2.681   8.655  17.713  0.00  0.00    +0.000 OA
ATOM     18  H   UNL     1       2.984   9.518  18.073  0.00  0.00    +0.000 HD
ENDBRANCH   9  17
BRANCH  10  19
ATOM     19  C   UNL     1       3.574   5.898  17.912  0.00  0.00    +0.000 C 
BRANCH  19  20
ATOM     20  C   UNL     1       5.080   6.029  18.010  0.00  0.00    +0.000 A 
ATOM     21  C   UNL     1       5.787   6.891  17.162  0.00  0.00    +0.000 A 
ATOM     22  C   UNL     1       7.160   7.093  17.328  0.00  0.00    +0.000 A 
ATOM     23  C   UNL     1       7.846   6.437  18.347  0.00  0.00    +0.000 A 
ATOM     24  C   UNL     1       7.165   5.560  19.186  0.00  0.00    +0.000 A 
ATOM     25  C   UNL     1       5.792   5.350  19.015  0.00  0.00    +0.000 A 
ENDBRANCH  19  20
ENDBRANCH  10  19
TORSDOF 4
ENDMDL
MODEL 5
REMARK VINA RESULT:      -7.7      2.921      8.147
REMARK  Name = 
REMARK  5 active torsions:
REMARK  status: ('A' for Active; 'I' for Inactive)
REMARK    1  A    between atoms: C_1  and  C_2
REMARK    2  A    between atoms: C_6  and  C_7
REMARK    3  A    between atoms: C_15  and  O_16
REMARK    4  A    between atoms: C_17  and  C_18
REMARK    5  A    between atoms: C_18  and  C_19
REMARK                            x       y       z     vdW  Elec       q    Type
REMARK                         _______ _______ _______ _____ _____    ______ ____
ROOT
ATOM      1  C   UNL     1       2.406   3.868  20.195  0.00  0.00    +0.000 C 
ATOM      2  C   UNL     1       2.234   5.360  20.011  0.00  0.00    +0.000 A 
ATOM      3  N   UNL     1       1.624   5.982  20.981  0.00  0.00    +0.000 NA
ATOM      4  C   UNL     1       1.416   7.319  20.831  0.00  0.00    +0.000 A 
ATOM      5  N   UNL     1       0.813   8.181  21.621  0.00  0.00    +0.000 NA
ATOM      6  C   UNL     1       0.868   9.367  20.930  0.00  0.00    +0.000 A 
ATOM      7  N   UNL     1       1.488   9.287  19.742  0.00  0.00    +0.000 NA
ATOM      8  N   UNL     1       1.831   7.981  19.689  0.00  0.00    +0.000 N 
ATOM      9  C   UNL     1       2.472   7.321  18.641  0.00  0.00    +0.000 A 
ATOM     10  C   UNL     1       2.734   6.004  18.726  0.00  0.00    +0.000 A 
ENDROOT
BRANCH   6  11
ATOM     11  C   UNL     1       0.285  10.602  21.430  0.00  0.00    +0.000 A 
ATOM     12  C   UNL     1      -0.678  10.593  22.449  0.00  0.00    +0.000 A 
ATOM     13  C   UNL     1      -1.206  11.792  22.919  0.00  0.00    +0.000 A 
ATOM     14  C   UNL     1      -0.755  12.973  22.353  0.00  0.00    +0.000 A 
ATOM     15  N   UNL     1       0.166  13.027  21.367  0.00  0.00    +0.000 NA
ATOM     16  C   UNL     1       0.664  11.841  20.928  0.00  0.00    +0.000 A 
ENDBRANCH   6  11
BRANCH   9  17
ATOM     17  O   UNL     1       2.796   8.061  17.509  0.00  0.00    +0.000 OA
ATOM     18  H   UNL     1       3.642   7.688  17.178  0.00  0.00    +0.000 HD
ENDBRANCH   9  17
BRANCH  10  19
ATOM     19  C   UNL     1       3.299   5.201  17.586  0.00  0.00    +0.000 C 
BRANCH  19  20
ATOM     20  C   UNL     1       4.808   5.091  17.521  0.00  0.00    +0.000 A 
ATOM     21  C   UNL     1       5.602   5.375  18.639  0.00  0.00    +0.000 A 
ATOM     22  C   UNL     1       6.983   5.166  18.609  0.00  0.00    +0.000 A 
ATOM     23  C   UNL     1       7.591   4.668  17.460  0.00  0.00    +0.000 A 
ATOM     24  C   UNL     1       6.822   4.399  16.331  0.00  0.00    +0.000 A 
ATOM     25  C   UNL     1       5.440   4.617  16.357  0.00  0.00    +0.000 A 
ENDBRANCH  19  20
ENDBRANCH  10  19
TORSDOF 4
ENDMDL
MODEL 6
REMARK VINA RESULT:      -7.6      2.777      8.114
REMARK  Name = 
REMARK  5 active torsions:
REMARK  status: ('A' for Active; 'I' for Inactive)
REMARK    1  A    between atoms: C_1  and  C_2
REMARK    2  A    between atoms: C_6  and  C_7
REMARK    3  A    between atoms: C_15  and  O_16
REMARK    4  A    between atoms: C_17  and  C_18
REMARK    5  A    between atoms: C_18  and  C_19
REMARK                            x       y       z     vdW  Elec       q    Type
REMARK                         _______ _______ _______ _____ _____    ______ ____
ROOT
ATOM      1  C   UNL     1       2.431   3.403  20.040  0.00  0.00    +0.000 C 
ATOM      2  C   UNL     1       2.290   4.900  19.867  0.00  0.00    +0.000 A 
ATOM      3  N   UNL     1       1.699   5.528  20.845  0.00  0.00    +0.000 NA
ATOM      4  C   UNL     1       1.519   6.870  20.705  0.00  0.00    +0.000 A 
ATOM      5  N   UNL     1       0.940   7.739  21.504  0.00  0.00    +0.000 NA
ATOM      6  C   UNL     1       1.016   8.928  20.821  0.00  0.00    +0.000 A 
ATOM      7  N   UNL     1       1.627   8.844  19.629  0.00  0.00    +0.000 NA
ATOM      8  N   UNL     1       1.942   7.530  19.565  0.00  0.00    +0.000 N 
ATOM      9  C   UNL     1       2.562   6.864  18.508  0.00  0.00    +0.000 A 
ATOM     10  C   UNL     1       2.796   5.541  18.584  0.00  0.00    +0.000 A 
ENDROOT
BRANCH   6  11
ATOM     11  C   UNL     1       0.463  10.173  21.333  0.00  0.00    +0.000 A 
ATOM     12  C   UNL     1       0.540  11.362  20.596  0.00  0.00    +0.000 A 
ATOM     13  C   UNL     1      -0.013  12.533  21.103  0.00  0.00    +0.000 A 
ATOM     14  C   UNL     1      -0.629  12.484  22.343  0.00  0.00    +0.000 A 
ATOM     15  N   UNL     1      -0.720  11.362  23.090  0.00  0.00    +0.000 NA
ATOM     16  C   UNL     1      -0.172  10.233  22.568  0.00  0.00    +0.000 A 
ENDBRANCH   6  11
BRANCH   9  17
ATOM     17  O   UNL     1       2.895   7.604  17.380  0.00  0.00    +0.000 OA
ATOM     18  H   UNL     1       2.501   7.125  16.618  0.00  0.00    +0.000 HD
ENDBRANCH   9  17
BRANCH  10  19
ATOM     19  C   UNL     1       3.336   4.734  17.434  0.00  0.00    +0.000 C 
BRANCH  19  20
ATOM     20  C   UNL     1       4.844   4.626  17.337  0.00  0.00    +0.000 A 
ATOM     21  C   UNL     1       5.471   4.335  16.118  0.00  0.00    +0.000 A 
ATOM     22  C   UNL     1       6.863   4.346  16.008  0.00  0.00    +0.000 A 
ATOM     23  C   UNL     1       7.651   4.648  17.116  0.00  0.00    +0.000 A 
ATOM     24  C   UNL     1       7.048   4.918  18.341  0.00  0.00    +0.000 A 
ATOM     25  C   UNL     1       5.653   4.899  18.454  0.00  0.00    +0.000 A 
ENDBRANCH  19  20
ENDBRANCH  10  19
TORSDOF 4
ENDMDL
MODEL 7
REMARK VINA RESULT:      -7.5      2.454      8.138
REMARK  Name = 
REMARK  5 active torsions:
REMARK  status: ('A' for Active; 'I' for Inactive)
REMARK    1  A    between atoms: C_1  and  C_2
REMARK    2  A    between atoms: C_6  and  C_7
REMARK    3  A    between atoms: C_15  and  O_16
REMARK    4  A    between atoms: C_17  and  C_18
REMARK    5  A    between atoms: C_18  and  C_19
REMARK                            x       y       z     vdW  Elec       q    Type
REMARK                         _______ _______ _______ _____ _____    ______ ____
ROOT
ATOM      1  C   UNL     1       2.449   4.873  20.549  0.00  0.00    +0.000 C 
ATOM      2  C   UNL     1       2.118   6.298  20.159  0.00  0.00    +0.000 A 
ATOM      3  N   UNL     1       1.341   6.942  20.985  0.00  0.00    +0.000 NA
ATOM      4  C   UNL     1       0.989   8.213  20.647  0.00  0.00    +0.000 A 
ATOM      5  N   UNL     1       0.209   9.073  21.264  0.00  0.00    +0.000 NA
ATOM      6  C   UNL     1       0.190  10.168  20.434  0.00  0.00    +0.000 A 
ATOM      7  N   UNL     1       0.934  10.033  19.324  0.00  0.00    +0.000 NA
ATOM      8  N   UNL     1       1.437   8.786  19.469  0.00  0.00    +0.000 N 
ATOM      9  C   UNL     1       2.256   8.100  18.574  0.00  0.00    +0.000 A 
ATOM     10  C   UNL     1       2.665   6.848  18.851  0.00  0.00    +0.000 A 
ENDROOT
BRANCH   6  11
ATOM     11  C   UNL     1      -0.586  11.365  20.718  0.00  0.00    +0.000 A 
ATOM     12  C   UNL     1      -1.617  11.784  19.867  0.00  0.00    +0.000 A 
ATOM     13  C   UNL     1      -2.354  12.924  20.174  0.00  0.00    +0.000 A 
ATOM     14  C   UNL     1      -2.035  13.619  21.328  0.00  0.00    +0.000 A 
ATOM     15  N   UNL     1      -1.046  13.254  22.173  0.00  0.00    +0.000 NA
ATOM     16  C   UNL     1      -0.345  12.137  21.849  0.00  0.00    +0.000 A 
ENDBRANCH   6  11
BRANCH   9  17
ATOM     17  O   UNL     1       2.602   8.739  17.390  0.00  0.00    +0.000 OA
ATOM     18  H   UNL     1       1.847   9.328  17.171  0.00  0.00    +0.000 HD
ENDBRANCH   9  17
BRANCH  10  19
ATOM     19  C   UNL     1       3.437   6.000  17.877  0.00  0.00    +0.000 C 
BRANCH  19  20
ATOM     20  C   UNL     1       4.946   6.057  17.981  0.00  0.00    +0.000 A 
ATOM     21  C   UNL     1       5.698   6.884  17.137  0.00  0.00    +0.000 A 
ATOM     22  C   UNL     1       7.078   7.019  17.309  0.00  0.00    +0.000 A 
ATOM     23  C   UNL     1       7.727   6.329  18.330  0.00  0.00    +0.000 A 
ATOM     24  C   UNL     1       7.001   5.486  19.165  0.00  0.00    +0.000 A 
ATOM     25  C   UNL     1       5.620   5.343  18.988  0.00  0.00    +0.000 A 
ENDBRANCH  19  20
ENDBRANCH  10  19
TORSDOF 4
ENDMDL
MODEL 8
REMARK VINA RESULT:      -7.5      2.763      8.124
REMARK  Name = 
REMARK  5 active torsions:
REMARK  status: ('A' for Active; 'I' for Inactive)
REMARK    1  A    between atoms: C_1  and  C_2
REMARK    2  A    between atoms: C_6  and  C_7
REMARK    3  A    between atoms: C_15  and  O_16
REMARK    4  A    between atoms: C_17  and  C_18
REMARK    5  A    between atoms: C_18  and  C_19
REMARK                            x       y       z     vdW  Elec       q    Type
REMARK                         _______ _______ _______ _____ _____    ______ ____
ROOT
ATOM      1  C   UNL     1       2.532   2.946  20.023  0.00  0.00    +0.000 C 
ATOM      2  C   UNL     1       2.395   4.443  19.848  0.00  0.00    +0.000 A 
ATOM      3  N   UNL     1       1.810   5.075  20.827  0.00  0.00    +0.000 NA
ATOM      4  C   UNL     1       1.635   6.418  20.686  0.00  0.00    +0.000 A 
ATOM      5  N   UNL     1       1.061   7.290  21.486  0.00  0.00    +0.000 NA
ATOM      6  C   UNL     1       1.138   8.478  20.800  0.00  0.00    +0.000 A 
ATOM      7  N   UNL     1       1.744   8.389  19.606  0.00  0.00    +0.000 NA
ATOM      8  N   UNL     1       2.055   7.075  19.543  0.00  0.00    +0.000 N 
ATOM      9  C   UNL     1       2.669   6.405  18.485  0.00  0.00    +0.000 A 
ATOM     10  C   UNL     1       2.898   5.081  18.561  0.00  0.00    +0.000 A 
ENDROOT
BRANCH   6  11
ATOM     11  C   UNL     1       0.591   9.725  21.312  0.00  0.00    +0.000 A 
ATOM     12  C   UNL     1       0.621  10.901  20.550  0.00  0.00    +0.000 A 
ATOM     13  C   UNL     1       0.075  12.075  21.059  0.00  0.00    +0.000 A 
ATOM     14  C   UNL     1      -0.486  12.042  22.325  0.00  0.00    +0.000 A 
ATOM     15  N   UNL     1      -0.531  10.934  23.095  0.00  0.00    +0.000 NA
ATOM     16  C   UNL     1       0.009   9.802  22.572  0.00  0.00    +0.000 A 
ENDBRANCH   6  11
BRANCH   9  17
ATOM     17  O   UNL     1       2.999   7.142  17.354  0.00  0.00    +0.000 OA
ATOM     18  H   UNL     1       3.314   8.013  17.683  0.00  0.00    +0.000 HD
ENDBRANCH   9  17
BRANCH  10  19
ATOM     19  C   UNL     1       3.431   4.270  17.411  0.00  0.00    +0.000 C 
BRANCH  19  20
ATOM     20  C   UNL     1       4.885   4.489  17.049  0.00  0.00    +0.000 A 
ATOM     21  C   UNL     1       5.871   4.585  18.039  0.00  0.00    +0.000 A 
ATOM     22  C   UNL     1       7.223   4.676  17.699  0.00  0.00    +0.000 A 
ATOM     23  C   UNL     1       7.610   4.670  16.362  0.00  0.00    +0.000 A 
ATOM     24  C   UNL     1       6.644   4.598  15.362  0.00  0.00    +0.000 A 
ATOM     25  C   UNL     1       5.289   4.516  15.702  0.00  0.00    +0.000 A 
ENDBRANCH  19  20
ENDBRANCH  10  19
TORSDOF 4
ENDMDL
MODEL 9
REMARK VINA RESULT:      -7.4      1.061      1.336
REMARK  Name = 
REMARK  5 active torsions:
REMARK  status: ('A' for Active; 'I' for Inactive)
REMARK    1  A    between atoms: C_1  and  C_2
REMARK    2  A    between atoms: C_6  and  C_7
REMARK    3  A    between atoms: C_15  and  O_16
REMARK    4  A    between atoms: C_17  and  C_18
REMARK    5  A    between atoms: C_18  and  C_19
REMARK                            x       y       z     vdW  Elec       q    Type
REMARK                         _______ _______ _______ _____ _____    ______ ____
ROOT
ATOM      1  C   UNL     1      -0.018   9.691  22.275  0.00  0.00    +0.000 C 
ATOM      2  C   UNL     1       0.672   9.316  20.981  0.00  0.00    +0.000 A 
ATOM      3  N   UNL     1       1.221   8.133  20.956  0.00  0.00    +0.000 NA
ATOM      4  C   UNL     1       1.885   7.778  19.822  0.00  0.00    +0.000 A 
ATOM      5  N   UNL     1       2.547   6.679  19.532  0.00  0.00    +0.000 NA
ATOM      6  C   UNL     1       3.041   6.906  18.271  0.00  0.00    +0.000 A 
ATOM      7  N   UNL     1       2.711   8.100  17.753  0.00  0.00    +0.000 NA
ATOM      8  N   UNL     1       1.977   8.647  18.749  0.00  0.00    +0.000 N 
ATOM      9  C   UNL     1       1.405   9.918  18.772  0.00  0.00    +0.000 A 
ATOM     10  C   UNL     1       0.712  10.331  19.849  0.00  0.00    +0.000 A 
ENDROOT
BRANCH   6  11
ATOM     11  C   UNL     1       3.872   5.945  17.561  0.00  0.00    +0.000 A 
ATOM     12  C   UNL     1       3.591   4.573  17.598  0.00  0.00    +0.000 A 
ATOM     13  C   UNL     1       4.392   3.679  16.895  0.00  0.00    +0.000 A 
ATOM     14  C   UNL     1       5.460   4.184  16.173  0.00  0.00    +0.000 A 
ATOM     15  N   UNL     1       5.770   5.498  16.114  0.00  0.00    +0.000 NA
ATOM     16  C   UNL     1       4.969   6.347  16.809  0.00  0.00    +0.000 A 
ENDBRANCH   6  11
BRANCH   9  17
ATOM     17  O   UNL     1       1.604  10.740  17.669  0.00  0.00    +0.000 OA
ATOM     18  H   UNL     1       1.094  10.333  16.935  0.00  0.00    +0.000 HD
ENDBRANCH   9  17
BRANCH  10  19
ATOM     19  C   UNL     1       0.184  11.732  20.000  0.00  0.00    +0.000 C 
BRANCH  19  20
ATOM     20  C   UNL     1      -1.285  11.935  19.694  0.00  0.00    +0.000 A 
ATOM     21  C   UNL     1      -1.867  11.385  18.544  0.00  0.00    +0.000 A 
ATOM     22  C   UNL     1      -3.243  11.480  18.322  0.00  0.00    +0.000 A 
ATOM     23  C   UNL     1      -4.059  12.125  19.247  0.00  0.00    +0.000 A 
ATOM     24  C   UNL     1      -3.497  12.698  20.385  0.00  0.00    +0.000 A 
ATOM     25  C   UNL     1      -2.118  12.611  20.603  0.00  0.00    +0.000 A 
ENDBRANCH  19  20
ENDBRANCH  10  19
TORSDOF 4
ENDMDL
