MODEL 1
REMARK VINA RESULT:      -8.2      0.000      0.000
REMARK  Name = 
REMARK  7 active torsions:
REMARK  status: ('A' for Active; 'I' for Inactive)
REMARK    1  A    between atoms: C_1  and  C_2
REMARK    2  A    between atoms: C_4  and  N_5
REMARK    3  A    between atoms: N_9  and  C_10
REMARK    4  A    between atoms: C_10  and  C_11
REMARK    5  A    between atoms: N_13  and  C_14
REMARK    6  A    between atoms: C_14  and  N_15
REMARK    7  A    between atoms: N_15  and  C_16
REMARK                            x       y       z     vdW  Elec       q    Type
REMARK                         _______ _______ _______ _____ _____    ______ ____
ROOT
ATOM      1  C   UNL     1       4.553   4.959  19.179  0.00  0.00    +0.000 A 
ATOM      2  N   UNL     1       4.183   6.202  19.104  0.00  0.00    +0.000 NA
ATOM      3  N   UNL     1       2.876   6.168  19.553  0.00  0.00    +0.000 N 
ATOM      4  C   UNL     1       2.534   4.881  19.874  0.00  0.00    +0.000 A 
ATOM      5  S   UNL     1       1.150   4.203  20.457  0.00  0.00    +0.000 S 
ATOM      6  O   UNL     1       3.617   4.094  19.632  0.00  0.00    +0.000 OA
ENDROOT
BRANCH   1   7
ATOM      7  C   UNL     1       5.880   4.382  18.827  0.00  0.00    +0.000 C 
BRANCH   7  13
ATOM      8  C   UNL     1       7.777   6.777  18.345  0.00  0.00    +0.000 C 
ATOM      9  C   UNL     1       7.225   5.886  17.292  0.00  0.00    +0.000 A 
ATOM     10  N   UNL     1       7.504   5.976  16.006  0.00  0.00    +0.000 NA
ATOM     11  C   UNL     1       6.819   4.945  15.400  0.00  0.00    +0.000 A 
ATOM     12  C   UNL     1       6.105   4.221  16.334  0.00  0.00    +0.000 A 
ATOM     13  N   UNL     1       6.363   4.837  17.534  0.00  0.00    +0.000 N 
BRANCH  11  14
ATOM     14  N   UNL     1       6.904   4.715  13.974  0.00  0.00    +0.000 N 
ATOM     15  O   UNL     1       7.692   5.436  13.344  0.00  0.00    +0.000 OA
ATOM     16  O   UNL     1       6.198   3.823  13.487  0.00  0.00    +0.000 OA
ENDBRANCH  11  14
ENDBRANCH   7  13
ENDBRANCH   1   7
BRANCH   3  17
ATOM     17  C   UNL     1       2.033   7.359  19.590  0.00  0.00    +0.000 C 
BRANCH  17  18
ATOM     18  N   UNL     1       1.886   7.769  20.971  0.00  0.00    +0.000 N 
ATOM     19  H   UNL     1       1.872   6.992  21.619  0.00  0.00    +0.000 HD
BRANCH  18  20
ATOM     20  C   UNL     1       1.076   8.832  21.366  0.00  0.00    +0.000 A 
ATOM     21  C   UNL     1       0.582   9.018  22.663  0.00  0.00    +0.000 A 
ATOM     22  C   UNL     1      -0.315  10.058  22.960  0.00  0.00    +0.000 A 
ATOM     23  C   UNL     1      -0.754  10.907  21.949  0.00  0.00    +0.000 A 
ATOM     24 BR   UNL     1      -1.994  12.283  22.335  0.00  0.00    +0.000 Br
ATOM     25  C   UNL     1      -0.297  10.734  20.648  0.00  0.00    +0.000 A 
ATOM     26  C   UNL     1       0.605   9.702  20.368  0.00  0.00    +0.000 A 
ENDBRANCH  18  20
ENDBRANCH  17  18
ENDBRANCH   3  17
TORSDOF 6
ENDMDL
MODEL 2
REMARK VINA RESULT:      -8.1      1.327      1.669
REMARK  Name = 
REMARK  7 active torsions:
REMARK  status: ('A' for Active; 'I' for Inactive)
REMARK    1  A    between atoms: C_1  and  C_2
REMARK    2  A    between atoms: C_4  and  N_5
REMARK    3  A    between atoms: N_9  and  C_10
REMARK    4  A    between atoms: C_10  and  C_11
REMARK    5  A    between atoms: N_13  and  C_14
REMARK    6  A    between atoms: C_14  and  N_15
REMARK    7  A    between atoms: N_15  and  C_16
REMARK                            x       y       z     vdW  Elec       q    Type
REMARK                         _______ _______ _______ _____ _____    ______ ____
ROOT
ATOM      1  C   UNL     1       4.249   5.464  18.985  0.00  0.00    +0.000 A 
ATOM      2  N   UNL     1       3.415   5.376  19.977  0.00  0.00    +0.000 NA
ATOM      3  N   UNL     1       2.534   6.415  19.738  0.00  0.00    +0.000 N 
ATOM      4  C   UNL     1       2.902   7.076  18.597  0.00  0.00    +0.000 A 
ATOM      5  S   UNL     1       2.266   8.369  17.799  0.00  0.00    +0.000 S 
ATOM      6  O   UNL     1       4.013   6.464  18.106  0.00  0.00    +0.000 OA
ENDROOT
BRANCH   1   7
ATOM      7  C   UNL     1       5.425   4.594  18.707  0.00  0.00    +0.000 C 
BRANCH   7  13
ATOM      8  C   UNL     1       7.754   6.611  18.435  0.00  0.00    +0.000 C 
ATOM      9  C   UNL     1       7.157   5.826  17.324  0.00  0.00    +0.000 A 
ATOM     10  N   UNL     1       7.568   5.858  16.071  0.00  0.00    +0.000 NA
ATOM     11  C   UNL     1       6.772   4.962  15.391  0.00  0.00    +0.000 A 
ATOM     12  C   UNL     1       5.856   4.382  16.245  0.00  0.00    +0.000 A 
ATOM     13  N   UNL     1       6.102   4.948  17.470  0.00  0.00    +0.000 N 
BRANCH  11  14
ATOM     14  N   UNL     1       6.952   4.712  13.977  0.00  0.00    +0.000 N 
ATOM     15  O   UNL     1       7.723   5.473  13.374  0.00  0.00    +0.000 OA
ATOM     16  O   UNL     1       6.335   3.765  13.472  0.00  0.00    +0.000 OA
ENDBRANCH  11  14
ENDBRANCH   7  13
ENDBRANCH   1   7
BRANCH   3  17
ATOM     17  C   UNL     1       1.438   6.731  20.649  0.00  0.00    +0.000 C 
BRANCH  17  18
ATOM     18  N   UNL     1       1.742   7.983  21.310  0.00  0.00    +0.000 N 
ATOM     19  H   UNL     1       2.405   7.883  22.068  0.00  0.00    +0.000 HD
BRANCH  18  20
ATOM     20  C   UNL     1       0.790   8.974  21.536  0.00  0.00    +0.000 A 
ATOM     21  C   UNL     1       0.375   9.913  20.582  0.00  0.00    +0.000 A 
ATOM     22  C   UNL     1      -0.514  10.948  20.917  0.00  0.00    +0.000 A 
ATOM     23  C   UNL     1      -0.974  11.075  22.224  0.00  0.00    +0.000 A 
ATOM     24 BR   UNL     1      -2.139  12.492  22.689  0.00  0.00    +0.000 Br
ATOM     25  C   UNL     1      -0.565  10.170  23.196  0.00  0.00    +0.000 A 
ATOM     26  C   UNL     1       0.312   9.137  22.847  0.00  0.00    +0.000 A 
ENDBRANCH  18  20
ENDBRANCH  17  18
ENDBRANCH   3  17
TORSDOF 6
ENDMDL
MODEL 3
REMARK VINA RESULT:      -8.1      1.315      1.607
REMARK  Name = 
REMARK  7 active torsions:
REMARK  status: ('A' for Active; 'I' for Inactive)
REMARK    1  A    between atoms: C_1  and  C_2
REMARK    2  A    between atoms: C_4  and  N_5
REMARK    3  A    between atoms: N_9  and  C_10
REMARK    4  A    between atoms: C_10  and  C_11
REMARK    5  A    between atoms: N_13  and  C_14
REMARK    6  A    between atoms: C_14  and  N_15
REMARK    7  A    between atoms: N_15  and  C_16
REMARK                            x       y       z     vdW  Elec       q    Type
REMARK                         _______ _______ _______ _____ _____    ______ ____
ROOT
ATOM      1  C   UNL     1       4.835   4.424  19.200  0.00  0.00    +0.000 A 
ATOM      2  N   UNL     1       4.121   5.357  19.752  0.00  0.00    +0.000 NA
ATOM      3  N   UNL     1       2.848   4.817  19.756  0.00  0.00    +0.000 N 
ATOM      4  C   UNL     1       2.877   3.570  19.192  0.00  0.00    +0.000 A 
ATOM      5  S   UNL     1       1.711   2.439  18.917  0.00  0.00    +0.000 S 
ATOM      6  O   UNL     1       4.162   3.311  18.829  0.00  0.00    +0.000 OA
ENDROOT
BRANCH   1   7
ATOM      7  C   UNL     1       6.300   4.439  18.931  0.00  0.00    +0.000 C 
BRANCH   7  13
ATOM      8  C   UNL     1       7.756   7.076  18.233  0.00  0.00    +0.000 C 
ATOM      9  C   UNL     1       7.285   6.064  17.253  0.00  0.00    +0.000 A 
ATOM     10  N   UNL     1       7.461   6.139  15.948  0.00  0.00    +0.000 NA
ATOM     11  C   UNL     1       6.910   4.988  15.428  0.00  0.00    +0.000 A 
ATOM     12  C   UNL     1       6.383   4.204  16.435  0.00  0.00    +0.000 A 
ATOM     13  N   UNL     1       6.618   4.905  17.591  0.00  0.00    +0.000 N 
BRANCH  11  14
ATOM     14  N   UNL     1       6.937   4.710  14.008  0.00  0.00    +0.000 N 
ATOM     15  O   UNL     1       7.661   5.441  13.315  0.00  0.00    +0.000 OA
ATOM     16  O   UNL     1       6.248   3.773  13.586  0.00  0.00    +0.000 OA
ENDBRANCH  11  14
ENDBRANCH   7  13
ENDBRANCH   1   7
BRANCH   3  17
ATOM     17  C   UNL     1       1.689   5.556  20.249  0.00  0.00    +0.000 C 
BRANCH  17  18
ATOM     18  N   UNL     1       2.143   6.841  20.737  0.00  0.00    +0.000 N 
ATOM     19  H   UNL     1       2.425   6.822  21.710  0.00  0.00    +0.000 HD
BRANCH  18  20
ATOM     20  C   UNL     1       1.563   8.048  20.354  0.00  0.00    +0.000 A 
ATOM     21  C   UNL     1       0.667   8.786  21.138  0.00  0.00    +0.000 A 
ATOM     22  C   UNL     1       0.043   9.942  20.640  0.00  0.00    +0.000 A 
ATOM     23  C   UNL     1       0.284  10.354  19.333  0.00  0.00    +0.000 A 
ATOM     24 BR   UNL     1      -0.587  11.886  18.644  0.00  0.00    +0.000 Br
ATOM     25  C   UNL     1       1.152   9.631  18.524  0.00  0.00    +0.000 A 
ATOM     26  C   UNL     1       1.776   8.488  19.036  0.00  0.00    +0.000 A 
ENDBRANCH  18  20
ENDBRANCH  17  18
ENDBRANCH   3  17
TORSDOF 6
ENDMDL
MODEL 4
REMARK VINA RESULT:      -7.9      2.203      2.876
REMARK  Name = 
REMARK  7 active torsions:
REMARK  status: ('A' for Active; 'I' for Inactive)
REMARK    1  A    between atoms: C_1  and  C_2
REMARK    2  A    between atoms: C_4  and  N_5
REMARK    3  A    between atoms: N_9  and  C_10
REMARK    4  A    between atoms: C_10  and  C_11
REMARK    5  A    between atoms: N_13  and  C_14
REMARK    6  A    between atoms: C_14  and  N_15
REMARK    7  A    between atoms: N_15  and  C_16
REMARK                            x       y       z     vdW  Elec       q    Type
REMARK                         _______ _______ _______ _____ _____    ______ ____
ROOT
ATOM      1  C   UNL     1       3.635   3.892  18.148  0.00  0.00    +0.000 A 
ATOM      2  N   UNL     1       2.884   4.917  18.415  0.00  0.00    +0.000 NA
ATOM      3  N   UNL     1       2.380   4.617  19.668  0.00  0.00    +0.000 N 
ATOM      4  C   UNL     1       2.868   3.406  20.081  0.00  0.00    +0.000 A 
ATOM      5  S   UNL     1       2.651   2.521  21.454  0.00  0.00    +0.000 S 
ATOM      6  O   UNL     1       3.681   2.931  19.099  0.00  0.00    +0.000 OA
ENDROOT
BRANCH   1   7
ATOM      7  C   UNL     1       4.447   3.656  16.921  0.00  0.00    +0.000 C 
BRANCH   7  13
ATOM      8  C   UNL     1       6.162   4.094  14.385  0.00  0.00    +0.000 C 
ATOM      9  C   UNL     1       6.320   4.821  15.671  0.00  0.00    +0.000 A 
ATOM     10  N   UNL     1       7.195   5.783  15.892  0.00  0.00    +0.000 NA
ATOM     11  C   UNL     1       6.977   6.200  17.187  0.00  0.00    +0.000 A 
ATOM     12  C   UNL     1       5.957   5.473  17.766  0.00  0.00    +0.000 A 
ATOM     13  N   UNL     1       5.554   4.590  16.795  0.00  0.00    +0.000 N 
BRANCH  11  14
ATOM     14  N   UNL     1       7.748   7.274  17.776  0.00  0.00    +0.000 N 
ATOM     15  O   UNL     1       7.742   8.356  17.171  0.00  0.00    +0.000 OA
ATOM     16  O   UNL     1       8.351   7.043  18.832  0.00  0.00    +0.000 OA
ENDBRANCH  11  14
ENDBRANCH   7  13
ENDBRANCH   1   7
BRANCH   3  17
ATOM     17  C   UNL     1       1.427   5.484  20.353  0.00  0.00    +0.000 C 
BRANCH  17  18
ATOM     18  N   UNL     1       2.111   6.703  20.731  0.00  0.00    +0.000 N 
ATOM     19  H   UNL     1       2.518   6.663  21.657  0.00  0.00    +0.000 HD
BRANCH  18  20
ATOM     20  C   UNL     1       1.651   7.972  20.385  0.00  0.00    +0.000 A 
ATOM     21  C   UNL     1       0.884   8.795  21.219  0.00  0.00    +0.000 A 
ATOM     22  C   UNL     1       0.368  10.019  20.760  0.00  0.00    +0.000 A 
ATOM     23  C   UNL     1       0.589  10.418  19.445  0.00  0.00    +0.000 A 
ATOM     24 BR   UNL     1      -0.139  12.046  18.811  0.00  0.00    +0.000 Br
ATOM     25  C   UNL     1       1.329   9.612  18.589  0.00  0.00    +0.000 A 
ATOM     26  C   UNL     1       1.847   8.401  19.061  0.00  0.00    +0.000 A 
ENDBRANCH  18  20
ENDBRANCH  17  18
ENDBRANCH   3  17
TORSDOF 6
ENDMDL
MODEL 5
REMARK VINA RESULT:      -7.9      2.231      3.063
REMARK  Name = 
REMARK  7 active torsions:
REMARK  status: ('A' for Active; 'I' for Inactive)
REMARK    1  A    between atoms: C_1  and  C_2
REMARK    2  A    between atoms: C_4  and  N_5
REMARK    3  A    between atoms: N_9  and  C_10
REMARK    4  A    between atoms: C_10  and  C_11
REMARK    5  A    between atoms: N_13  and  C_14
REMARK    6  A    between atoms: C_14  and  N_15
REMARK    7  A    between atoms: N_15  and  C_16
REMARK                            x       y       z     vdW  Elec       q    Type
REMARK                         _______ _______ _______ _____ _____    ______ ____
ROOT
ATOM      1  C   UNL     1       3.723   3.898  18.168  0.00  0.00    +0.000 A 
ATOM      2  N   UNL     1       3.005   4.943  18.451  0.00  0.00    +0.000 NA
ATOM      3  N   UNL     1       2.481   4.636  19.693  0.00  0.00    +0.000 N 
ATOM      4  C   UNL     1       2.924   3.402  20.086  0.00  0.00    +0.000 A 
ATOM      5  S   UNL     1       2.665   2.499  21.440  0.00  0.00    +0.000 S 
ATOM      6  O   UNL     1       3.728   2.918  19.101  0.00  0.00    +0.000 OA
ENDROOT
BRANCH   1   7
ATOM      7  C   UNL     1       4.536   3.658  16.944  0.00  0.00    +0.000 C 
BRANCH   7  13
ATOM      8  C   UNL     1       6.253   4.076  14.406  0.00  0.00    +0.000 C 
ATOM      9  C   UNL     1       6.397   4.827  15.680  0.00  0.00    +0.000 A 
ATOM     10  N   UNL     1       7.258   5.805  15.886  0.00  0.00    +0.000 NA
ATOM     11  C   UNL     1       7.030   6.241  17.173  0.00  0.00    +0.000 A 
ATOM     12  C   UNL     1       6.018   5.509  17.761  0.00  0.00    +0.000 A 
ATOM     13  N   UNL     1       5.631   4.604  16.805  0.00  0.00    +0.000 N 
BRANCH  11  14
ATOM     14  N   UNL     1       7.785   7.335  17.746  0.00  0.00    +0.000 N 
ATOM     15  O   UNL     1       8.375   7.101  18.811  0.00  0.00    +0.000 OA
ATOM     16  O   UNL     1       7.793   8.414  17.140  0.00  0.00    +0.000 OA
ENDBRANCH  11  14
ENDBRANCH   7  13
ENDBRANCH   1   7
BRANCH   3  17
ATOM     17  C   UNL     1       1.553   5.523  20.388  0.00  0.00    +0.000 C 
BRANCH  17  18
ATOM     18  N   UNL     1       2.204   6.802  20.583  0.00  0.00    +0.000 N 
ATOM     19  H   UNL     1       2.636   6.895  21.494  0.00  0.00    +0.000 HD
BRANCH  18  20
ATOM     20  C   UNL     1       1.691   7.999  20.090  0.00  0.00    +0.000 A 
ATOM     21  C   UNL     1       1.881   8.470  18.785  0.00  0.00    +0.000 A 
ATOM     22  C   UNL     1       1.420   9.738  18.393  0.00  0.00    +0.000 A 
ATOM     23  C   UNL     1       0.789  10.565  19.316  0.00  0.00    +0.000 A 
ATOM     24 BR   UNL     1       0.202  12.289  18.804  0.00  0.00    +0.000 Br
ATOM     25  C   UNL     1       0.603  10.132  20.624  0.00  0.00    +0.000 A 
ATOM     26  C   UNL     1       1.057   8.863  20.999  0.00  0.00    +0.000 A 
ENDBRANCH  18  20
ENDBRANCH  17  18
ENDBRANCH   3  17
TORSDOF 6
ENDMDL
MODEL 6
REMARK VINA RESULT:      -7.8      0.877      1.320
REMARK  Name = 
REMARK  7 active torsions:
REMARK  status: ('A' for Active; 'I' for Inactive)
REMARK    1  A    between atoms: C_1  and  C_2
REMARK    2  A    between atoms: C_4  and  N_5
REMARK    3  A    between atoms: N_9  and  C_10
REMARK    4  A    between atoms: C_10  and  C_11
REMARK    5  A    between atoms: N_13  and  C_14
REMARK    6  A    between atoms: C_14  and  N_15
REMARK    7  A    between atoms: N_15  and  C_16
REMARK                            x       y       z     vdW  Elec       q    Type
REMARK                         _______ _______ _______ _____ _____    ______ ____
ROOT
ATOM      1  C   UNL     1       4.876   4.672  19.370  0.00  0.00    +0.000 A 
ATOM      2  N   UNL     1       4.114   5.700  19.589  0.00  0.00    +0.000 NA
ATOM      3  N   UNL     1       2.873   5.130  19.804  0.00  0.00    +0.000 N 
ATOM      4  C   UNL     1       2.969   3.768  19.696  0.00  0.00    +0.000 A 
ATOM      5  S   UNL     1       1.866   2.553  19.846  0.00  0.00    +0.000 S 
ATOM      6  O   UNL     1       4.265   3.467  19.413  0.00  0.00    +0.000 OA
ENDROOT
BRANCH   1   7
ATOM      7  C   UNL     1       6.337   4.669  19.079  0.00  0.00    +0.000 C 
BRANCH   7  13
ATOM      8  C   UNL     1       7.875   7.208  18.210  0.00  0.00    +0.000 C 
ATOM      9  C   UNL     1       7.338   6.167  17.295  0.00  0.00    +0.000 A 
ATOM     10  N   UNL     1       7.480   6.169  15.984  0.00  0.00    +0.000 NA
ATOM     11  C   UNL     1       6.871   5.017  15.539  0.00  0.00    +0.000 A 
ATOM     12  C   UNL     1       6.343   4.306  16.597  0.00  0.00    +0.000 A 
ATOM     13  N   UNL     1       6.636   5.054  17.710  0.00  0.00    +0.000 N 
BRANCH  11  14
ATOM     14  N   UNL     1       6.848   4.667  14.134  0.00  0.00    +0.000 N 
ATOM     15  O   UNL     1       7.547   5.361  13.380  0.00  0.00    +0.000 OA
ATOM     16  O   UNL     1       6.146   3.710  13.786  0.00  0.00    +0.000 OA
ENDBRANCH  11  14
ENDBRANCH   7  13
ENDBRANCH   1   7
BRANCH   3  17
ATOM     17  C   UNL     1       1.677   5.932  20.043  0.00  0.00    +0.000 C 
BRANCH  17  18
ATOM     18  N   UNL     1       2.045   7.063  20.868  0.00  0.00    +0.000 N 
ATOM     19  H   UNL     1       2.380   6.796  21.786  0.00  0.00    +0.000 HD
BRANCH  18  20
ATOM     20  C   UNL     1       1.343   8.266  20.866  0.00  0.00    +0.000 A 
ATOM     21  C   UNL     1       1.173   9.087  19.744  0.00  0.00    +0.000 A 
ATOM     22  C   UNL     1       0.541  10.338  19.844  0.00  0.00    +0.000 A 
ATOM     23  C   UNL     1       0.099  10.796  21.081  0.00  0.00    +0.000 A 
ATOM     24 BR   UNL     1      -0.716  12.498  21.229  0.00  0.00    +0.000 Br
ATOM     25  C   UNL     1       0.271  10.012  22.216  0.00  0.00    +0.000 A 
ATOM     26  C   UNL     1       0.892   8.764  22.100  0.00  0.00    +0.000 A 
ENDBRANCH  18  20
ENDBRANCH  17  18
ENDBRANCH   3  17
TORSDOF 6
ENDMDL
MODEL 7
REMARK VINA RESULT:      -7.8      0.875      1.100
REMARK  Name = 
REMARK  7 active torsions:
REMARK  status: ('A' for Active; 'I' for Inactive)
REMARK    1  A    between atoms: C_1  and  C_2
REMARK    2  A    between atoms: C_4  and  N_5
REMARK    3  A    between atoms: N_9  and  C_10
REMARK    4  A    between atoms: C_10  and  C_11
REMARK    5  A    between atoms: N_13  and  C_14
REMARK    6  A    between atoms: C_14  and  N_15
REMARK    7  A    between atoms: N_15  and  C_16
REMARK                            x       y       z     vdW  Elec       q    Type
REMARK                         _______ _______ _______ _____ _____    ______ ____
ROOT
ATOM      1  C   UNL     1       4.750   4.543  19.057  0.00  0.00    +0.000 A 
ATOM      2  N   UNL     1       4.198   5.493  19.750  0.00  0.00    +0.000 NA
ATOM      3  N   UNL     1       2.855   5.166  19.715  0.00  0.00    +0.000 N 
ATOM      4  C   UNL     1       2.681   4.019  18.987  0.00  0.00    +0.000 A 
ATOM      5  S   UNL     1       1.347   3.136  18.592  0.00  0.00    +0.000 S 
ATOM      6  O   UNL     1       3.906   3.612  18.558  0.00  0.00    +0.000 OA
ENDROOT
BRANCH   1   7
ATOM      7  C   UNL     1       6.197   4.363  18.754  0.00  0.00    +0.000 C 
BRANCH   7  13
ATOM      8  C   UNL     1       7.687   7.006  18.154  0.00  0.00    +0.000 C 
ATOM      9  C   UNL     1       7.241   6.016  17.140  0.00  0.00    +0.000 A 
ATOM     10  N   UNL     1       7.455   6.116  15.842  0.00  0.00    +0.000 NA
ATOM     11  C   UNL     1       6.914   4.980  15.283  0.00  0.00    +0.000 A 
ATOM     12  C   UNL     1       6.354   4.178  16.257  0.00  0.00    +0.000 A 
ATOM     13  N   UNL     1       6.558   4.854  17.434  0.00  0.00    +0.000 N 
BRANCH  11  14
ATOM     14  N   UNL     1       6.983   4.731  13.859  0.00  0.00    +0.000 N 
ATOM     15  O   UNL     1       6.252   3.830  13.419  0.00  0.00    +0.000 OA
ATOM     16  O   UNL     1       7.753   5.427  13.184  0.00  0.00    +0.000 OA
ENDBRANCH  11  14
ENDBRANCH   7  13
ENDBRANCH   1   7
BRANCH   3  17
ATOM     17  C   UNL     1       1.832   6.003  20.334  0.00  0.00    +0.000 C 
BRANCH  17  18
ATOM     18  N   UNL     1       2.018   7.364  19.874  0.00  0.00    +0.000 N 
ATOM     19  H   UNL     1       2.956   7.547  19.540  0.00  0.00    +0.000 HD
BRANCH  18  20
ATOM     20  C   UNL     1       1.427   8.463  20.492  0.00  0.00    +0.000 A 
ATOM     21  C   UNL     1       1.099   8.531  21.852  0.00  0.00    +0.000 A 
ATOM     22  C   UNL     1       0.408   9.634  22.381  0.00  0.00    +0.000 A 
ATOM     23  C   UNL     1       0.009  10.671  21.544  0.00  0.00    +0.000 A 
ATOM     24 BR   UNL     1      -0.957  12.140  22.245  0.00  0.00    +0.000 Br
ATOM     25  C   UNL     1       0.303  10.622  20.187  0.00  0.00    +0.000 A 
ATOM     26  C   UNL     1       1.001   9.524  19.674  0.00  0.00    +0.000 A 
ENDBRANCH  18  20
ENDBRANCH  17  18
ENDBRANCH   3  17
TORSDOF 6
ENDMDL
MODEL 8
REMARK VINA RESULT:      -7.7      1.951      2.547
REMARK  Name = 
REMARK  7 active torsions:
REMARK  status: ('A' for Active; 'I' for Inactive)
REMARK    1  A    between atoms: C_1  and  C_2
REMARK    2  A    between atoms: C_4  and  N_5
REMARK    3  A    between atoms: N_9  and  C_10
REMARK    4  A    between atoms: C_10  and  C_11
REMARK    5  A    between atoms: N_13  and  C_14
REMARK    6  A    between atoms: C_14  and  N_15
REMARK    7  A    between atoms: N_15  and  C_16
REMARK                            x       y       z     vdW  Elec       q    Type
REMARK                         _______ _______ _______ _____ _____    ______ ____
ROOT
ATOM      1  C   UNL     1       3.500   4.160  18.292  0.00  0.00    +0.000 A 
ATOM      2  N   UNL     1       2.951   5.277  18.663  0.00  0.00    +0.000 NA
ATOM      3  N   UNL     1       2.416   4.967  19.900  0.00  0.00    +0.000 N 
ATOM      4  C   UNL     1       2.680   3.657  20.200  0.00  0.00    +0.000 A 
ATOM      5  S   UNL     1       2.320   2.712  21.501  0.00  0.00    +0.000 S 
ATOM      6  O   UNL     1       3.381   3.129  19.160  0.00  0.00    +0.000 OA
ENDROOT
BRANCH   1   7
ATOM      7  C   UNL     1       4.242   3.886  17.030  0.00  0.00    +0.000 C 
BRANCH   7  13
ATOM      8  C   UNL     1       5.901   4.206  14.440  0.00  0.00    +0.000 C 
ATOM      9  C   UNL     1       6.146   4.925  15.717  0.00  0.00    +0.000 A 
ATOM     10  N   UNL     1       7.087   5.829  15.905  0.00  0.00    +0.000 NA
ATOM     11  C   UNL     1       6.937   6.262  17.205  0.00  0.00    +0.000 A 
ATOM     12  C   UNL     1       5.891   5.604  17.818  0.00  0.00    +0.000 A 
ATOM     13  N   UNL     1       5.402   4.746  16.865  0.00  0.00    +0.000 N 
BRANCH  11  14
ATOM     14  N   UNL     1       7.794   7.286  17.765  0.00  0.00    +0.000 N 
ATOM     15  O   UNL     1       8.343   7.017  18.844  0.00  0.00    +0.000 OA
ATOM     16  O   UNL     1       7.923   8.343  17.135  0.00  0.00    +0.000 OA
ENDBRANCH  11  14
ENDBRANCH   7  13
ENDBRANCH   1   7
BRANCH   3  17
ATOM     17  C   UNL     1       1.645   5.931  20.679  0.00  0.00    +0.000 C 
BRANCH  17  18
ATOM     18  N   UNL     1       1.999   7.263  20.235  0.00  0.00    +0.000 N 
ATOM     19  H   UNL     1       2.994   7.387  20.100  0.00  0.00    +0.000 HD
BRANCH  18  20
ATOM     20  C   UNL     1       1.355   8.411  20.688  0.00  0.00    +0.000 A 
ATOM     21  C   UNL     1       0.896   8.603  21.998  0.00  0.00    +0.000 A 
ATOM     22  C   UNL     1       0.162   9.747  22.353  0.00  0.00    +0.000 A 
ATOM     23  C   UNL     1      -0.148  10.701  21.389  0.00  0.00    +0.000 A 
ATOM     24 BR   UNL     1      -1.171  12.224  21.854  0.00  0.00    +0.000 Br
ATOM     25  C   UNL     1       0.277  10.529  20.077  0.00  0.00    +0.000 A 
ATOM     26  C   UNL     1       1.016   9.391  19.739  0.00  0.00    +0.000 A 
ENDBRANCH  18  20
ENDBRANCH  17  18
ENDBRANCH   3  17
TORSDOF 6
ENDMDL
MODEL 9
REMARK VINA RESULT:      -7.5      3.006      4.096
REMARK  Name = 
REMARK  7 active torsions:
REMARK  status: ('A' for Active; 'I' for Inactive)
REMARK    1  A    between atoms: C_1  and  C_2
REMARK    2  A    between atoms: C_4  and  N_5
REMARK    3  A    between atoms: N_9  and  C_10
REMARK    4  A    between atoms: C_10  and  C_11
REMARK    5  A    between atoms: N_13  and  C_14
REMARK    6  A    between atoms: C_14  and  N_15
REMARK    7  A    between atoms: N_15  and  C_16
REMARK                            x       y       z     vdW  Elec       q    Type
REMARK                         _______ _______ _______ _____ _____    ______ ____
ROOT
ATOM      1  C   UNL     1       2.270   6.891  19.819  0.00  0.00    +0.000 A 
ATOM      2  N   UNL     1       2.319   7.742  18.840  0.00  0.00    +0.000 NA
ATOM      3  N   UNL     1       1.620   8.828  19.335  0.00  0.00    +0.000 N 
ATOM      4  C   UNL     1       1.184   8.555  20.603  0.00  0.00    +0.000 A 
ATOM      5  S   UNL     1       0.321   9.427  21.703  0.00  0.00    +0.000 S 
ATOM      6  O   UNL     1       1.602   7.299  20.922  0.00  0.00    +0.000 OA
ENDROOT
BRANCH   1   7
ATOM      7  C   UNL     1       2.863   5.525  19.866  0.00  0.00    +0.000 C 
BRANCH   7  13
ATOM      8  C   UNL     1       2.233   3.892  17.316  0.00  0.00    +0.000 C 
ATOM      9  C   UNL     1       3.521   4.571  17.611  0.00  0.00    +0.000 A 
ATOM     10  N   UNL     1       4.562   4.600  16.802  0.00  0.00    +0.000 NA
ATOM     11  C   UNL     1       5.516   5.359  17.442  0.00  0.00    +0.000 A 
ATOM     12  C   UNL     1       5.049   5.794  18.667  0.00  0.00    +0.000 A 
ATOM     13  N   UNL     1       3.782   5.276  18.768  0.00  0.00    +0.000 N 
BRANCH  11  14
ATOM     14  N   UNL     1       6.802   5.630  16.835  0.00  0.00    +0.000 N 
ATOM     15  O   UNL     1       7.484   4.643  16.522  0.00  0.00    +0.000 OA
ATOM     16  O   UNL     1       7.127   6.812  16.667  0.00  0.00    +0.000 OA
ENDBRANCH  11  14
ENDBRANCH   7  13
ENDBRANCH   1   7
BRANCH   3  17
ATOM     17  C   UNL     1       1.373  10.026  18.537  0.00  0.00    +0.000 C 
BRANCH  17  18
ATOM     18  N   UNL     1       0.301   9.740  17.606  0.00  0.00    +0.000 N 
ATOM     19  H   UNL     1       0.593   9.774  16.638  0.00  0.00    +0.000 HD
BRANCH  18  20
ATOM     20  C   UNL     1      -1.010  10.167  17.803  0.00  0.00    +0.000 A 
ATOM     21  C   UNL     1      -2.102   9.777  17.017  0.00  0.00    +0.000 A 
ATOM     22  C   UNL     1      -3.377  10.333  17.213  0.00  0.00    +0.000 A 
ATOM     23  C   UNL     1      -3.567  11.315  18.181  0.00  0.00    +0.000 A 
ATOM     24 BR   UNL     1      -5.273  12.096  18.420  0.00  0.00    +0.000 Br
ATOM     25  C   UNL     1      -2.498  11.737  18.962  0.00  0.00    +0.000 A 
ATOM     26  C   UNL     1      -1.236  11.167  18.765  0.00  0.00    +0.000 A 
ENDBRANCH  18  20
ENDBRANCH  17  18
ENDBRANCH   3  17
TORSDOF 6
ENDMDL
