MODEL 1
REMARK VINA RESULT:      -7.7      0.000      0.000
REMARK  Name = 
REMARK  9 active torsions:
REMARK  status: ('A' for Active; 'I' for Inactive)
REMARK    1  A    between atoms: C_1  and  C_2
REMARK    2  A    between atoms: C_2  and  C_3
REMARK    3  A    between atoms: C_2  and  C_4
REMARK    4  A    between atoms: C_4  and  C_5
REMARK    5  A    between atoms: C_5  and  C_6
REMARK    6  A    between atoms: C_5  and  N_7
REMARK    7  A    between atoms: C_11  and  N_12
REMARK    8  A    between atoms: C_13  and  C_15
REMARK    9  A    between atoms: C_19  and  C_20
REMARK                            x       y       z     vdW  Elec       q    Type
REMARK                         _______ _______ _______ _____ _____    ______ ____
ROOT
ATOM      1  N   UNL     1       5.290   3.334  18.807  0.00  0.00    +0.000 N 
ATOM      2  C   UNL     1       5.836   4.674  18.744  0.00  0.00    +0.000 C 
ATOM      3  O   UNL     1       5.740   5.451  19.680  0.00  0.00    +0.000 OA
ATOM      4  H   UNL     1       5.345   2.818  17.929  0.00  0.00    +0.000 HD
ENDROOT
BRANCH   1   9
ATOM      5  N   UNL     1       2.946   3.655  19.686  0.00  0.00    +0.000 N 
ATOM      6  N   UNL     1       2.206   3.173  20.716  0.00  0.00    +0.000 NA
ATOM      7  C   UNL     1       3.022   2.333  21.350  0.00  0.00    +0.000 A 
ATOM      8  C   UNL     1       4.281   2.253  20.738  0.00  0.00    +0.000 A 
ATOM      9  C   UNL     1       4.206   3.085  19.645  0.00  0.00    +0.000 A 
BRANCH   5  10
ATOM     10  C   UNL     1       2.385   4.780  18.950  0.00  0.00    +0.000 C 
ATOM     11  C   UNL     1       1.434   4.312  17.842  0.00  0.00    +0.000 C 
BRANCH  10  12
ATOM     12  C   UNL     1       1.706   5.842  19.825  0.00  0.00    +0.000 C 
BRANCH  12  14
ATOM     13  C   UNL     1       2.321   7.890  18.381  0.00  0.00    +0.000 C 
ATOM     14  C   UNL     1       2.288   7.271  19.783  0.00  0.00    +0.000 C 
ATOM     15  C   UNL     1       1.439   8.152  20.708  0.00  0.00    +0.000 C 
ENDBRANCH  12  14
ENDBRANCH  10  12
ENDBRANCH   5  10
ENDBRANCH   1   9
BRANCH   2  16
ATOM     16  C   UNL     1       6.391   4.873  17.413  0.00  0.00    +0.000 A 
ATOM     17  N   UNL     1       6.160   3.941  16.394  0.00  0.00    +0.000 NA
ATOM     18  C   UNL     1       6.749   4.472  15.344  0.00  0.00    +0.000 A 
ATOM     19  O   UNL     1       7.334   5.667  15.572  0.00  0.00    +0.000 OA
ATOM     20  C   UNL     1       7.122   5.948  16.906  0.00  0.00    +0.000 A 
BRANCH  20  21
ATOM     21  C   UNL     1       7.621   7.156  17.488  0.00  0.00    +0.000 A 
ATOM     22  C   UNL     1       8.373   7.285  18.651  0.00  0.00    +0.000 A 
ATOM     23  C   UNL     1       8.609   8.664  18.850  0.00  0.00    +0.000 A 
ATOM     24  C   UNL     1       7.989   9.305  17.806  0.00  0.00    +0.000 A 
ATOM     25  O   UNL     1       7.395   8.405  16.981  0.00  0.00    +0.000 OA
ENDBRANCH  20  21
ENDBRANCH   2  16
TORSDOF 6
ENDMDL
MODEL 2
REMARK VINA RESULT:      -7.5      0.835      1.228
REMARK  Name = 
REMARK  9 active torsions:
REMARK  status: ('A' for Active; 'I' for Inactive)
REMARK    1  A    between atoms: C_1  and  C_2
REMARK    2  A    between atoms: C_2  and  C_3
REMARK    3  A    between atoms: C_2  and  C_4
REMARK    4  A    between atoms: C_4  and  C_5
REMARK    5  A    between atoms: C_5  and  C_6
REMARK    6  A    between atoms: C_5  and  N_7
REMARK    7  A    between atoms: C_11  and  N_12
REMARK    8  A    between atoms: C_13  and  C_15
REMARK    9  A    between atoms: C_19  and  C_20
REMARK                            x       y       z     vdW  Elec       q    Type
REMARK                         _______ _______ _______ _____ _____    ______ ____
ROOT
ATOM      1  N   UNL     1       5.363   3.398  18.582  0.00  0.00    +0.000 N 
ATOM      2  C   UNL     1       6.007   4.692  18.657  0.00  0.00    +0.000 C 
ATOM      3  O   UNL     1       5.940   5.384  19.661  0.00  0.00    +0.000 OA
ATOM      4  H   UNL     1       5.406   2.962  17.660  0.00  0.00    +0.000 HD
ENDROOT
BRANCH   1   9
ATOM      5  N   UNL     1       2.946   3.633  19.270  0.00  0.00    +0.000 N 
ATOM      6  N   UNL     1       2.167   3.203  20.293  0.00  0.00    +0.000 NA
ATOM      7  C   UNL     1       2.988   2.489  21.061  0.00  0.00    +0.000 A 
ATOM      8  C   UNL     1       4.291   2.440  20.544  0.00  0.00    +0.000 A 
ATOM      9  C   UNL     1       4.240   3.154  19.369  0.00  0.00    +0.000 A 
BRANCH   5  10
ATOM     10  C   UNL     1       2.367   4.638  18.388  0.00  0.00    +0.000 C 
ATOM     11  C   UNL     1       1.054   4.153  17.764  0.00  0.00    +0.000 C 
BRANCH  10  12
ATOM     12  C   UNL     1       2.177   6.019  19.029  0.00  0.00    +0.000 C 
BRANCH  12  14
ATOM     13  C   UNL     1       1.947   8.578  18.793  0.00  0.00    +0.000 C 
ATOM     14  C   UNL     1       2.274   7.250  18.102  0.00  0.00    +0.000 C 
ATOM     15  C   UNL     1       3.701   7.305  17.541  0.00  0.00    +0.000 C 
ENDBRANCH  12  14
ENDBRANCH  10  12
ENDBRANCH   5  10
ENDBRANCH   1   9
BRANCH   2  16
ATOM     16  C   UNL     1       6.613   4.972  17.364  0.00  0.00    +0.000 A 
ATOM     17  N   UNL     1       6.460   4.081  16.294  0.00  0.00    +0.000 NA
ATOM     18  C   UNL     1       7.076   4.679  15.297  0.00  0.00    +0.000 A 
ATOM     19  O   UNL     1       7.609   5.881  15.605  0.00  0.00    +0.000 OA
ATOM     20  C   UNL     1       7.327   6.093  16.940  0.00  0.00    +0.000 A 
BRANCH  20  21
ATOM     21  C   UNL     1       7.757   7.288  17.598  0.00  0.00    +0.000 A 
ATOM     22  C   UNL     1       7.515   8.600  17.206  0.00  0.00    +0.000 A 
ATOM     23  C   UNL     1       8.157   9.445  18.140  0.00  0.00    +0.000 A 
ATOM     24  C   UNL     1       8.759   8.610  19.048  0.00  0.00    +0.000 A 
ATOM     25  O   UNL     1       8.521   7.311  18.731  0.00  0.00    +0.000 OA
ENDBRANCH  20  21
ENDBRANCH   2  16
TORSDOF 6
ENDMDL
MODEL 3
REMARK VINA RESULT:      -7.4      2.315      3.570
REMARK  Name = 
REMARK  9 active torsions:
REMARK  status: ('A' for Active; 'I' for Inactive)
REMARK    1  A    between atoms: C_1  and  C_2
REMARK    2  A    between atoms: C_2  and  C_3
REMARK    3  A    between atoms: C_2  and  C_4
REMARK    4  A    between atoms: C_4  and  C_5
REMARK    5  A    between atoms: C_5  and  C_6
REMARK    6  A    between atoms: C_5  and  N_7
REMARK    7  A    between atoms: C_11  and  N_12
REMARK    8  A    between atoms: C_13  and  C_15
REMARK    9  A    between atoms: C_19  and  C_20
REMARK                            x       y       z     vdW  Elec       q    Type
REMARK                         _______ _______ _______ _____ _____    ______ ____
ROOT
ATOM      1  N   UNL     1       4.458   5.607  19.655  0.00  0.00    +0.000 N 
ATOM      2  C   UNL     1       4.901   5.650  18.277  0.00  0.00    +0.000 C 
ATOM      3  O   UNL     1       4.129   5.885  17.362  0.00  0.00    +0.000 OA
ATOM      4  H   UNL     1       5.174   5.303  20.315  0.00  0.00    +0.000 HD
ENDROOT
BRANCH   1   9
ATOM      5  N   UNL     1       2.033   6.081  20.166  0.00  0.00    +0.000 N 
ATOM      6  N   UNL     1       0.929   5.353  20.467  0.00  0.00    +0.000 NA
ATOM      7  C   UNL     1       1.350   4.090  20.464  0.00  0.00    +0.000 A 
ATOM      8  C   UNL     1       2.714   3.987  20.153  0.00  0.00    +0.000 A 
ATOM      9  C   UNL     1       3.133   5.278  19.929  0.00  0.00    +0.000 A 
BRANCH   5  10
ATOM     10  C   UNL     1       1.925   7.526  20.327  0.00  0.00    +0.000 C 
ATOM     11  C   UNL     1       1.992   8.251  18.978  0.00  0.00    +0.000 C 
BRANCH  10  12
ATOM     12  C   UNL     1       0.700   7.991  21.125  0.00  0.00    +0.000 C 
BRANCH  12  14
ATOM     13  C   UNL     1      -0.233  10.370  20.771  0.00  0.00    +0.000 C 
ATOM     14  C   UNL     1       0.680   9.460  21.600  0.00  0.00    +0.000 C 
ATOM     15  C   UNL     1       0.221   9.475  23.063  0.00  0.00    +0.000 C 
ENDBRANCH  12  14
ENDBRANCH  10  12
ENDBRANCH   5  10
ENDBRANCH   1   9
BRANCH   2  16
ATOM     16  C   UNL     1       6.314   5.302  18.245  0.00  0.00    +0.000 A 
ATOM     17  N   UNL     1       7.083   5.320  19.417  0.00  0.00    +0.000 NA
ATOM     18  C   UNL     1       8.265   4.900  19.022  0.00  0.00    +0.000 A 
ATOM     19  O   UNL     1       8.346   4.598  17.709  0.00  0.00    +0.000 OA
ATOM     20  C   UNL     1       7.096   4.854  17.181  0.00  0.00    +0.000 A 
BRANCH  20  21
ATOM     21  C   UNL     1       6.831   4.640  15.792  0.00  0.00    +0.000 A 
ATOM     22  C   UNL     1       5.925   3.744  15.233  0.00  0.00    +0.000 A 
ATOM     23  C   UNL     1       6.029   3.860  13.828  0.00  0.00    +0.000 A 
ATOM     24  C   UNL     1       6.991   4.811  13.600  0.00  0.00    +0.000 A 
ATOM     25  O   UNL     1       7.476   5.289  14.776  0.00  0.00    +0.000 OA
ENDBRANCH  20  21
ENDBRANCH   2  16
TORSDOF 6
ENDMDL
MODEL 4
REMARK VINA RESULT:      -7.4      1.511      2.118
REMARK  Name = 
REMARK  9 active torsions:
REMARK  status: ('A' for Active; 'I' for Inactive)
REMARK    1  A    between atoms: C_1  and  C_2
REMARK    2  A    between atoms: C_2  and  C_3
REMARK    3  A    between atoms: C_2  and  C_4
REMARK    4  A    between atoms: C_4  and  C_5
REMARK    5  A    between atoms: C_5  and  C_6
REMARK    6  A    between atoms: C_5  and  N_7
REMARK    7  A    between atoms: C_11  and  N_12
REMARK    8  A    between atoms: C_13  and  C_15
REMARK    9  A    between atoms: C_19  and  C_20
REMARK                            x       y       z     vdW  Elec       q    Type
REMARK                         _______ _______ _______ _____ _____    ______ ____
ROOT
ATOM      1  N   UNL     1       4.845   4.338  17.974  0.00  0.00    +0.000 N 
ATOM      2  C   UNL     1       4.457   4.091  16.601  0.00  0.00    +0.000 C 
ATOM      3  O   UNL     1       3.347   3.673  16.313  0.00  0.00    +0.000 OA
ATOM      4  H   UNL     1       5.826   4.590  18.092  0.00  0.00    +0.000 HD
ENDROOT
BRANCH   1   9
ATOM      5  N   UNL     1       3.008   3.799  19.617  0.00  0.00    +0.000 N 
ATOM      6  N   UNL     1       2.814   2.906  20.619  0.00  0.00    +0.000 NA
ATOM      7  C   UNL     1       3.935   2.189  20.650  0.00  0.00    +0.000 A 
ATOM      8  C   UNL     1       4.854   2.598  19.673  0.00  0.00    +0.000 A 
ATOM      9  C   UNL     1       4.227   3.615  18.991  0.00  0.00    +0.000 A 
BRANCH   5  10
ATOM     10  C   UNL     1       2.031   4.873  19.504  0.00  0.00    +0.000 C 
ATOM     11  C   UNL     1       0.899   4.718  20.526  0.00  0.00    +0.000 C 
BRANCH  10  12
ATOM     12  C   UNL     1       2.623   6.287  19.572  0.00  0.00    +0.000 C 
BRANCH  12  14
ATOM     13  C   UNL     1       1.744   8.586  18.800  0.00  0.00    +0.000 C 
ATOM     14  C   UNL     1       2.335   7.234  18.387  0.00  0.00    +0.000 C 
ATOM     15  C   UNL     1       3.652   7.462  17.636  0.00  0.00    +0.000 C 
ENDBRANCH  12  14
ENDBRANCH  10  12
ENDBRANCH   5  10
ENDBRANCH   1   9
BRANCH   2  16
ATOM     16  C   UNL     1       5.609   4.354  15.751  0.00  0.00    +0.000 A 
ATOM     17  N   UNL     1       5.610   3.966  14.405  0.00  0.00    +0.000 NA
ATOM     18  C   UNL     1       6.761   4.412  13.950  0.00  0.00    +0.000 A 
ATOM     19  O   UNL     1       7.512   5.064  14.864  0.00  0.00    +0.000 OA
ATOM     20  C   UNL     1       6.791   5.036  16.041  0.00  0.00    +0.000 A 
BRANCH  20  21
ATOM     21  C   UNL     1       7.307   5.643  17.228  0.00  0.00    +0.000 A 
ATOM     22  C   UNL     1       7.591   6.989  17.432  0.00  0.00    +0.000 A 
ATOM     23  C   UNL     1       8.108   7.118  18.742  0.00  0.00    +0.000 A 
ATOM     24  C   UNL     1       8.117   5.850  19.267  0.00  0.00    +0.000 A 
ATOM     25  O   UNL     1       7.634   4.957  18.365  0.00  0.00    +0.000 OA
ENDBRANCH  20  21
ENDBRANCH   2  16
TORSDOF 6
ENDMDL
MODEL 5
REMARK VINA RESULT:      -7.3      1.879      3.368
REMARK  Name = 
REMARK  9 active torsions:
REMARK  status: ('A' for Active; 'I' for Inactive)
REMARK    1  A    between atoms: C_1  and  C_2
REMARK    2  A    between atoms: C_2  and  C_3
REMARK    3  A    between atoms: C_2  and  C_4
REMARK    4  A    between atoms: C_4  and  C_5
REMARK    5  A    between atoms: C_5  and  C_6
REMARK    6  A    between atoms: C_5  and  N_7
REMARK    7  A    between atoms: C_11  and  N_12
REMARK    8  A    between atoms: C_13  and  C_15
REMARK    9  A    between atoms: C_19  and  C_20
REMARK                            x       y       z     vdW  Elec       q    Type
REMARK                         _______ _______ _______ _____ _____    ______ ____
ROOT
ATOM      1  N   UNL     1       4.079   3.793  17.908  0.00  0.00    +0.000 N 
ATOM      2  C   UNL     1       5.140   3.592  18.872  0.00  0.00    +0.000 C 
ATOM      3  O   UNL     1       5.064   2.740  19.742  0.00  0.00    +0.000 OA
ATOM      4  H   UNL     1       4.215   4.598  17.297  0.00  0.00    +0.000 HD
ENDROOT
BRANCH   1   9
ATOM      5  N   UNL     1       1.851   4.101  19.053  0.00  0.00    +0.000 N 
ATOM      6  N   UNL     1       0.710   3.382  19.197  0.00  0.00    +0.000 NA
ATOM      7  C   UNL     1       0.938   2.254  18.527  0.00  0.00    +0.000 A 
ATOM      8  C   UNL     1       2.211   2.235  17.939  0.00  0.00    +0.000 A 
ATOM      9  C   UNL     1       2.775   3.449  18.257  0.00  0.00    +0.000 A 
BRANCH   5  10
ATOM     10  C   UNL     1       1.979   5.293  19.880  0.00  0.00    +0.000 C 
ATOM     11  C   UNL     1       2.564   4.964  21.258  0.00  0.00    +0.000 C 
BRANCH  10  12
ATOM     12  C   UNL     1       2.758   6.443  19.229  0.00  0.00    +0.000 C 
BRANCH  12  14
ATOM     13  C   UNL     1       1.552   8.625  19.896  0.00  0.00    +0.000 C 
ATOM     14  C   UNL     1       1.947   7.672  18.762  0.00  0.00    +0.000 C 
ATOM     15  C   UNL     1       2.794   8.430  17.732  0.00  0.00    +0.000 C 
ENDBRANCH  12  14
ENDBRANCH  10  12
ENDBRANCH   5  10
ENDBRANCH   1   9
BRANCH   2  16
ATOM     16  C   UNL     1       6.166   4.596  18.631  0.00  0.00    +0.000 A 
ATOM     17  N   UNL     1       6.742   5.302  19.695  0.00  0.00    +0.000 NA
ATOM     18  C   UNL     1       7.648   6.059  19.116  0.00  0.00    +0.000 A 
ATOM     19  O   UNL     1       7.732   5.912  17.776  0.00  0.00    +0.000 OA
ATOM     20  C   UNL     1       6.778   4.974  17.435  0.00  0.00    +0.000 A 
BRANCH  20  21
ATOM     21  C   UNL     1       6.594   4.580  16.073  0.00  0.00    +0.000 A 
ATOM     22  C   UNL     1       7.157   5.163  14.942  0.00  0.00    +0.000 A 
ATOM     23  C   UNL     1       6.668   4.460  13.817  0.00  0.00    +0.000 A 
ATOM     24  C   UNL     1       5.832   3.491  14.315  0.00  0.00    +0.000 A 
ATOM     25  O   UNL     1       5.784   3.554  15.670  0.00  0.00    +0.000 OA
ENDBRANCH  20  21
ENDBRANCH   2  16
TORSDOF 6
ENDMDL
MODEL 6
REMARK VINA RESULT:      -7.2      1.716      3.481
REMARK  Name = 
REMARK  9 active torsions:
REMARK  status: ('A' for Active; 'I' for Inactive)
REMARK    1  A    between atoms: C_1  and  C_2
REMARK    2  A    between atoms: C_2  and  C_3
REMARK    3  A    between atoms: C_2  and  C_4
REMARK    4  A    between atoms: C_4  and  C_5
REMARK    5  A    between atoms: C_5  and  C_6
REMARK    6  A    between atoms: C_5  and  N_7
REMARK    7  A    between atoms: C_11  and  N_12
REMARK    8  A    between atoms: C_13  and  C_15
REMARK    9  A    between atoms: C_19  and  C_20
REMARK                            x       y       z     vdW  Elec       q    Type
REMARK                         _______ _______ _______ _____ _____    ______ ____
ROOT
ATOM      1  N   UNL     1       4.046   4.705  17.542  0.00  0.00    +0.000 N 
ATOM      2  C   UNL     1       5.325   4.548  18.203  0.00  0.00    +0.000 C 
ATOM      3  O   UNL     1       5.485   3.748  19.110  0.00  0.00    +0.000 OA
ATOM      4  H   UNL     1       4.013   5.472  16.871  0.00  0.00    +0.000 HD
ENDROOT
BRANCH   1   9
ATOM      5  N   UNL     1       2.144   5.141  19.142  0.00  0.00    +0.000 N 
ATOM      6  N   UNL     1       1.108   4.433  19.656  0.00  0.00    +0.000 NA
ATOM      7  C   UNL     1       1.224   3.225  19.109  0.00  0.00    +0.000 A 
ATOM      8  C   UNL     1       2.319   3.140  18.236  0.00  0.00    +0.000 A 
ATOM      9  C   UNL     1       2.882   4.395  18.241  0.00  0.00    +0.000 A 
BRANCH   5  10
ATOM     10  C   UNL     1       2.408   6.441  19.744  0.00  0.00    +0.000 C 
ATOM     11  C   UNL     1       2.359   7.566  18.704  0.00  0.00    +0.000 C 
BRANCH  10  12
ATOM     12  C   UNL     1       1.517   6.783  20.945  0.00  0.00    +0.000 C 
BRANCH  12  14
ATOM     13  C   UNL     1      -0.500   8.326  21.403  0.00  0.00    +0.000 C 
ATOM     14  C   UNL     1       0.988   8.230  21.046  0.00  0.00    +0.000 C 
ATOM     15  C   UNL     1       1.815   8.959  22.112  0.00  0.00    +0.000 C 
ENDBRANCH  12  14
ENDBRANCH  10  12
ENDBRANCH   5  10
ENDBRANCH   1   9
BRANCH   2  16
ATOM     16  C   UNL     1       6.246   5.526  17.642  0.00  0.00    +0.000 A 
ATOM     17  N   UNL     1       6.855   6.488  18.460  0.00  0.00    +0.000 NA
ATOM     18  C   UNL     1       7.648   7.141  17.639  0.00  0.00    +0.000 A 
ATOM     19  O   UNL     1       7.628   6.696  16.364  0.00  0.00    +0.000 OA
ATOM     20  C   UNL     1       6.724   5.653  16.338  0.00  0.00    +0.000 A 
BRANCH  20  21
ATOM     21  C   UNL     1       6.455   4.948  15.123  0.00  0.00    +0.000 A 
ATOM     22  C   UNL     1       7.298   4.807  14.025  0.00  0.00    +0.000 A 
ATOM     23  C   UNL     1       6.600   4.058  13.050  0.00  0.00    +0.000 A 
ATOM     24  C   UNL     1       5.371   3.785  13.597  0.00  0.00    +0.000 A 
ATOM     25  O   UNL     1       5.277   4.313  14.844  0.00  0.00    +0.000 OA
ENDBRANCH  20  21
ENDBRANCH   2  16
TORSDOF 6
ENDMDL
MODEL 7
REMARK VINA RESULT:      -7.2      2.176      3.399
REMARK  Name = 
REMARK  9 active torsions:
REMARK  status: ('A' for Active; 'I' for Inactive)
REMARK    1  A    between atoms: C_1  and  C_2
REMARK    2  A    between atoms: C_2  and  C_3
REMARK    3  A    between atoms: C_2  and  C_4
REMARK    4  A    between atoms: C_4  and  C_5
REMARK    5  A    between atoms: C_5  and  C_6
REMARK    6  A    between atoms: C_5  and  N_7
REMARK    7  A    between atoms: C_11  and  N_12
REMARK    8  A    between atoms: C_13  and  C_15
REMARK    9  A    between atoms: C_19  and  C_20
REMARK                            x       y       z     vdW  Elec       q    Type
REMARK                         _______ _______ _______ _____ _____    ______ ____
ROOT
ATOM      1  N   UNL     1       4.267   3.971  18.883  0.00  0.00    +0.000 N 
ATOM      2  C   UNL     1       4.732   4.864  17.843  0.00  0.00    +0.000 C 
ATOM      3  O   UNL     1       3.956   5.451  17.106  0.00  0.00    +0.000 OA
ATOM      4  H   UNL     1       5.011   3.466  19.364  0.00  0.00    +0.000 HD
ENDROOT
BRANCH   1   9
ATOM      5  N   UNL     1       1.868   3.436  19.458  0.00  0.00    +0.000 N 
ATOM      6  N   UNL     1       0.916   2.579  19.012  0.00  0.00    +0.000 NA
ATOM      7  C   UNL     1       1.507   1.906  18.026  0.00  0.00    +0.000 A 
ATOM      8  C   UNL     1       2.830   2.322  17.819  0.00  0.00    +0.000 A 
ATOM      9  C   UNL     1       3.038   3.335  18.727  0.00  0.00    +0.000 A 
BRANCH   5  10
ATOM     10  C   UNL     1       1.578   4.146  20.696  0.00  0.00    +0.000 C 
ATOM     11  C   UNL     1       1.873   3.280  21.926  0.00  0.00    +0.000 C 
BRANCH  10  12
ATOM     12  C   UNL     1       2.263   5.513  20.826  0.00  0.00    +0.000 C 
BRANCH  12  14
ATOM     13  C   UNL     1       1.124   7.770  21.339  0.00  0.00    +0.000 C 
ATOM     14  C   UNL     1       1.507   6.739  20.271  0.00  0.00    +0.000 C 
ATOM     15  C   UNL     1       2.401   7.405  19.218  0.00  0.00    +0.000 C 
ENDBRANCH  12  14
ENDBRANCH  10  12
ENDBRANCH   5  10
ENDBRANCH   1   9
BRANCH   2  16
ATOM     16  C   UNL     1       6.187   4.832  17.837  0.00  0.00    +0.000 A 
ATOM     17  N   UNL     1       6.910   4.901  19.035  0.00  0.00    +0.000 NA
ATOM     18  C   UNL     1       8.163   4.784  18.653  0.00  0.00    +0.000 A 
ATOM     19  O   UNL     1       8.334   4.634  17.322  0.00  0.00    +0.000 OA
ATOM     20  C   UNL     1       7.069   4.667  16.769  0.00  0.00    +0.000 A 
BRANCH  20  21
ATOM     21  C   UNL     1       6.885   4.536  15.357  0.00  0.00    +0.000 A 
ATOM     22  C   UNL     1       6.005   3.686  14.696  0.00  0.00    +0.000 A 
ATOM     23  C   UNL     1       6.193   3.879  13.308  0.00  0.00    +0.000 A 
ATOM     24  C   UNL     1       7.177   4.830  13.192  0.00  0.00    +0.000 A 
ATOM     25  O   UNL     1       7.596   5.232  14.419  0.00  0.00    +0.000 OA
ENDBRANCH  20  21
ENDBRANCH   2  16
TORSDOF 6
ENDMDL
MODEL 8
REMARK VINA RESULT:      -7.2      1.910      3.359
REMARK  Name = 
REMARK  9 active torsions:
REMARK  status: ('A' for Active; 'I' for Inactive)
REMARK    1  A    between atoms: C_1  and  C_2
REMARK    2  A    between atoms: C_2  and  C_3
REMARK    3  A    between atoms: C_2  and  C_4
REMARK    4  A    between atoms: C_4  and  C_5
REMARK    5  A    between atoms: C_5  and  C_6
REMARK    6  A    between atoms: C_5  and  N_7
REMARK    7  A    between atoms: C_11  and  N_12
REMARK    8  A    between atoms: C_13  and  C_15
REMARK    9  A    between atoms: C_19  and  C_20
REMARK                            x       y       z     vdW  Elec       q    Type
REMARK                         _______ _______ _______ _____ _____    ______ ____
ROOT
ATOM      1  N   UNL     1       3.989   4.917  18.629  0.00  0.00    +0.000 N 
ATOM      2  C   UNL     1       5.142   4.134  19.021  0.00  0.00    +0.000 C 
ATOM      3  O   UNL     1       5.026   3.034  19.538  0.00  0.00    +0.000 OA
ATOM      4  H   UNL     1       4.213   5.856  18.302  0.00  0.00    +0.000 HD
ENDROOT
BRANCH   1   9
ATOM      5  N   UNL     1       1.932   5.635  19.902  0.00  0.00    +0.000 N 
ATOM      6  N   UNL     1       0.890   5.022  20.517  0.00  0.00    +0.000 NA
ATOM      7  C   UNL     1       1.115   3.722  20.340  0.00  0.00    +0.000 A 
ATOM      8  C   UNL     1       2.286   3.481  19.607  0.00  0.00    +0.000 A 
ATOM      9  C   UNL     1       2.784   4.727  19.301  0.00  0.00    +0.000 A 
BRANCH   5  10
ATOM     10  C   UNL     1       2.075   7.066  20.134  0.00  0.00    +0.000 C 
ATOM     11  C   UNL     1       2.247   7.837  18.821  0.00  0.00    +0.000 C 
BRANCH  10  12
ATOM     12  C   UNL     1       0.959   7.692  20.980  0.00  0.00    +0.000 C 
BRANCH  12  14
ATOM     13  C   UNL     1       0.528  10.183  20.462  0.00  0.00    +0.000 C 
ATOM     14  C   UNL     1       1.144   9.160  21.423  0.00  0.00    +0.000 C 
ATOM     15  C   UNL     1       0.507   9.317  22.809  0.00  0.00    +0.000 C 
ENDBRANCH  12  14
ENDBRANCH  10  12
ENDBRANCH   5  10
ENDBRANCH   1   9
BRANCH   2  16
ATOM     16  C   UNL     1       6.336   4.923  18.755  0.00  0.00    +0.000 A 
ATOM     17  N   UNL     1       7.062   5.500  19.806  0.00  0.00    +0.000 NA
ATOM     18  C   UNL     1       8.083   6.071  19.205  0.00  0.00    +0.000 A 
ATOM     19  O   UNL     1       8.105   5.917  17.864  0.00  0.00    +0.000 OA
ATOM     20  C   UNL     1       6.980   5.182  17.546  0.00  0.00    +0.000 A 
BRANCH  20  21
ATOM     21  C   UNL     1       6.692   4.837  16.188  0.00  0.00    +0.000 A 
ATOM     22  C   UNL     1       5.723   3.951  15.730  0.00  0.00    +0.000 A 
ATOM     23  C   UNL     1       5.825   3.905  14.321  0.00  0.00    +0.000 A 
ATOM     24  C   UNL     1       6.849   4.757  13.991  0.00  0.00    +0.000 A 
ATOM     25  O   UNL     1       7.374   5.324  15.108  0.00  0.00    +0.000 OA
ENDBRANCH  20  21
ENDBRANCH   2  16
TORSDOF 6
ENDMDL
MODEL 9
REMARK VINA RESULT:      -7.2      2.336      6.062
REMARK  Name = 
REMARK  9 active torsions:
REMARK  status: ('A' for Active; 'I' for Inactive)
REMARK    1  A    between atoms: C_1  and  C_2
REMARK    2  A    between atoms: C_2  and  C_3
REMARK    3  A    between atoms: C_2  and  C_4
REMARK    4  A    between atoms: C_4  and  C_5
REMARK    5  A    between atoms: C_5  and  C_6
REMARK    6  A    between atoms: C_5  and  N_7
REMARK    7  A    between atoms: C_11  and  N_12
REMARK    8  A    between atoms: C_13  and  C_15
REMARK    9  A    between atoms: C_19  and  C_20
REMARK                            x       y       z     vdW  Elec       q    Type
REMARK                         _______ _______ _______ _____ _____    ______ ____
ROOT
ATOM      1  N   UNL     1       4.719   4.964  19.287  0.00  0.00    +0.000 N 
ATOM      2  C   UNL     1       4.417   3.559  19.463  0.00  0.00    +0.000 C 
ATOM      3  O   UNL     1       5.291   2.736  19.683  0.00  0.00    +0.000 OA
ATOM      4  H   UNL     1       3.919   5.533  19.010  0.00  0.00    +0.000 HD
ENDROOT
BRANCH   1   9
ATOM      5  N   UNL     1       6.467   5.420  17.524  0.00  0.00    +0.000 N 
ATOM      6  N   UNL     1       7.783   5.745  17.504  0.00  0.00    +0.000 NA
ATOM      7  C   UNL     1       8.131   5.814  18.787  0.00  0.00    +0.000 A 
ATOM      8  C   UNL     1       7.053   5.547  19.644  0.00  0.00    +0.000 A 
ATOM      9  C   UNL     1       5.977   5.330  18.814  0.00  0.00    +0.000 A 
BRANCH   5  10
ATOM     10  C   UNL     1       5.868   5.047  16.250  0.00  0.00    +0.000 C 
ATOM     11  C   UNL     1       5.121   6.223  15.611  0.00  0.00    +0.000 C 
BRANCH  10  12
ATOM     12  C   UNL     1       6.843   4.422  15.243  0.00  0.00    +0.000 C 
BRANCH  12  14
ATOM     13  C   UNL     1       7.958   5.256  13.071  0.00  0.00    +0.000 C 
ATOM     14  C   UNL     1       6.665   4.799  13.757  0.00  0.00    +0.000 C 
ATOM     15  C   UNL     1       6.106   3.573  13.024  0.00  0.00    +0.000 C 
ENDBRANCH  12  14
ENDBRANCH  10  12
ENDBRANCH   5  10
ENDBRANCH   1   9
BRANCH   2  16
ATOM     16  C   UNL     1       2.988   3.375  19.255  0.00  0.00    +0.000 A 
ATOM     17  N   UNL     1       2.466   2.112  18.944  0.00  0.00    +0.000 NA
ATOM     18  C   UNL     1       1.168   2.314  18.891  0.00  0.00    +0.000 A 
ATOM     19  O   UNL     1       0.784   3.583  19.146  0.00  0.00    +0.000 OA
ATOM     20  C   UNL     1       1.945   4.293  19.379  0.00  0.00    +0.000 A 
BRANCH  20  21
ATOM     21  C   UNL     1       1.900   5.690  19.682  0.00  0.00    +0.000 A 
ATOM     22  C   UNL     1       1.455   6.284  20.859  0.00  0.00    +0.000 A 
ATOM     23  C   UNL     1       1.566   7.684  20.693  0.00  0.00    +0.000 A 
ATOM     24  C   UNL     1       2.066   7.872  19.429  0.00  0.00    +0.000 A 
ATOM     25  O   UNL     1       2.273   6.679  18.816  0.00  0.00    +0.000 OA
ENDBRANCH  20  21
ENDBRANCH   2  16
TORSDOF 6
ENDMDL
