MODEL 1
REMARK VINA RESULT:      -6.8      0.000      0.000
REMARK  Name = 
REMARK  21 active torsions:
REMARK  status: ('A' for Active; 'I' for Inactive)
REMARK    1  A    between atoms: C_1  and  C_2
REMARK    2  A    between atoms: C_2  and  C_3
REMARK    3  A    between atoms: C_3  and  C_4
REMARK    4  A    between atoms: C_4  and  C_5
REMARK    5  A    between atoms: C_5  and  C_6
REMARK    6  A    between atoms: C_6  and  C_7
REMARK    7  A    between atoms: C_7  and  C_8
REMARK    8  A    between atoms: C_8  and  C_9
REMARK    9  A    between atoms: C_9  and  C_10
REMARK   10  A    between atoms: C_10  and  C_11
REMARK   11  A    between atoms: C_11  and  C_12
REMARK   12  A    between atoms: C_12  and  C_13
REMARK   13  A    between atoms: C_13  and  C_14
REMARK   14  A    between atoms: C_14  and  C_15
REMARK   15  A    between atoms: C_15  and  C_16
REMARK   16  A    between atoms: C_16  and  C_18
REMARK   17  A    between atoms: C_19  and  O_20
REMARK   18  A    between atoms: C_22  and  C_23
REMARK   19  A    between atoms: C_23  and  O_24
REMARK   20  A    between atoms: O_24  and  C_25
REMARK   21  A    between atoms: C_25  and  C_26
REMARK                            x       y       z     vdW  Elec       q    Type
REMARK                         _______ _______ _______ _____ _____    ______ ____
ROOT
ATOM      1  C   UNL     1       5.635   5.187  17.166  0.00  0.00    +0.000 C 
ATOM      2  C   UNL     1       6.344   4.966  18.307  0.00  0.00    +0.000 C 
ATOM      3  C   UNL     1       7.188   6.053  18.904  0.00  0.00    +0.000 C 
ATOM      4  C   UNL     1       7.674   7.000  17.824  0.00  0.00    +0.000 C 
ATOM      5  O   UNL     1       6.569   7.465  17.049  0.00  0.00    +0.000 OA
ATOM      6  C   UNL     1       5.667   6.567  16.583  0.00  0.00    +0.000 C 
ATOM      7  O   UNL     1       4.882   6.932  15.718  0.00  0.00    +0.000 OA
ENDROOT
BRANCH   2   8
ATOM      8  O   UNL     1       6.434   3.810  19.071  0.00  0.00    +0.000 OA
ATOM      9  H   UNL     1       6.244   3.943  20.016  0.00  0.00    +0.000 HD
ENDBRANCH   2   8
BRANCH   1  10
ATOM     10  C   UNL     1       4.746   4.155  16.520  0.00  0.00    +0.000 C 
ATOM     11  O   UNL     1       5.019   3.674  15.418  0.00  0.00    +0.000 OA
BRANCH  10  12
ATOM     12  C   UNL     1       3.484   3.714  17.226  0.00  0.00    +0.000 C 
BRANCH  12  13
ATOM     13  C   UNL     1       3.385   2.206  17.322  0.00  0.00    +0.000 C 
BRANCH  13  14
ATOM     14  C   UNL     1       2.969   1.816  18.730  0.00  0.00    +0.000 C 
BRANCH  14  15
ATOM     15  C   UNL     1       3.341   2.926  19.691  0.00  0.00    +0.000 C 
BRANCH  15  16
ATOM     16  C   UNL     1       2.801   2.619  21.073  0.00  0.00    +0.000 C 
BRANCH  16  17
ATOM     17  C   UNL     1       2.038   3.821  21.598  0.00  0.00    +0.000 C 
BRANCH  17  18
ATOM     18  C   UNL     1       1.296   4.499  20.463  0.00  0.00    +0.000 C 
BRANCH  18  19
ATOM     19  C   UNL     1       1.773   5.932  20.320  0.00  0.00    +0.000 C 
BRANCH  19  20
ATOM     20  C   UNL     1       2.060   6.238  18.862  0.00  0.00    +0.000 C 
BRANCH  20  21
ATOM     21  C   UNL     1       2.724   7.597  18.735  0.00  0.00    +0.000 C 
BRANCH  21  22
ATOM     22  C   UNL     1       1.948   8.465  17.759  0.00  0.00    +0.000 C 
BRANCH  22  23
ATOM     23  C   UNL     1       1.801   9.873  18.315  0.00  0.00    +0.000 C 
BRANCH  23  24
ATOM     24  C   UNL     1       0.329  10.232  18.454  0.00  0.00    +0.000 C 
BRANCH  24  26
ATOM     25  C   UNL     1       0.631  10.041  20.927  0.00  0.00    +0.000 C 
ATOM     26  C   UNL     1      -0.243   9.665  19.747  0.00  0.00    +0.000 C 
ENDBRANCH  24  26
ENDBRANCH  23  24
ENDBRANCH  22  23
ENDBRANCH  21  22
ENDBRANCH  20  21
ENDBRANCH  19  20
ENDBRANCH  18  19
ENDBRANCH  17  18
ENDBRANCH  16  17
ENDBRANCH  15  16
ENDBRANCH  14  15
ENDBRANCH  13  14
ENDBRANCH  12  13
ENDBRANCH  10  12
ENDBRANCH   1  10
BRANCH   4  27
ATOM     27  C   UNL     1       8.342   8.221  18.452  0.00  0.00    +0.000 C 
BRANCH  27  28
ATOM     28  O   UNL     1       8.373   9.303  17.525  0.00  0.00    +0.000 OA
BRANCH  28  29
ATOM     29  C   UNL     1       8.166  10.539  18.195  0.00  0.00    +0.000 C 
BRANCH  29  30
ATOM     30  C   UNL     1       9.505  11.001  18.681  0.00  0.00    +0.000 A 
ATOM     31  C   UNL     1       9.733  11.221  20.042  0.00  0.00    +0.000 A 
ATOM     32  C   UNL     1      10.952  11.743  20.470  0.00  0.00    +0.000 A 
ATOM     33  C   UNL     1      11.963  12.009  19.546  0.00  0.00    +0.000 A 
ATOM     34  C   UNL     1      11.754  11.761  18.192  0.00  0.00    +0.000 A 
ATOM     35  C   UNL     1      10.527  11.264  17.758  0.00  0.00    +0.000 A 
ENDBRANCH  29  30
ENDBRANCH  28  29
ENDBRANCH  27  28
ENDBRANCH   4  27
TORSDOF 20
ENDMDL
MODEL 2
REMARK VINA RESULT:      -6.3      3.492      7.238
REMARK  Name = 
REMARK  21 active torsions:
REMARK  status: ('A' for Active; 'I' for Inactive)
REMARK    1  A    between atoms: C_1  and  C_2
REMARK    2  A    between atoms: C_2  and  C_3
REMARK    3  A    between atoms: C_3  and  C_4
REMARK    4  A    between atoms: C_4  and  C_5
REMARK    5  A    between atoms: C_5  and  C_6
REMARK    6  A    between atoms: C_6  and  C_7
REMARK    7  A    between atoms: C_7  and  C_8
REMARK    8  A    between atoms: C_8  and  C_9
REMARK    9  A    between atoms: C_9  and  C_10
REMARK   10  A    between atoms: C_10  and  C_11
REMARK   11  A    between atoms: C_11  and  C_12
REMARK   12  A    between atoms: C_12  and  C_13
REMARK   13  A    between atoms: C_13  and  C_14
REMARK   14  A    between atoms: C_14  and  C_15
REMARK   15  A    between atoms: C_15  and  C_16
REMARK   16  A    between atoms: C_16  and  C_18
REMARK   17  A    between atoms: C_19  and  O_20
REMARK   18  A    between atoms: C_22  and  C_23
REMARK   19  A    between atoms: C_23  and  O_24
REMARK   20  A    between atoms: O_24  and  C_25
REMARK   21  A    between atoms: C_25  and  C_26
REMARK                            x       y       z     vdW  Elec       q    Type
REMARK                         _______ _______ _______ _____ _____    ______ ____
ROOT
ATOM      1  C   UNL     1       2.068   7.774  19.450  0.00  0.00    +0.000 C 
ATOM      2  C   UNL     1       2.306   8.367  18.247  0.00  0.00    +0.000 C 
ATOM      3  C   UNL     1       1.826   9.761  17.975  0.00  0.00    +0.000 C 
ATOM      4  C   UNL     1       0.581  10.061  18.789  0.00  0.00    +0.000 C 
ATOM      5  O   UNL     1       0.819   9.773  20.167  0.00  0.00    +0.000 OA
ATOM      6  C   UNL     1       1.386   8.589  20.505  0.00  0.00    +0.000 C 
ATOM      7  O   UNL     1       1.347   8.245  21.678  0.00  0.00    +0.000 OA
ENDROOT
BRANCH   2   8
ATOM      8  O   UNL     1       2.965   7.857  17.136  0.00  0.00    +0.000 OA
ATOM      9  H   UNL     1       2.737   6.933  16.930  0.00  0.00    +0.000 HD
ENDBRANCH   2   8
BRANCH   1  10
ATOM     10  C   UNL     1       2.539   6.386  19.807  0.00  0.00    +0.000 C 
ATOM     11  O   UNL     1       3.726   6.069  19.711  0.00  0.00    +0.000 OA
BRANCH  10  12
ATOM     12  C   UNL     1       1.534   5.358  20.274  0.00  0.00    +0.000 C 
BRANCH  12  13
ATOM     13  C   UNL     1       2.185   4.251  21.075  0.00  0.00    +0.000 C 
BRANCH  13  14
ATOM     14  C   UNL     1       1.328   3.000  20.998  0.00  0.00    +0.000 C 
BRANCH  14  15
ATOM     15  C   UNL     1       1.629   2.261  19.711  0.00  0.00    +0.000 C 
BRANCH  15  16
ATOM     16  C   UNL     1       3.124   2.233  19.465  0.00  0.00    +0.000 C 
BRANCH  16  17
ATOM     17  C   UNL     1       3.392   1.995  17.991  0.00  0.00    +0.000 C 
BRANCH  17  18
ATOM     18  C   UNL     1       2.940   3.196  17.183  0.00  0.00    +0.000 C 
BRANCH  18  19
ATOM     19  C   UNL     1       4.005   4.276  17.227  0.00  0.00    +0.000 C 
BRANCH  19  20
ATOM     20  C   UNL     1       4.703   4.367  15.883  0.00  0.00    +0.000 C 
BRANCH  20  21
ATOM     21  C   UNL     1       6.184   4.076  16.044  0.00  0.00    +0.000 C 
BRANCH  21  22
ATOM     22  C   UNL     1       6.919   5.340  16.459  0.00  0.00    +0.000 C 
BRANCH  22  23
ATOM     23  C   UNL     1       7.559   5.147  17.824  0.00  0.00    +0.000 C 
BRANCH  23  24
ATOM     24  C   UNL     1       7.818   6.496  18.479  0.00  0.00    +0.000 C 
BRANCH  24  26
ATOM     25  C   UNL     1       8.170   8.933  18.058  0.00  0.00    +0.000 C 
ATOM     26  C   UNL     1       7.706   7.620  17.458  0.00  0.00    +0.000 C 
ENDBRANCH  24  26
ENDBRANCH  23  24
ENDBRANCH  22  23
ENDBRANCH  21  22
ENDBRANCH  20  21
ENDBRANCH  19  20
ENDBRANCH  18  19
ENDBRANCH  17  18
ENDBRANCH  16  17
ENDBRANCH  15  16
ENDBRANCH  14  15
ENDBRANCH  13  14
ENDBRANCH  12  13
ENDBRANCH  10  12
ENDBRANCH   1  10
BRANCH   4  27
ATOM     27  C   UNL     1       0.224  11.542  18.683  0.00  0.00    +0.000 C 
BRANCH  27  28
ATOM     28  O   UNL     1       0.592  12.229  19.876  0.00  0.00    +0.000 OA
BRANCH  28  29
ATOM     29  C   UNL     1      -0.376  13.218  20.198  0.00  0.00    +0.000 C 
BRANCH  29  30
ATOM     30  C   UNL     1       0.239  14.547  19.887  0.00  0.00    +0.000 A 
ATOM     31  C   UNL     1       1.208  15.100  20.730  0.00  0.00    +0.000 A 
ATOM     32  C   UNL     1       1.700  16.380  20.482  0.00  0.00    +0.000 A 
ATOM     33  C   UNL     1       1.260  17.096  19.369  0.00  0.00    +0.000 A 
ATOM     34  C   UNL     1       0.319  16.538  18.507  0.00  0.00    +0.000 A 
ATOM     35  C   UNL     1      -0.196  15.270  18.767  0.00  0.00    +0.000 A 
ENDBRANCH  29  30
ENDBRANCH  28  29
ENDBRANCH  27  28
ENDBRANCH   4  27
TORSDOF 20
ENDMDL
MODEL 3
REMARK VINA RESULT:      -6.3      5.016     10.683
REMARK  Name = 
REMARK  21 active torsions:
REMARK  status: ('A' for Active; 'I' for Inactive)
REMARK    1  A    between atoms: C_1  and  C_2
REMARK    2  A    between atoms: C_2  and  C_3
REMARK    3  A    between atoms: C_3  and  C_4
REMARK    4  A    between atoms: C_4  and  C_5
REMARK    5  A    between atoms: C_5  and  C_6
REMARK    6  A    between atoms: C_6  and  C_7
REMARK    7  A    between atoms: C_7  and  C_8
REMARK    8  A    between atoms: C_8  and  C_9
REMARK    9  A    between atoms: C_9  and  C_10
REMARK   10  A    between atoms: C_10  and  C_11
REMARK   11  A    between atoms: C_11  and  C_12
REMARK   12  A    between atoms: C_12  and  C_13
REMARK   13  A    between atoms: C_13  and  C_14
REMARK   14  A    between atoms: C_14  and  C_15
REMARK   15  A    between atoms: C_15  and  C_16
REMARK   16  A    between atoms: C_16  and  C_18
REMARK   17  A    between atoms: C_19  and  O_20
REMARK   18  A    between atoms: C_22  and  C_23
REMARK   19  A    between atoms: C_23  and  O_24
REMARK   20  A    between atoms: O_24  and  C_25
REMARK   21  A    between atoms: C_25  and  C_26
REMARK                            x       y       z     vdW  Elec       q    Type
REMARK                         _______ _______ _______ _____ _____    ______ ____
ROOT
ATOM      1  C   UNL     1      -0.102  11.668  19.735  0.00  0.00    +0.000 C 
ATOM      2  C   UNL     1      -0.988  12.478  19.092  0.00  0.00    +0.000 C 
ATOM      3  C   UNL     1      -2.092  13.154  19.851  0.00  0.00    +0.000 C 
ATOM      4  C   UNL     1      -2.484  12.331  21.063  0.00  0.00    +0.000 C 
ATOM      5  O   UNL     1      -1.326  12.029  21.842  0.00  0.00    +0.000 OA
ATOM      6  C   UNL     1      -0.222  11.545  21.222  0.00  0.00    +0.000 C 
ATOM      7  O   UNL     1       0.658  11.052  21.914  0.00  0.00    +0.000 OA
ENDROOT
BRANCH   2   8
ATOM      8  O   UNL     1      -1.056  12.805  17.745  0.00  0.00    +0.000 OA
ATOM      9  H   UNL     1      -1.762  12.342  17.260  0.00  0.00    +0.000 HD
ENDBRANCH   2   8
BRANCH   1  10
ATOM     10  C   UNL     1       1.047  10.973  19.047  0.00  0.00    +0.000 C 
ATOM     11  O   UNL     1       1.905  11.610  18.433  0.00  0.00    +0.000 OA
BRANCH  10  12
ATOM     12  C   UNL     1       1.139   9.465  19.095  0.00  0.00    +0.000 C 
BRANCH  12  13
ATOM     13  C   UNL     1       1.467   8.873  17.740  0.00  0.00    +0.000 C 
BRANCH  13  14
ATOM     14  C   UNL     1       2.879   8.315  17.762  0.00  0.00    +0.000 C 
BRANCH  14  15
ATOM     15  C   UNL     1       2.868   6.940  18.397  0.00  0.00    +0.000 C 
BRANCH  15  16
ATOM     16  C   UNL     1       4.099   6.164  17.978  0.00  0.00    +0.000 C 
BRANCH  16  17
ATOM     17  C   UNL     1       4.639   5.387  19.164  0.00  0.00    +0.000 C 
BRANCH  17  18
ATOM     18  C   UNL     1       5.176   4.046  18.703  0.00  0.00    +0.000 C 
BRANCH  18  19
ATOM     19  C   UNL     1       4.627   2.941  19.587  0.00  0.00    +0.000 C 
BRANCH  19  20
ATOM     20  C   UNL     1       4.213   1.757  18.735  0.00  0.00    +0.000 C 
BRANCH  20  21
ATOM     21  C   UNL     1       2.701   1.628  18.722  0.00  0.00    +0.000 C 
BRANCH  21  22
ATOM     22  C   UNL     1       2.116   2.489  17.615  0.00  0.00    +0.000 C 
BRANCH  22  23
ATOM     23  C   UNL     1       1.393   3.686  18.213  0.00  0.00    +0.000 C 
BRANCH  23  24
ATOM     24  C   UNL     1       0.792   3.318  19.561  0.00  0.00    +0.000 C 
BRANCH  24  26
ATOM     25  C   UNL     1       2.106   3.672  21.657  0.00  0.00    +0.000 C 
ATOM     26  C   UNL     1       1.205   4.325  20.627  0.00  0.00    +0.000 C 
ENDBRANCH  24  26
ENDBRANCH  23  24
ENDBRANCH  22  23
ENDBRANCH  21  22
ENDBRANCH  20  21
ENDBRANCH  19  20
ENDBRANCH  18  19
ENDBRANCH  17  18
ENDBRANCH  16  17
ENDBRANCH  15  16
ENDBRANCH  14  15
ENDBRANCH  13  14
ENDBRANCH  12  13
ENDBRANCH  10  12
ENDBRANCH   1  10
BRANCH   4  27
ATOM     27  C   UNL     1      -3.443  13.121  21.950  0.00  0.00    +0.000 C 
BRANCH  27  28
ATOM     28  O   UNL     1      -4.208  14.034  21.167  0.00  0.00    +0.000 OA
BRANCH  28  29
ATOM     29  C   UNL     1      -5.597  13.786  21.330  0.00  0.00    +0.000 C 
BRANCH  29  30
ATOM     30  C   UNL     1      -5.957  12.683  20.384  0.00  0.00    +0.000 A 
ATOM     31  C   UNL     1      -5.596  12.753  19.035  0.00  0.00    +0.000 A 
ATOM     32  C   UNL     1      -6.021  11.768  18.147  0.00  0.00    +0.000 A 
ATOM     33  C   UNL     1      -6.773  10.687  18.607  0.00  0.00    +0.000 A 
ATOM     34  C   UNL     1      -7.109  10.594  19.955  0.00  0.00    +0.000 A 
ATOM     35  C   UNL     1      -6.708  11.591  20.842  0.00  0.00    +0.000 A 
ENDBRANCH  29  30
ENDBRANCH  28  29
ENDBRANCH  27  28
ENDBRANCH   4  27
TORSDOF 20
ENDMDL
MODEL 4
REMARK VINA RESULT:      -6.1      4.333      9.024
REMARK  Name = 
REMARK  21 active torsions:
REMARK  status: ('A' for Active; 'I' for Inactive)
REMARK    1  A    between atoms: C_1  and  C_2
REMARK    2  A    between atoms: C_2  and  C_3
REMARK    3  A    between atoms: C_3  and  C_4
REMARK    4  A    between atoms: C_4  and  C_5
REMARK    5  A    between atoms: C_5  and  C_6
REMARK    6  A    between atoms: C_6  and  C_7
REMARK    7  A    between atoms: C_7  and  C_8
REMARK    8  A    between atoms: C_8  and  C_9
REMARK    9  A    between atoms: C_9  and  C_10
REMARK   10  A    between atoms: C_10  and  C_11
REMARK   11  A    between atoms: C_11  and  C_12
REMARK   12  A    between atoms: C_12  and  C_13
REMARK   13  A    between atoms: C_13  and  C_14
REMARK   14  A    between atoms: C_14  and  C_15
REMARK   15  A    between atoms: C_15  and  C_16
REMARK   16  A    between atoms: C_16  and  C_18
REMARK   17  A    between atoms: C_19  and  O_20
REMARK   18  A    between atoms: C_22  and  C_23
REMARK   19  A    between atoms: C_23  and  O_24
REMARK   20  A    between atoms: O_24  and  C_25
REMARK   21  A    between atoms: C_25  and  C_26
REMARK                            x       y       z     vdW  Elec       q    Type
REMARK                         _______ _______ _______ _____ _____    ______ ____
ROOT
ATOM      1  C   UNL     1       0.965   9.389  19.590  0.00  0.00    +0.000 C 
ATOM      2  C   UNL     1       1.169   8.797  20.800  0.00  0.00    +0.000 C 
ATOM      3  C   UNL     1       0.355   9.199  21.994  0.00  0.00    +0.000 C 
ATOM      4  C   UNL     1      -0.092  10.643  21.868  0.00  0.00    +0.000 C 
ATOM      5  O   UNL     1      -0.740  10.846  20.612  0.00  0.00    +0.000 OA
ATOM      6  C   UNL     1      -0.146  10.388  19.483  0.00  0.00    +0.000 C 
ATOM      7  O   UNL     1      -0.569  10.786  18.407  0.00  0.00    +0.000 OA
ENDROOT
BRANCH   2   8
ATOM      8  O   UNL     1       2.082   7.810  21.147  0.00  0.00    +0.000 OA
ATOM      9  H   UNL     1       2.260   7.167  20.437  0.00  0.00    +0.000 HD
ENDBRANCH   2   8
BRANCH   1  10
ATOM     10  C   UNL     1       1.725   9.023  18.340  0.00  0.00    +0.000 C 
ATOM     11  O   UNL     1       2.267   9.885  17.645  0.00  0.00    +0.000 OA
BRANCH  10  12
ATOM     12  C   UNL     1       1.808   7.573  17.919  0.00  0.00    +0.000 C 
BRANCH  12  13
ATOM     13  C   UNL     1       3.139   6.952  18.287  0.00  0.00    +0.000 C 
BRANCH  13  14
ATOM     14  C   UNL     1       4.226   7.521  17.392  0.00  0.00    +0.000 C 
BRANCH  14  15
ATOM     15  C   UNL     1       4.696   6.452  16.427  0.00  0.00    +0.000 C 
BRANCH  15  16
ATOM     16  C   UNL     1       6.100   6.008  16.787  0.00  0.00    +0.000 C 
BRANCH  16  17
ATOM     17  C   UNL     1       6.042   4.677  17.512  0.00  0.00    +0.000 C 
BRANCH  17  18
ATOM     18  C   UNL     1       5.013   3.776  16.858  0.00  0.00    +0.000 C 
BRANCH  18  19
ATOM     19  C   UNL     1       4.008   3.306  17.893  0.00  0.00    +0.000 C 
BRANCH  19  20
ATOM     20  C   UNL     1       2.694   2.959  17.218  0.00  0.00    +0.000 C 
BRANCH  20  21
ATOM     21  C   UNL     1       1.552   3.700  17.889  0.00  0.00    +0.000 C 
BRANCH  21  22
ATOM     22  C   UNL     1       0.646   2.714  18.608  0.00  0.00    +0.000 C 
BRANCH  22  23
ATOM     23  C   UNL     1       0.557   3.067  20.084  0.00  0.00    +0.000 C 
BRANCH  23  24
ATOM     24  C   UNL     1       1.249   4.395  20.350  0.00  0.00    +0.000 C 
BRANCH  24  26
ATOM     25  C   UNL     1       2.661   2.774  21.623  0.00  0.00    +0.000 C 
ATOM     26  C   UNL     1       2.322   4.238  21.419  0.00  0.00    +0.000 C 
ENDBRANCH  24  26
ENDBRANCH  23  24
ENDBRANCH  22  23
ENDBRANCH  21  22
ENDBRANCH  20  21
ENDBRANCH  19  20
ENDBRANCH  18  19
ENDBRANCH  17  18
ENDBRANCH  16  17
ENDBRANCH  15  16
ENDBRANCH  14  15
ENDBRANCH  13  14
ENDBRANCH  12  13
ENDBRANCH  10  12
ENDBRANCH   1  10
BRANCH   4  27
ATOM     27  C   UNL     1      -1.099  10.982  22.966  0.00  0.00    +0.000 C 
BRANCH  27  28
ATOM     28  O   UNL     1      -2.165  11.766  22.437  0.00  0.00    +0.000 OA
BRANCH  28  29
ATOM     29  C   UNL     1      -3.061  12.148  23.471  0.00  0.00    +0.000 C 
BRANCH  29  30
ATOM     30  C   UNL     1      -2.889  13.620  23.676  0.00  0.00    +0.000 A 
ATOM     31  C   UNL     1      -2.313  14.416  22.681  0.00  0.00    +0.000 A 
ATOM     32  C   UNL     1      -2.070  15.767  22.922  0.00  0.00    +0.000 A 
ATOM     33  C   UNL     1      -2.438  16.339  24.140  0.00  0.00    +0.000 A 
ATOM     34  C   UNL     1      -3.042  15.558  25.123  0.00  0.00    +0.000 A 
ATOM     35  C   UNL     1      -3.262  14.202  24.896  0.00  0.00    +0.000 A 
ENDBRANCH  29  30
ENDBRANCH  28  29
ENDBRANCH  27  28
ENDBRANCH   4  27
TORSDOF 20
ENDMDL
MODEL 5
REMARK VINA RESULT:      -6.1      1.363      1.957
REMARK  Name = 
REMARK  21 active torsions:
REMARK  status: ('A' for Active; 'I' for Inactive)
REMARK    1  A    between atoms: C_1  and  C_2
REMARK    2  A    between atoms: C_2  and  C_3
REMARK    3  A    between atoms: C_3  and  C_4
REMARK    4  A    between atoms: C_4  and  C_5
REMARK    5  A    between atoms: C_5  and  C_6
REMARK    6  A    between atoms: C_6  and  C_7
REMARK    7  A    between atoms: C_7  and  C_8
REMARK    8  A    between atoms: C_8  and  C_9
REMARK    9  A    between atoms: C_9  and  C_10
REMARK   10  A    between atoms: C_10  and  C_11
REMARK   11  A    between atoms: C_11  and  C_12
REMARK   12  A    between atoms: C_12  and  C_13
REMARK   13  A    between atoms: C_13  and  C_14
REMARK   14  A    between atoms: C_14  and  C_15
REMARK   15  A    between atoms: C_15  and  C_16
REMARK   16  A    between atoms: C_16  and  C_18
REMARK   17  A    between atoms: C_19  and  O_20
REMARK   18  A    between atoms: C_22  and  C_23
REMARK   19  A    between atoms: C_23  and  O_24
REMARK   20  A    between atoms: O_24  and  C_25
REMARK   21  A    between atoms: C_25  and  C_26
REMARK                            x       y       z     vdW  Elec       q    Type
REMARK                         _______ _______ _______ _____ _____    ______ ____
ROOT
ATOM      1  C   UNL     1       6.705   5.439  16.649  0.00  0.00    +0.000 C 
ATOM      2  C   UNL     1       7.560   5.283  17.697  0.00  0.00    +0.000 C 
ATOM      3  C   UNL     1       7.983   6.463  18.520  0.00  0.00    +0.000 C 
ATOM      4  C   UNL     1       7.956   7.729  17.684  0.00  0.00    +0.000 C 
ATOM      5  O   UNL     1       6.683   7.870  17.054  0.00  0.00    +0.000 OA
ATOM      6  C   UNL     1       6.148   6.808  16.403  0.00  0.00    +0.000 C 
ATOM      7  O   UNL     1       5.198   7.006  15.658  0.00  0.00    +0.000 OA
ENDROOT
BRANCH   2   8
ATOM      8  O   UNL     1       8.163   4.124  18.168  0.00  0.00    +0.000 OA
ATOM      9  H   UNL     1       7.866   3.856  19.056  0.00  0.00    +0.000 HD
ENDBRANCH   2   8
BRANCH   1  10
ATOM     10  C   UNL     1       6.215   4.300  15.791  0.00  0.00    +0.000 C 
ATOM     11  O   UNL     1       6.681   4.098  14.667  0.00  0.00    +0.000 OA
BRANCH  10  12
ATOM     12  C   UNL     1       5.117   3.399  16.309  0.00  0.00    +0.000 C 
BRANCH  12  13
ATOM     13  C   UNL     1       3.753   4.046  16.197  0.00  0.00    +0.000 C 
BRANCH  13  14
ATOM     14  C   UNL     1       2.790   3.360  17.150  0.00  0.00    +0.000 C 
BRANCH  14  15
ATOM     15  C   UNL     1       3.551   2.379  18.017  0.00  0.00    +0.000 C 
BRANCH  15  16
ATOM     16  C   UNL     1       2.781   2.105  19.293  0.00  0.00    +0.000 C 
BRANCH  16  17
ATOM     17  C   UNL     1       3.337   2.962  20.415  0.00  0.00    +0.000 C 
BRANCH  17  18
ATOM     18  C   UNL     1       2.231   3.322  21.387  0.00  0.00    +0.000 C 
BRANCH  18  19
ATOM     19  C   UNL     1       1.314   4.358  20.763  0.00  0.00    +0.000 C 
BRANCH  19  20
ATOM     20  C   UNL     1       2.111   5.595  20.391  0.00  0.00    +0.000 C 
BRANCH  20  21
ATOM     21  C   UNL     1       2.018   5.845  18.897  0.00  0.00    +0.000 C 
BRANCH  21  22
ATOM     22  C   UNL     1       3.045   6.884  18.480  0.00  0.00    +0.000 C 
BRANCH  22  23
ATOM     23  C   UNL     1       2.346   8.128  17.955  0.00  0.00    +0.000 C 
BRANCH  23  24
ATOM     24  C   UNL     1       1.542   8.788  19.065  0.00  0.00    +0.000 C 
BRANCH  24  26
ATOM     25  C   UNL     1       0.265  10.832  19.727  0.00  0.00    +0.000 C 
ATOM     26  C   UNL     1       1.207  10.229  18.703  0.00  0.00    +0.000 C 
ENDBRANCH  24  26
ENDBRANCH  23  24
ENDBRANCH  22  23
ENDBRANCH  21  22
ENDBRANCH  20  21
ENDBRANCH  19  20
ENDBRANCH  18  19
ENDBRANCH  17  18
ENDBRANCH  16  17
ENDBRANCH  15  16
ENDBRANCH  14  15
ENDBRANCH  13  14
ENDBRANCH  12  13
ENDBRANCH  10  12
ENDBRANCH   1  10
BRANCH   4  27
ATOM     27  C   UNL     1       8.169   8.953  18.572  0.00  0.00    +0.000 C 
BRANCH  27  28
ATOM     28  O   UNL     1       8.332  10.123  17.774  0.00  0.00    +0.000 OA
BRANCH  28  29
ATOM     29  C   UNL     1       9.628  10.675  17.962  0.00  0.00    +0.000 C 
BRANCH  29  30
ATOM     30  C   UNL     1       9.440  12.030  18.571  0.00  0.00    +0.000 A 
ATOM     31  C   UNL     1       8.795  13.048  17.862  0.00  0.00    +0.000 A 
ATOM     32  C   UNL     1       8.714  14.330  18.402  0.00  0.00    +0.000 A 
ATOM     33  C   UNL     1       9.238  14.592  19.668  0.00  0.00    +0.000 A 
ATOM     34  C   UNL     1       9.854  13.574  20.392  0.00  0.00    +0.000 A 
ATOM     35  C   UNL     1       9.961  12.298  19.845  0.00  0.00    +0.000 A 
ENDBRANCH  29  30
ENDBRANCH  28  29
ENDBRANCH  27  28
ENDBRANCH   4  27
TORSDOF 20
ENDMDL
MODEL 6
REMARK VINA RESULT:      -6.1      2.873      9.198
REMARK  Name = 
REMARK  21 active torsions:
REMARK  status: ('A' for Active; 'I' for Inactive)
REMARK    1  A    between atoms: C_1  and  C_2
REMARK    2  A    between atoms: C_2  and  C_3
REMARK    3  A    between atoms: C_3  and  C_4
REMARK    4  A    between atoms: C_4  and  C_5
REMARK    5  A    between atoms: C_5  and  C_6
REMARK    6  A    between atoms: C_6  and  C_7
REMARK    7  A    between atoms: C_7  and  C_8
REMARK    8  A    between atoms: C_8  and  C_9
REMARK    9  A    between atoms: C_9  and  C_10
REMARK   10  A    between atoms: C_10  and  C_11
REMARK   11  A    between atoms: C_11  and  C_12
REMARK   12  A    between atoms: C_12  and  C_13
REMARK   13  A    between atoms: C_13  and  C_14
REMARK   14  A    between atoms: C_14  and  C_15
REMARK   15  A    between atoms: C_15  and  C_16
REMARK   16  A    between atoms: C_16  and  C_18
REMARK   17  A    between atoms: C_19  and  O_20
REMARK   18  A    between atoms: C_22  and  C_23
REMARK   19  A    between atoms: C_23  and  O_24
REMARK   20  A    between atoms: O_24  and  C_25
REMARK   21  A    between atoms: C_25  and  C_26
REMARK                            x       y       z     vdW  Elec       q    Type
REMARK                         _______ _______ _______ _____ _____    ______ ____
ROOT
ATOM      1  C   UNL     1       2.801   6.928  18.775  0.00  0.00    +0.000 C 
ATOM      2  C   UNL     1       2.257   6.665  19.996  0.00  0.00    +0.000 C 
ATOM      3  C   UNL     1       1.323   7.645  20.642  0.00  0.00    +0.000 C 
ATOM      4  C   UNL     1       1.637   9.057  20.186  0.00  0.00    +0.000 C 
ATOM      5  O   UNL     1       1.665   9.115  18.760  0.00  0.00    +0.000 OA
ATOM      6  C   UNL     1       2.370   8.180  18.076  0.00  0.00    +0.000 C 
ATOM      7  O   UNL     1       2.601   8.384  16.892  0.00  0.00    +0.000 OA
ENDROOT
BRANCH   2   8
ATOM      8  O   UNL     1       2.442   5.560  20.815  0.00  0.00    +0.000 OA
ATOM      9  H   UNL     1       1.867   5.549  21.601  0.00  0.00    +0.000 HD
ENDBRANCH   2   8
BRANCH   1  10
ATOM     10  C   UNL     1       3.728   5.983  18.051  0.00  0.00    +0.000 C 
ATOM     11  O   UNL     1       3.299   4.983  17.472  0.00  0.00    +0.000 OA
BRANCH  10  12
ATOM     12  C   UNL     1       5.215   6.257  18.050  0.00  0.00    +0.000 C 
BRANCH  12  13
ATOM     13  C   UNL     1       5.953   5.383  19.042  0.00  0.00    +0.000 C 
BRANCH  13  14
ATOM     14  C   UNL     1       7.443   5.661  18.948  0.00  0.00    +0.000 C 
BRANCH  14  15
ATOM     15  C   UNL     1       7.693   6.722  17.897  0.00  0.00    +0.000 C 
BRANCH  15  16
ATOM     16  C   UNL     1       8.357   7.930  18.525  0.00  0.00    +0.000 C 
BRANCH  16  17
ATOM     17  C   UNL     1       7.913   9.188  17.801  0.00  0.00    +0.000 C 
BRANCH  17  18
ATOM     18  C   UNL     1       8.917  10.300  18.034  0.00  0.00    +0.000 C 
BRANCH  18  19
ATOM     19  C   UNL     1       9.379  10.281  19.479  0.00  0.00    +0.000 C 
BRANCH  19  20
ATOM     20  C   UNL     1      10.423  11.359  19.701  0.00  0.00    +0.000 C 
BRANCH  20  21
ATOM     21  C   UNL     1      10.127  12.115  20.984  0.00  0.00    +0.000 C 
BRANCH  21  22
ATOM     22  C   UNL     1      10.512  13.576  20.826  0.00  0.00    +0.000 C 
BRANCH  22  23
ATOM     23  C   UNL     1       9.974  14.118  19.512  0.00  0.00    +0.000 C 
BRANCH  23  24
ATOM     24  C   UNL     1      10.567  15.490  19.227  0.00  0.00    +0.000 C 
BRANCH  24  26
ATOM     25  C   UNL     1      10.950  16.193  16.860  0.00  0.00    +0.000 C 
ATOM     26  C   UNL     1      11.519  15.429  18.040  0.00  0.00    +0.000 C 
ENDBRANCH  24  26
ENDBRANCH  23  24
ENDBRANCH  22  23
ENDBRANCH  21  22
ENDBRANCH  20  21
ENDBRANCH  19  20
ENDBRANCH  18  19
ENDBRANCH  17  18
ENDBRANCH  16  17
ENDBRANCH  15  16
ENDBRANCH  14  15
ENDBRANCH  13  14
ENDBRANCH  12  13
ENDBRANCH  10  12
ENDBRANCH   1  10
BRANCH   4  27
ATOM     27  C   UNL     1       0.554  10.021  20.665  0.00  0.00    +0.000 C 
BRANCH  27  28
ATOM     28  O   UNL     1       0.020  10.754  19.566  0.00  0.00    +0.000 OA
BRANCH  28  29
ATOM     29  C   UNL     1      -1.310  11.170  19.845  0.00  0.00    +0.000 C 
BRANCH  29  30
ATOM     30  C   UNL     1      -2.110  10.939  18.601  0.00  0.00    +0.000 A 
ATOM     31  C   UNL     1      -1.634  10.094  17.594  0.00  0.00    +0.000 A 
ATOM     32  C   UNL     1      -2.343   9.964  16.401  0.00  0.00    +0.000 A 
ATOM     33  C   UNL     1      -3.548  10.644  16.223  0.00  0.00    +0.000 A 
ATOM     34  C   UNL     1      -4.043  11.462  17.236  0.00  0.00    +0.000 A 
ATOM     35  C   UNL     1      -3.325  11.615  18.420  0.00  0.00    +0.000 A 
ENDBRANCH  29  30
ENDBRANCH  28  29
ENDBRANCH  27  28
ENDBRANCH   4  27
TORSDOF 20
ENDMDL
MODEL 7
REMARK VINA RESULT:      -6.0      3.883      8.833
REMARK  Name = 
REMARK  21 active torsions:
REMARK  status: ('A' for Active; 'I' for Inactive)
REMARK    1  A    between atoms: C_1  and  C_2
REMARK    2  A    between atoms: C_2  and  C_3
REMARK    3  A    between atoms: C_3  and  C_4
REMARK    4  A    between atoms: C_4  and  C_5
REMARK    5  A    between atoms: C_5  and  C_6
REMARK    6  A    between atoms: C_6  and  C_7
REMARK    7  A    between atoms: C_7  and  C_8
REMARK    8  A    between atoms: C_8  and  C_9
REMARK    9  A    between atoms: C_9  and  C_10
REMARK   10  A    between atoms: C_10  and  C_11
REMARK   11  A    between atoms: C_11  and  C_12
REMARK   12  A    between atoms: C_12  and  C_13
REMARK   13  A    between atoms: C_13  and  C_14
REMARK   14  A    between atoms: C_14  and  C_15
REMARK   15  A    between atoms: C_15  and  C_16
REMARK   16  A    between atoms: C_16  and  C_18
REMARK   17  A    between atoms: C_19  and  O_20
REMARK   18  A    between atoms: C_22  and  C_23
REMARK   19  A    between atoms: C_23  and  O_24
REMARK   20  A    between atoms: O_24  and  C_25
REMARK   21  A    between atoms: C_25  and  C_26
REMARK                            x       y       z     vdW  Elec       q    Type
REMARK                         _______ _______ _______ _____ _____    ______ ____
ROOT
ATOM      1  C   UNL     1       2.201   7.437  19.550  0.00  0.00    +0.000 C 
ATOM      2  C   UNL     1       2.536   8.016  18.364  0.00  0.00    +0.000 C 
ATOM      3  C   UNL     1       2.186   9.448  18.088  0.00  0.00    +0.000 C 
ATOM      4  C   UNL     1       0.940   9.846  18.855  0.00  0.00    +0.000 C 
ATOM      5  O   UNL     1       1.097   9.529  20.239  0.00  0.00    +0.000 OA
ATOM      6  C   UNL     1       1.548   8.299  20.586  0.00  0.00    +0.000 C 
ATOM      7  O   UNL     1       1.435   7.952  21.753  0.00  0.00    +0.000 OA
ENDROOT
BRANCH   2   8
ATOM      8  O   UNL     1       3.193   7.460  17.275  0.00  0.00    +0.000 OA
ATOM      9  H   UNL     1       2.803   6.625  16.960  0.00  0.00    +0.000 HD
ENDBRANCH   2   8
BRANCH   1  10
ATOM     10  C   UNL     1       2.540   6.012  19.912  0.00  0.00    +0.000 C 
ATOM     11  O   UNL     1       3.698   5.594  19.854  0.00  0.00    +0.000 OA
BRANCH  10  12
ATOM     12  C   UNL     1       1.435   5.070  20.334  0.00  0.00    +0.000 C 
BRANCH  12  13
ATOM     13  C   UNL     1       1.022   4.141  19.213  0.00  0.00    +0.000 C 
BRANCH  13  14
ATOM     14  C   UNL     1       1.421   2.718  19.564  0.00  0.00    +0.000 C 
BRANCH  14  15
ATOM     15  C   UNL     1       2.229   2.126  18.428  0.00  0.00    +0.000 C 
BRANCH  15  16
ATOM     16  C   UNL     1       3.704   2.401  18.642  0.00  0.00    +0.000 C 
BRANCH  16  17
ATOM     17  C   UNL     1       4.262   3.141  17.440  0.00  0.00    +0.000 C 
BRANCH  17  18
ATOM     18  C   UNL     1       5.378   4.069  17.878  0.00  0.00    +0.000 C 
BRANCH  18  19
ATOM     19  C   UNL     1       5.502   5.221  16.898  0.00  0.00    +0.000 C 
BRANCH  19  20
ATOM     20  C   UNL     1       6.966   5.494  16.605  0.00  0.00    +0.000 C 
BRANCH  20  21
ATOM     21  C   UNL     1       7.331   4.957  15.233  0.00  0.00    +0.000 C 
BRANCH  21  22
ATOM     22  C   UNL     1       6.105   4.946  14.336  0.00  0.00    +0.000 C 
BRANCH  22  23
ATOM     23  C   UNL     1       6.110   3.703  13.460  0.00  0.00    +0.000 C 
BRANCH  23  24
ATOM     24  C   UNL     1       4.734   3.484  12.850  0.00  0.00    +0.000 C 
BRANCH  24  26
ATOM     25  C   UNL     1       3.526   3.346  10.667  0.00  0.00    +0.000 C 
ATOM     26  C   UNL     1       4.851   3.131  11.373  0.00  0.00    +0.000 C 
ENDBRANCH  24  26
ENDBRANCH  23  24
ENDBRANCH  22  23
ENDBRANCH  21  22
ENDBRANCH  20  21
ENDBRANCH  19  20
ENDBRANCH  18  19
ENDBRANCH  17  18
ENDBRANCH  16  17
ENDBRANCH  15  16
ENDBRANCH  14  15
ENDBRANCH  13  14
ENDBRANCH  12  13
ENDBRANCH  10  12
ENDBRANCH   1  10
BRANCH   4  27
ATOM     27  C   UNL     1       0.713  11.352  18.751  0.00  0.00    +0.000 C 
BRANCH  27  28
ATOM     28  O   UNL     1      -0.682  11.647  18.764  0.00  0.00    +0.000 OA
BRANCH  28  29
ATOM     29  C   UNL     1      -1.399  10.692  17.996  0.00  0.00    +0.000 C 
BRANCH  29  30
ATOM     30  C   UNL     1      -2.816  11.170  17.918  0.00  0.00    +0.000 A 
ATOM     31  C   UNL     1      -3.416  11.802  19.011  0.00  0.00    +0.000 A 
ATOM     32  C   UNL     1      -4.764  12.155  18.959  0.00  0.00    +0.000 A 
ATOM     33  C   UNL     1      -5.506  11.916  17.803  0.00  0.00    +0.000 A 
ATOM     34  C   UNL     1      -4.905  11.317  16.699  0.00  0.00    +0.000 A 
ATOM     35  C   UNL     1      -3.566  10.939  16.756  0.00  0.00    +0.000 A 
ENDBRANCH  29  30
ENDBRANCH  28  29
ENDBRANCH  27  28
ENDBRANCH   4  27
TORSDOF 20
ENDMDL
MODEL 8
REMARK VINA RESULT:      -5.9      1.547      2.508
REMARK  Name = 
REMARK  21 active torsions:
REMARK  status: ('A' for Active; 'I' for Inactive)
REMARK    1  A    between atoms: C_1  and  C_2
REMARK    2  A    between atoms: C_2  and  C_3
REMARK    3  A    between atoms: C_3  and  C_4
REMARK    4  A    between atoms: C_4  and  C_5
REMARK    5  A    between atoms: C_5  and  C_6
REMARK    6  A    between atoms: C_6  and  C_7
REMARK    7  A    between atoms: C_7  and  C_8
REMARK    8  A    between atoms: C_8  and  C_9
REMARK    9  A    between atoms: C_9  and  C_10
REMARK   10  A    between atoms: C_10  and  C_11
REMARK   11  A    between atoms: C_11  and  C_12
REMARK   12  A    between atoms: C_12  and  C_13
REMARK   13  A    between atoms: C_13  and  C_14
REMARK   14  A    between atoms: C_14  and  C_15
REMARK   15  A    between atoms: C_15  and  C_16
REMARK   16  A    between atoms: C_16  and  C_18
REMARK   17  A    between atoms: C_19  and  O_20
REMARK   18  A    between atoms: C_22  and  C_23
REMARK   19  A    between atoms: C_23  and  O_24
REMARK   20  A    between atoms: O_24  and  C_25
REMARK   21  A    between atoms: C_25  and  C_26
REMARK                            x       y       z     vdW  Elec       q    Type
REMARK                         _______ _______ _______ _____ _____    ______ ____
ROOT
ATOM      1  C   UNL     1       6.421   5.327  16.859  0.00  0.00    +0.000 C 
ATOM      2  C   UNL     1       7.451   5.198  17.740  0.00  0.00    +0.000 C 
ATOM      3  C   UNL     1       8.003   6.399  18.450  0.00  0.00    +0.000 C 
ATOM      4  C   UNL     1       7.815   7.646  17.606  0.00  0.00    +0.000 C 
ATOM      5  O   UNL     1       6.448   7.766  17.211  0.00  0.00    +0.000 OA
ATOM      6  C   UNL     1       5.816   6.686  16.688  0.00  0.00    +0.000 C 
ATOM      7  O   UNL     1       4.747   6.863  16.122  0.00  0.00    +0.000 OA
ENDROOT
BRANCH   2   8
ATOM      8  O   UNL     1       8.140   4.054  18.120  0.00  0.00    +0.000 OA
ATOM      9  H   UNL     1       8.968   4.231  18.601  0.00  0.00    +0.000 HD
ENDBRANCH   2   8
BRANCH   1  10
ATOM     10  C   UNL     1       5.797   4.166  16.126  0.00  0.00    +0.000 C 
ATOM     11  O   UNL     1       6.022   3.968  14.930  0.00  0.00    +0.000 OA
BRANCH  10  12
ATOM     12  C   UNL     1       4.862   3.237  16.866  0.00  0.00    +0.000 C 
BRANCH  12  13
ATOM     13  C   UNL     1       3.417   3.672  16.744  0.00  0.00    +0.000 C 
BRANCH  13  14
ATOM     14  C   UNL     1       2.708   3.445  18.068  0.00  0.00    +0.000 C 
BRANCH  14  15
ATOM     15  C   UNL     1       2.062   4.737  18.522  0.00  0.00    +0.000 C 
BRANCH  15  16
ATOM     16  C   UNL     1       2.904   5.388  19.602  0.00  0.00    +0.000 C 
BRANCH  16  17
ATOM     17  C   UNL     1       2.583   6.869  19.672  0.00  0.00    +0.000 C 
BRANCH  17  18
ATOM     18  C   UNL     1       1.986   7.331  18.357  0.00  0.00    +0.000 C 
BRANCH  18  19
ATOM     19  C   UNL     1       2.582   8.671  17.964  0.00  0.00    +0.000 C 
BRANCH  19  20
ATOM     20  C   UNL     1       1.475   9.692  17.775  0.00  0.00    +0.000 C 
BRANCH  20  21
ATOM     21  C   UNL     1       1.833  10.986  18.481  0.00  0.00    +0.000 C 
BRANCH  21  22
ATOM     22  C   UNL     1       0.569  11.729  18.879  0.00  0.00    +0.000 C 
BRANCH  22  23
ATOM     23  C   UNL     1      -0.516  10.739  19.270  0.00  0.00    +0.000 C 
BRANCH  23  24
ATOM     24  C   UNL     1      -0.764  10.794  20.770  0.00  0.00    +0.000 C 
BRANCH  24  26
ATOM     25  C   UNL     1       0.270   8.768  21.804  0.00  0.00    +0.000 C 
ATOM     26  C   UNL     1       0.437  10.251  21.534  0.00  0.00    +0.000 C 
ENDBRANCH  24  26
ENDBRANCH  23  24
ENDBRANCH  22  23
ENDBRANCH  21  22
ENDBRANCH  20  21
ENDBRANCH  19  20
ENDBRANCH  18  19
ENDBRANCH  17  18
ENDBRANCH  16  17
ENDBRANCH  15  16
ENDBRANCH  14  15
ENDBRANCH  13  14
ENDBRANCH  12  13
ENDBRANCH  10  12
ENDBRANCH   1  10
BRANCH   4  27
ATOM     27  C   UNL     1       8.171   8.891  18.416  0.00  0.00    +0.000 C 
BRANCH  27  28
ATOM     28  O   UNL     1       8.738   9.888  17.570  0.00  0.00    +0.000 OA
BRANCH  28  29
ATOM     29  C   UNL     1       9.607  10.733  18.312  0.00  0.00    +0.000 C 
BRANCH  29  30
ATOM     30  C   UNL     1       9.029  12.112  18.254  0.00  0.00    +0.000 A 
ATOM     31  C   UNL     1       9.496  13.118  19.106  0.00  0.00    +0.000 A 
ATOM     32  C   UNL     1       8.884  14.369  19.109  0.00  0.00    +0.000 A 
ATOM     33  C   UNL     1       7.831  14.637  18.232  0.00  0.00    +0.000 A 
ATOM     34  C   UNL     1       7.384  13.650  17.358  0.00  0.00    +0.000 A 
ATOM     35  C   UNL     1       7.975  12.389  17.371  0.00  0.00    +0.000 A 
ENDBRANCH  29  30
ENDBRANCH  28  29
ENDBRANCH  27  28
ENDBRANCH   4  27
TORSDOF 20
ENDMDL
MODEL 9
REMARK VINA RESULT:      -5.9      3.447      8.285
REMARK  Name = 
REMARK  21 active torsions:
REMARK  status: ('A' for Active; 'I' for Inactive)
REMARK    1  A    between atoms: C_1  and  C_2
REMARK    2  A    between atoms: C_2  and  C_3
REMARK    3  A    between atoms: C_3  and  C_4
REMARK    4  A    between atoms: C_4  and  C_5
REMARK    5  A    between atoms: C_5  and  C_6
REMARK    6  A    between atoms: C_6  and  C_7
REMARK    7  A    between atoms: C_7  and  C_8
REMARK    8  A    between atoms: C_8  and  C_9
REMARK    9  A    between atoms: C_9  and  C_10
REMARK   10  A    between atoms: C_10  and  C_11
REMARK   11  A    between atoms: C_11  and  C_12
REMARK   12  A    between atoms: C_12  and  C_13
REMARK   13  A    between atoms: C_13  and  C_14
REMARK   14  A    between atoms: C_14  and  C_15
REMARK   15  A    between atoms: C_15  and  C_16
REMARK   16  A    between atoms: C_16  and  C_18
REMARK   17  A    between atoms: C_19  and  O_20
REMARK   18  A    between atoms: C_22  and  C_23
REMARK   19  A    between atoms: C_23  and  O_24
REMARK   20  A    between atoms: O_24  and  C_25
REMARK   21  A    between atoms: C_25  and  C_26
REMARK                            x       y       z     vdW  Elec       q    Type
REMARK                         _______ _______ _______ _____ _____    ______ ____
ROOT
ATOM      1  C   UNL     1       1.683   8.343  19.875  0.00  0.00    +0.000 C 
ATOM      2  C   UNL     1       1.234   8.954  21.006  0.00  0.00    +0.000 C 
ATOM      3  C   UNL     1       0.651  10.335  20.947  0.00  0.00    +0.000 C 
ATOM      4  C   UNL     1       1.251  11.115  19.793  0.00  0.00    +0.000 C 
ATOM      5  O   UNL     1       1.130  10.367  18.583  0.00  0.00    +0.000 OA
ATOM      6  C   UNL     1       1.500   9.063  18.574  0.00  0.00    +0.000 C 
ATOM      7  O   UNL     1       1.637   8.509  17.492  0.00  0.00    +0.000 OA
ENDROOT
BRANCH   2   8
ATOM      8  O   UNL     1       1.231   8.483  22.312  0.00  0.00    +0.000 OA
ATOM      9  H   UNL     1       1.210   7.512  22.383  0.00  0.00    +0.000 HD
ENDBRANCH   2   8
BRANCH   1  10
ATOM     10  C   UNL     1       2.259   6.949  19.849  0.00  0.00    +0.000 C 
ATOM     11  O   UNL     1       3.422   6.743  19.498  0.00  0.00    +0.000 OA
BRANCH  10  12
ATOM     12  C   UNL     1       1.387   5.778  20.242  0.00  0.00    +0.000 C 
BRANCH  12  13
ATOM     13  C   UNL     1       2.129   4.785  21.112  0.00  0.00    +0.000 C 
BRANCH  13  14
ATOM     14  C   UNL     1       1.415   3.446  21.071  0.00  0.00    +0.000 C 
BRANCH  14  15
ATOM     15  C   UNL     1       2.190   2.488  20.191  0.00  0.00    +0.000 C 
BRANCH  15  16
ATOM     16  C   UNL     1       3.674   2.608  20.473  0.00  0.00    +0.000 C 
BRANCH  16  17
ATOM     17  C   UNL     1       4.442   2.590  19.165  0.00  0.00    +0.000 C 
BRANCH  17  18
ATOM     18  C   UNL     1       3.959   3.711  18.266  0.00  0.00    +0.000 C 
BRANCH  18  19
ATOM     19  C   UNL     1       4.008   3.266  16.816  0.00  0.00    +0.000 C 
BRANCH  19  20
ATOM     20  C   UNL     1       5.331   3.673  16.195  0.00  0.00    +0.000 C 
BRANCH  20  21
ATOM     21  C   UNL     1       5.125   4.844  15.252  0.00  0.00    +0.000 C 
BRANCH  21  22
ATOM     22  C   UNL     1       6.199   5.894  15.486  0.00  0.00    +0.000 C 
BRANCH  22  23
ATOM     23  C   UNL     1       5.929   6.636  16.785  0.00  0.00    +0.000 C 
BRANCH  23  24
ATOM     24  C   UNL     1       7.154   6.581  17.686  0.00  0.00    +0.000 C 
BRANCH  24  26
ATOM     25  C   UNL     1       8.121   5.620  19.781  0.00  0.00    +0.000 C 
ATOM     26  C   UNL     1       6.897   5.680  18.887  0.00  0.00    +0.000 C 
ENDBRANCH  24  26
ENDBRANCH  23  24
ENDBRANCH  22  23
ENDBRANCH  21  22
ENDBRANCH  20  21
ENDBRANCH  19  20
ENDBRANCH  18  19
ENDBRANCH  17  18
ENDBRANCH  16  17
ENDBRANCH  15  16
ENDBRANCH  14  15
ENDBRANCH  13  14
ENDBRANCH  12  13
ENDBRANCH  10  12
ENDBRANCH   1  10
BRANCH   4  27
ATOM     27  C   UNL     1       0.502  12.431  19.598  0.00  0.00    +0.000 C 
BRANCH  27  28
ATOM     28  O   UNL     1      -0.454  12.309  18.548  0.00  0.00    +0.000 OA
BRANCH  28  29
ATOM     29  C   UNL     1      -1.718  11.926  19.070  0.00  0.00    +0.000 C 
BRANCH  29  30
ATOM     30  C   UNL     1      -2.496  11.331  17.938  0.00  0.00    +0.000 A 
ATOM     31  C   UNL     1      -1.914  10.378  17.095  0.00  0.00    +0.000 A 
ATOM     32  C   UNL     1      -2.615   9.905  15.988  0.00  0.00    +0.000 A 
ATOM     33  C   UNL     1      -3.914  10.348  15.740  0.00  0.00    +0.000 A 
ATOM     34  C   UNL     1      -4.512  11.272  16.594  0.00  0.00    +0.000 A 
ATOM     35  C   UNL     1      -3.804  11.767  17.686  0.00  0.00    +0.000 A 
ENDBRANCH  29  30
ENDBRANCH  28  29
ENDBRANCH  27  28
ENDBRANCH   4  27
TORSDOF 20
ENDMDL
