MODEL 1
REMARK VINA RESULT:      -7.0      0.000      0.000
REMARK  Name = 
REMARK  14 active torsions:
REMARK  status: ('A' for Active; 'I' for Inactive)
REMARK    1  A    between atoms: C_1  and  C_2
REMARK    2  A    between atoms: C_2  and  O_3
REMARK    3  A    between atoms: O_3  and  C_4
REMARK    4  A    between atoms: C_4  and  O_5
REMARK    5  A    between atoms: C_7  and  C_8
REMARK    6  A    between atoms: C_10  and  C_11
REMARK    7  A    between atoms: C_12  and  C_13
REMARK    8  A    between atoms: C_13  and  O_15
REMARK    9  A    between atoms: O_15  and  C_16
REMARK   10  A    between atoms: C_16  and  C_17
REMARK   11  A    between atoms: C_17  and  S_18
REMARK   12  A    between atoms: S_18  and  C_19
REMARK   13  A    between atoms: C_19  and  C_20
REMARK   14  A    between atoms: C_21  and  C_22
REMARK                            x       y       z     vdW  Elec       q    Type
REMARK                         _______ _______ _______ _____ _____    ______ ____
ROOT
ATOM      1  C   UNL     1       2.301   3.457  17.928  0.00  0.00    +0.000 C 
ATOM      2  C   UNL     1       3.542   3.971  18.093  0.00  0.00    +0.000 C 
ATOM      3  C   UNL     1       4.574   3.429  19.041  0.00  0.00    +0.000 C 
ATOM      4  C   UNL     1       4.214   2.433  20.128  0.00  0.00    +0.000 C 
ATOM      5  N   UNL     1       5.828   3.751  19.025  0.00  0.00    +0.000 NA
ATOM      6  C   UNL     1       6.319   4.655  18.118  0.00  0.00    +0.000 C 
ATOM      7  C   UNL     1       7.814   4.832  18.217  0.00  0.00    +0.000 C 
ATOM      8  C   UNL     1       5.530   5.337  17.261  0.00  0.00    +0.000 C 
ATOM      9  C   UNL     1       4.022   5.164  17.266  0.00  0.00    +0.000 C 
ATOM     10  C   UNL     1       3.354   6.460  17.757  0.00  0.00    +0.000 C 
ENDROOT
BRANCH   1  11
ATOM     11  O   UNL     1       1.444   4.075  17.036  0.00  0.00    +0.000 OA
ATOM     12  H   UNL     1       1.030   3.379  16.504  0.00  0.00    +0.000 HD
ENDBRANCH   1  11
BRANCH   8  13
ATOM     13  C   UNL     1       6.121   6.374  16.366  0.00  0.00    +0.000 C 
ATOM     14  O   UNL     1       6.559   7.450  16.740  0.00  0.00    +0.000 OA
BRANCH  13  15
ATOM     15  O   UNL     1       6.008   6.010  15.061  0.00  0.00    +0.000 OA
BRANCH  15  16
ATOM     16  C   UNL     1       6.913   4.966  14.652  0.00  0.00    +0.000 C 
BRANCH  16  17
ATOM     17  C   UNL     1       6.222   3.763  14.010  0.00  0.00    +0.000 C 
BRANCH  17  18
ATOM     18  S   UNL     1       6.559   3.793  12.214  0.00  0.00    +0.000 S 
BRANCH  18  19
ATOM     19  C   UNL     1       5.499   2.415  11.685  0.00  0.00    +0.000 C 
ATOM     20  C   UNL     1       6.370   1.266  11.203  0.00  0.00    +0.000 C 
ENDBRANCH  18  19
ENDBRANCH  17  18
ENDBRANCH  16  17
ENDBRANCH  15  16
ENDBRANCH  13  15
ENDBRANCH   8  13
BRANCH   1  21
ATOM     21  O   UNL     1       1.890   2.299  18.542  0.00  0.00    +0.000 OA
BRANCH  21  23
ATOM     22  C   UNL     1       0.832   3.348  20.411  0.00  0.00    +0.000 C 
ATOM     23  C   UNL     1       0.652   2.373  19.258  0.00  0.00    +0.000 C 
ENDBRANCH  21  23
ENDBRANCH   1  21
TORSDOF 9
ENDMDL
MODEL 2
REMARK VINA RESULT:      -6.3      3.430      5.173
REMARK  Name = 
REMARK  14 active torsions:
REMARK  status: ('A' for Active; 'I' for Inactive)
REMARK    1  A    between atoms: C_1  and  C_2
REMARK    2  A    between atoms: C_2  and  O_3
REMARK    3  A    between atoms: O_3  and  C_4
REMARK    4  A    between atoms: C_4  and  O_5
REMARK    5  A    between atoms: C_7  and  C_8
REMARK    6  A    between atoms: C_10  and  C_11
REMARK    7  A    between atoms: C_12  and  C_13
REMARK    8  A    between atoms: C_13  and  O_15
REMARK    9  A    between atoms: O_15  and  C_16
REMARK   10  A    between atoms: C_16  and  C_17
REMARK   11  A    between atoms: C_17  and  S_18
REMARK   12  A    between atoms: S_18  and  C_19
REMARK   13  A    between atoms: C_19  and  C_20
REMARK   14  A    between atoms: C_21  and  C_22
REMARK                            x       y       z     vdW  Elec       q    Type
REMARK                         _______ _______ _______ _____ _____    ______ ____
ROOT
ATOM      1  C   UNL     1       2.840   4.988  19.422  0.00  0.00    +0.000 C 
ATOM      2  C   UNL     1       3.715   4.727  18.423  0.00  0.00    +0.000 C 
ATOM      3  C   UNL     1       3.540   3.650  17.390  0.00  0.00    +0.000 C 
ATOM      4  C   UNL     1       2.507   2.550  17.553  0.00  0.00    +0.000 C 
ATOM      5  N   UNL     1       4.233   3.556  16.300  0.00  0.00    +0.000 NA
ATOM      6  C   UNL     1       5.222   4.459  16.006  0.00  0.00    +0.000 C 
ATOM      7  C   UNL     1       5.853   4.218  14.658  0.00  0.00    +0.000 C 
ATOM      8  C   UNL     1       5.607   5.429  16.863  0.00  0.00    +0.000 C 
ATOM      9  C   UNL     1       4.978   5.568  18.237  0.00  0.00    +0.000 C 
ATOM     10  C   UNL     1       6.016   5.223  19.319  0.00  0.00    +0.000 C 
ENDROOT
BRANCH   1  11
ATOM     11  O   UNL     1       3.142   5.997  20.318  0.00  0.00    +0.000 OA
ATOM     12  H   UNL     1       2.871   6.834  19.912  0.00  0.00    +0.000 HD
ENDBRANCH   1  11
BRANCH   8  13
ATOM     13  C   UNL     1       6.755   6.318  16.515  0.00  0.00    +0.000 C 
ATOM     14  O   UNL     1       7.714   5.984  15.839  0.00  0.00    +0.000 OA
BRANCH  13  15
ATOM     15  O   UNL     1       6.647   7.518  17.145  0.00  0.00    +0.000 OA
BRANCH  15  16
ATOM     16  C   UNL     1       7.874   7.996  17.731  0.00  0.00    +0.000 C 
BRANCH  16  17
ATOM     17  C   UNL     1       8.032   9.516  17.683  0.00  0.00    +0.000 C 
BRANCH  17  18
ATOM     18  S   UNL     1       9.132  10.026  19.051  0.00  0.00    +0.000 S 
BRANCH  18  19
ATOM     19  C   UNL     1      10.032  11.373  18.228  0.00  0.00    +0.000 C 
ATOM     20  C   UNL     1       9.050  12.460  17.820  0.00  0.00    +0.000 C 
ENDBRANCH  18  19
ENDBRANCH  17  18
ENDBRANCH  16  17
ENDBRANCH  15  16
ENDBRANCH  13  15
ENDBRANCH   8  13
BRANCH   1  21
ATOM     21  O   UNL     1       1.626   4.354  19.529  0.00  0.00    +0.000 OA
BRANCH  21  23
ATOM     22  C   UNL     1       2.087   2.759  21.249  0.00  0.00    +0.000 C 
ATOM     23  C   UNL     1       1.240   3.956  20.849  0.00  0.00    +0.000 C 
ENDBRANCH  21  23
ENDBRANCH   1  21
TORSDOF 9
ENDMDL
MODEL 3
REMARK VINA RESULT:      -6.3      3.668      5.768
REMARK  Name = 
REMARK  14 active torsions:
REMARK  status: ('A' for Active; 'I' for Inactive)
REMARK    1  A    between atoms: C_1  and  C_2
REMARK    2  A    between atoms: C_2  and  O_3
REMARK    3  A    between atoms: O_3  and  C_4
REMARK    4  A    between atoms: C_4  and  O_5
REMARK    5  A    between atoms: C_7  and  C_8
REMARK    6  A    between atoms: C_10  and  C_11
REMARK    7  A    between atoms: C_12  and  C_13
REMARK    8  A    between atoms: C_13  and  O_15
REMARK    9  A    between atoms: O_15  and  C_16
REMARK   10  A    between atoms: C_16  and  C_17
REMARK   11  A    between atoms: C_17  and  S_18
REMARK   12  A    between atoms: S_18  and  C_19
REMARK   13  A    between atoms: C_19  and  C_20
REMARK   14  A    between atoms: C_21  and  C_22
REMARK                            x       y       z     vdW  Elec       q    Type
REMARK                         _______ _______ _______ _____ _____    ______ ____
ROOT
ATOM      1  C   UNL     1       1.487   9.440  18.606  0.00  0.00    +0.000 C 
ATOM      2  C   UNL     1       1.800   8.214  19.087  0.00  0.00    +0.000 C 
ATOM      3  C   UNL     1       1.606   7.779  20.513  0.00  0.00    +0.000 C 
ATOM      4  C   UNL     1       1.322   8.777  21.619  0.00  0.00    +0.000 C 
ATOM      5  N   UNL     1       1.665   6.551  20.921  0.00  0.00    +0.000 NA
ATOM      6  C   UNL     1       1.932   5.524  20.052  0.00  0.00    +0.000 C 
ATOM      7  C   UNL     1       1.880   4.169  20.712  0.00  0.00    +0.000 C 
ATOM      8  C   UNL     1       2.249   5.725  18.755  0.00  0.00    +0.000 C 
ATOM      9  C   UNL     1       2.357   7.123  18.174  0.00  0.00    +0.000 C 
ATOM     10  C   UNL     1       3.822   7.422  17.814  0.00  0.00    +0.000 C 
ENDROOT
BRANCH   1  11
ATOM     11  O   UNL     1       1.743   9.711  17.275  0.00  0.00    +0.000 OA
ATOM     12  H   UNL     1       0.903   9.631  16.797  0.00  0.00    +0.000 HD
ENDBRANCH   1  11
BRANCH   8  13
ATOM     13  C   UNL     1       2.620   4.567  17.890  0.00  0.00    +0.000 C 
ATOM     14  O   UNL     1       1.832   3.910  17.228  0.00  0.00    +0.000 OA
BRANCH  13  15
ATOM     15  O   UNL     1       3.939   4.267  18.022  0.00  0.00    +0.000 OA
BRANCH  15  16
ATOM     16  C   UNL     1       4.529   3.650  16.860  0.00  0.00    +0.000 C 
BRANCH  16  17
ATOM     17  C   UNL     1       5.340   4.612  15.992  0.00  0.00    +0.000 C 
BRANCH  17  18
ATOM     18  S   UNL     1       7.082   4.562  16.545  0.00  0.00    +0.000 S 
BRANCH  18  19
ATOM     19  C   UNL     1       7.231   6.240  17.225  0.00  0.00    +0.000 C 
ATOM     20  C   UNL     1       7.673   6.156  18.678  0.00  0.00    +0.000 C 
ENDBRANCH  18  19
ENDBRANCH  17  18
ENDBRANCH  16  17
ENDBRANCH  15  16
ENDBRANCH  13  15
ENDBRANCH   8  13
BRANCH   1  21
ATOM     21  O   UNL     1       0.847  10.392  19.361  0.00  0.00    +0.000 OA
BRANCH  21  23
ATOM     22  C   UNL     1      -1.127  11.514  20.108  0.00  0.00    +0.000 C 
ATOM     23  C   UNL     1      -0.514  10.662  19.009  0.00  0.00    +0.000 C 
ENDBRANCH  21  23
ENDBRANCH   1  21
TORSDOF 9
ENDMDL
MODEL 4
REMARK VINA RESULT:      -6.1      3.526      5.236
REMARK  Name = 
REMARK  14 active torsions:
REMARK  status: ('A' for Active; 'I' for Inactive)
REMARK    1  A    between atoms: C_1  and  C_2
REMARK    2  A    between atoms: C_2  and  O_3
REMARK    3  A    between atoms: O_3  and  C_4
REMARK    4  A    between atoms: C_4  and  O_5
REMARK    5  A    between atoms: C_7  and  C_8
REMARK    6  A    between atoms: C_10  and  C_11
REMARK    7  A    between atoms: C_12  and  C_13
REMARK    8  A    between atoms: C_13  and  O_15
REMARK    9  A    between atoms: O_15  and  C_16
REMARK   10  A    between atoms: C_16  and  C_17
REMARK   11  A    between atoms: C_17  and  S_18
REMARK   12  A    between atoms: S_18  and  C_19
REMARK   13  A    between atoms: C_19  and  C_20
REMARK   14  A    between atoms: C_21  and  C_22
REMARK                            x       y       z     vdW  Elec       q    Type
REMARK                         _______ _______ _______ _____ _____    ______ ____
ROOT
ATOM      1  C   UNL     1       1.536   9.350  18.602  0.00  0.00    +0.000 C 
ATOM      2  C   UNL     1       1.829   8.106  19.047  0.00  0.00    +0.000 C 
ATOM      3  C   UNL     1       1.620   7.631  20.458  0.00  0.00    +0.000 C 
ATOM      4  C   UNL     1       1.344   8.600  21.593  0.00  0.00    +0.000 C 
ATOM      5  N   UNL     1       1.660   6.392  20.830  0.00  0.00    +0.000 NA
ATOM      6  C   UNL     1       1.918   5.387  19.933  0.00  0.00    +0.000 C 
ATOM      7  C   UNL     1       1.842   4.014  20.553  0.00  0.00    +0.000 C 
ATOM      8  C   UNL     1       2.245   5.622  18.644  0.00  0.00    +0.000 C 
ATOM      9  C   UNL     1       2.376   7.034  18.105  0.00  0.00    +0.000 C 
ATOM     10  C   UNL     1       3.847   7.323  17.762  0.00  0.00    +0.000 C 
ENDROOT
BRANCH   1  11
ATOM     11  O   UNL     1       1.803   9.656  17.280  0.00  0.00    +0.000 OA
ATOM     12  H   UNL     1       1.209  10.379  17.025  0.00  0.00    +0.000 HD
ENDBRANCH   1  11
BRANCH   8  13
ATOM     13  C   UNL     1       2.605   4.484  17.748  0.00  0.00    +0.000 C 
ATOM     14  O   UNL     1       1.811   3.857  17.065  0.00  0.00    +0.000 OA
BRANCH  13  15
ATOM     15  O   UNL     1       3.920   4.165  17.874  0.00  0.00    +0.000 OA
BRANCH  15  16
ATOM     16  C   UNL     1       4.678   4.262  16.652  0.00  0.00    +0.000 C 
BRANCH  16  17
ATOM     17  C   UNL     1       6.169   4.521  16.867  0.00  0.00    +0.000 C 
BRANCH  17  18
ATOM     18  S   UNL     1       6.943   4.828  15.240  0.00  0.00    +0.000 S 
BRANCH  18  19
ATOM     19  C   UNL     1       5.703   4.049  14.164  0.00  0.00    +0.000 C 
ATOM     20  C   UNL     1       6.342   3.702  12.828  0.00  0.00    +0.000 C 
ENDBRANCH  18  19
ENDBRANCH  17  18
ENDBRANCH  16  17
ENDBRANCH  15  16
ENDBRANCH  13  15
ENDBRANCH   8  13
BRANCH   1  21
ATOM     21  O   UNL     1       0.905  10.289  19.381  0.00  0.00    +0.000 OA
BRANCH  21  23
ATOM     22  C   UNL     1      -0.932  11.714  19.934  0.00  0.00    +0.000 C 
ATOM     23  C   UNL     1      -0.374  10.734  18.915  0.00  0.00    +0.000 C 
ENDBRANCH  21  23
ENDBRANCH   1  21
TORSDOF 9
ENDMDL
MODEL 5
REMARK VINA RESULT:      -5.9      2.988      4.749
REMARK  Name = 
REMARK  14 active torsions:
REMARK  status: ('A' for Active; 'I' for Inactive)
REMARK    1  A    between atoms: C_1  and  C_2
REMARK    2  A    between atoms: C_2  and  O_3
REMARK    3  A    between atoms: O_3  and  C_4
REMARK    4  A    between atoms: C_4  and  O_5
REMARK    5  A    between atoms: C_7  and  C_8
REMARK    6  A    between atoms: C_10  and  C_11
REMARK    7  A    between atoms: C_12  and  C_13
REMARK    8  A    between atoms: C_13  and  O_15
REMARK    9  A    between atoms: O_15  and  C_16
REMARK   10  A    between atoms: C_16  and  C_17
REMARK   11  A    between atoms: C_17  and  S_18
REMARK   12  A    between atoms: S_18  and  C_19
REMARK   13  A    between atoms: C_19  and  C_20
REMARK   14  A    between atoms: C_21  and  C_22
REMARK                            x       y       z     vdW  Elec       q    Type
REMARK                         _______ _______ _______ _____ _____    ______ ____
ROOT
ATOM      1  C   UNL     1       2.111   3.690  18.100  0.00  0.00    +0.000 C 
ATOM      2  C   UNL     1       3.394   4.114  18.176  0.00  0.00    +0.000 C 
ATOM      3  C   UNL     1       4.467   3.452  18.995  0.00  0.00    +0.000 C 
ATOM      4  C   UNL     1       4.137   2.418  20.055  0.00  0.00    +0.000 C 
ATOM      5  N   UNL     1       5.733   3.695  18.880  0.00  0.00    +0.000 NA
ATOM      6  C   UNL     1       6.203   4.618  17.981  0.00  0.00    +0.000 C 
ATOM      7  C   UNL     1       7.709   4.694  17.952  0.00  0.00    +0.000 C 
ATOM      8  C   UNL     1       5.389   5.398  17.239  0.00  0.00    +0.000 C 
ATOM      9  C   UNL     1       3.879   5.321  17.374  0.00  0.00    +0.000 C 
ATOM     10  C   UNL     1       3.347   6.625  17.993  0.00  0.00    +0.000 C 
ENDROOT
BRANCH   1  11
ATOM     11  O   UNL     1       1.223   4.412  17.325  0.00  0.00    +0.000 OA
ATOM     12  H   UNL     1       0.653   3.775  16.868  0.00  0.00    +0.000 HD
ENDBRANCH   1  11
BRANCH   8  13
ATOM     13  C   UNL     1       5.968   6.447  16.350  0.00  0.00    +0.000 C 
ATOM     14  O   UNL     1       5.493   6.794  15.280  0.00  0.00    +0.000 OA
BRANCH  13  15
ATOM     15  O   UNL     1       7.158   6.891  16.835  0.00  0.00    +0.000 OA
BRANCH  15  16
ATOM     16  C   UNL     1       7.115   8.218  17.396  0.00  0.00    +0.000 C 
BRANCH  16  17
ATOM     17  C   UNL     1       8.331   8.567  18.255  0.00  0.00    +0.000 C 
BRANCH  17  18
ATOM     18  S   UNL     1       8.625  10.367  18.138  0.00  0.00    +0.000 S 
BRANCH  18  19
ATOM     19  C   UNL     1       9.401  10.652  19.756  0.00  0.00    +0.000 C 
ATOM     20  C   UNL     1      10.717  11.389  19.560  0.00  0.00    +0.000 C 
ENDBRANCH  18  19
ENDBRANCH  17  18
ENDBRANCH  16  17
ENDBRANCH  15  16
ENDBRANCH  13  15
ENDBRANCH   8  13
BRANCH   1  21
ATOM     21  O   UNL     1       1.678   2.525  18.686  0.00  0.00    +0.000 OA
BRANCH  21  23
ATOM     22  C   UNL     1       0.917   3.947  20.450  0.00  0.00    +0.000 C 
ATOM     23  C   UNL     1       0.655   2.665  19.677  0.00  0.00    +0.000 C 
ENDBRANCH  21  23
ENDBRANCH   1  21
TORSDOF 9
ENDMDL
MODEL 6
REMARK VINA RESULT:      -5.8      3.675      5.562
REMARK  Name = 
REMARK  14 active torsions:
REMARK  status: ('A' for Active; 'I' for Inactive)
REMARK    1  A    between atoms: C_1  and  C_2
REMARK    2  A    between atoms: C_2  and  O_3
REMARK    3  A    between atoms: O_3  and  C_4
REMARK    4  A    between atoms: C_4  and  O_5
REMARK    5  A    between atoms: C_7  and  C_8
REMARK    6  A    between atoms: C_10  and  C_11
REMARK    7  A    between atoms: C_12  and  C_13
REMARK    8  A    between atoms: C_13  and  O_15
REMARK    9  A    between atoms: O_15  and  C_16
REMARK   10  A    between atoms: C_16  and  C_17
REMARK   11  A    between atoms: C_17  and  S_18
REMARK   12  A    between atoms: S_18  and  C_19
REMARK   13  A    between atoms: C_19  and  C_20
REMARK   14  A    between atoms: C_21  and  C_22
REMARK                            x       y       z     vdW  Elec       q    Type
REMARK                         _______ _______ _______ _____ _____    ______ ____
ROOT
ATOM      1  C   UNL     1       2.843   5.164  19.382  0.00  0.00    +0.000 C 
ATOM      2  C   UNL     1       3.771   5.005  18.410  0.00  0.00    +0.000 C 
ATOM      3  C   UNL     1       3.639   4.064  17.246  0.00  0.00    +0.000 C 
ATOM      4  C   UNL     1       2.580   2.978  17.215  0.00  0.00    +0.000 C 
ATOM      5  N   UNL     1       4.392   4.086  16.193  0.00  0.00    +0.000 NA
ATOM      6  C   UNL     1       5.412   4.994  16.067  0.00  0.00    +0.000 C 
ATOM      7  C   UNL     1       6.117   4.902  14.737  0.00  0.00    +0.000 C 
ATOM      8  C   UNL     1       5.763   5.844  17.055  0.00  0.00    +0.000 C 
ATOM      9  C   UNL     1       5.057   5.831  18.398  0.00  0.00    +0.000 C 
ATOM     10  C   UNL     1       6.023   5.334  19.487  0.00  0.00    +0.000 C 
ENDROOT
BRANCH   1  11
ATOM     11  O   UNL     1       3.110   6.051  20.410  0.00  0.00    +0.000 OA
ATOM     12  H   UNL     1       3.626   6.780  20.035  0.00  0.00    +0.000 HD
ENDBRANCH   1  11
BRANCH   8  13
ATOM     13  C   UNL     1       6.944   6.741  16.883  0.00  0.00    +0.000 C 
ATOM     14  O   UNL     1       7.892   6.511  16.149  0.00  0.00    +0.000 OA
BRANCH  13  15
ATOM     15  O   UNL     1       6.880   7.796  17.737  0.00  0.00    +0.000 OA
BRANCH  15  16
ATOM     16  C   UNL     1       7.861   8.823  17.490  0.00  0.00    +0.000 C 
BRANCH  16  17
ATOM     17  C   UNL     1       8.665   9.222  18.727  0.00  0.00    +0.000 C 
BRANCH  17  18
ATOM     18  S   UNL     1       9.321  10.909  18.471  0.00  0.00    +0.000 S 
BRANCH  18  19
ATOM     19  C   UNL     1       9.631  11.378  20.199  0.00  0.00    +0.000 C 
ATOM     20  C   UNL     1      11.037  11.945  20.322  0.00  0.00    +0.000 C 
ENDBRANCH  18  19
ENDBRANCH  17  18
ENDBRANCH  16  17
ENDBRANCH  15  16
ENDBRANCH  13  15
ENDBRANCH   8  13
BRANCH   1  21
ATOM     21  O   UNL     1       1.615   4.551  19.344  0.00  0.00    +0.000 OA
BRANCH  21  23
ATOM     22  C   UNL     1       1.288   2.708  20.829  0.00  0.00    +0.000 C 
ATOM     23  C   UNL     1       1.052   4.193  20.610  0.00  0.00    +0.000 C 
ENDBRANCH  21  23
ENDBRANCH   1  21
TORSDOF 9
ENDMDL
MODEL 7
REMARK VINA RESULT:      -5.8      2.720      6.705
REMARK  Name = 
REMARK  14 active torsions:
REMARK  status: ('A' for Active; 'I' for Inactive)
REMARK    1  A    between atoms: C_1  and  C_2
REMARK    2  A    between atoms: C_2  and  O_3
REMARK    3  A    between atoms: O_3  and  C_4
REMARK    4  A    between atoms: C_4  and  O_5
REMARK    5  A    between atoms: C_7  and  C_8
REMARK    6  A    between atoms: C_10  and  C_11
REMARK    7  A    between atoms: C_12  and  C_13
REMARK    8  A    between atoms: C_13  and  O_15
REMARK    9  A    between atoms: O_15  and  C_16
REMARK   10  A    between atoms: C_16  and  C_17
REMARK   11  A    between atoms: C_17  and  S_18
REMARK   12  A    between atoms: S_18  and  C_19
REMARK   13  A    between atoms: C_19  and  C_20
REMARK   14  A    between atoms: C_21  and  C_22
REMARK                            x       y       z     vdW  Elec       q    Type
REMARK                         _______ _______ _______ _____ _____    ______ ____
ROOT
ATOM      1  C   UNL     1       6.254   6.616  16.607  0.00  0.00    +0.000 C 
ATOM      2  C   UNL     1       5.795   5.543  17.293  0.00  0.00    +0.000 C 
ATOM      3  C   UNL     1       6.516   4.885  18.436  0.00  0.00    +0.000 C 
ATOM      4  C   UNL     1       7.976   5.177  18.731  0.00  0.00    +0.000 C 
ATOM      5  N   UNL     1       5.981   4.031  19.248  0.00  0.00    +0.000 NA
ATOM      6  C   UNL     1       4.673   3.641  19.111  0.00  0.00    +0.000 C 
ATOM      7  C   UNL     1       4.225   2.702  20.203  0.00  0.00    +0.000 C 
ATOM      8  C   UNL     1       3.896   4.032  18.079  0.00  0.00    +0.000 C 
ATOM      9  C   UNL     1       4.436   4.920  16.974  0.00  0.00    +0.000 C 
ATOM     10  C   UNL     1       4.508   4.125  15.658  0.00  0.00    +0.000 C 
ENDROOT
BRANCH   1  11
ATOM     11  O   UNL     1       5.494   7.104  15.560  0.00  0.00    +0.000 OA
ATOM     12  H   UNL     1       5.023   6.352  15.170  0.00  0.00    +0.000 HD
ENDBRANCH   1  11
BRANCH   8  13
ATOM     13  C   UNL     1       2.511   3.493  17.943  0.00  0.00    +0.000 C 
ATOM     14  O   UNL     1       2.231   2.401  17.473  0.00  0.00    +0.000 OA
BRANCH  13  15
ATOM     15  O   UNL     1       1.590   4.423  18.308  0.00  0.00    +0.000 OA
BRANCH  15  16
ATOM     16  C   UNL     1       1.183   4.349  19.688  0.00  0.00    +0.000 C 
BRANCH  16  17
ATOM     17  C   UNL     1       1.753   5.466  20.563  0.00  0.00    +0.000 C 
BRANCH  17  18
ATOM     18  S   UNL     1       2.189   6.878  19.488  0.00  0.00    +0.000 S 
BRANCH  18  19
ATOM     19  C   UNL     1       1.680   8.249  20.567  0.00  0.00    +0.000 C 
ATOM     20  C   UNL     1       0.409   7.861  21.307  0.00  0.00    +0.000 C 
ENDBRANCH  18  19
ENDBRANCH  17  18
ENDBRANCH  16  17
ENDBRANCH  15  16
ENDBRANCH  13  15
ENDBRANCH   8  13
BRANCH   1  21
ATOM     21  O   UNL     1       7.395   7.292  16.963  0.00  0.00    +0.000 OA
BRANCH  21  23
ATOM     22  C   UNL     1       8.488   8.988  18.245  0.00  0.00    +0.000 C 
ATOM     23  C   UNL     1       7.203   8.589  17.539  0.00  0.00    +0.000 C 
ENDBRANCH  21  23
ENDBRANCH   1  21
TORSDOF 9
ENDMDL
MODEL 8
REMARK VINA RESULT:      -5.7      0.968      1.073
REMARK  Name = 
REMARK  14 active torsions:
REMARK  status: ('A' for Active; 'I' for Inactive)
REMARK    1  A    between atoms: C_1  and  C_2
REMARK    2  A    between atoms: C_2  and  O_3
REMARK    3  A    between atoms: O_3  and  C_4
REMARK    4  A    between atoms: C_4  and  O_5
REMARK    5  A    between atoms: C_7  and  C_8
REMARK    6  A    between atoms: C_10  and  C_11
REMARK    7  A    between atoms: C_12  and  C_13
REMARK    8  A    between atoms: C_13  and  O_15
REMARK    9  A    between atoms: O_15  and  C_16
REMARK   10  A    between atoms: C_16  and  C_17
REMARK   11  A    between atoms: C_17  and  S_18
REMARK   12  A    between atoms: S_18  and  C_19
REMARK   13  A    between atoms: C_19  and  C_20
REMARK   14  A    between atoms: C_21  and  C_22
REMARK                            x       y       z     vdW  Elec       q    Type
REMARK                         _______ _______ _______ _____ _____    ______ ____
ROOT
ATOM      1  C   UNL     1       2.775   3.044  17.798  0.00  0.00    +0.000 C 
ATOM      2  C   UNL     1       3.890   3.739  18.123  0.00  0.00    +0.000 C 
ATOM      3  C   UNL     1       4.653   3.580  19.407  0.00  0.00    +0.000 C 
ATOM      4  C   UNL     1       4.069   2.839  20.596  0.00  0.00    +0.000 C 
ATOM      5  N   UNL     1       5.842   4.048  19.619  0.00  0.00    +0.000 NA
ATOM      6  C   UNL     1       6.508   4.761  18.655  0.00  0.00    +0.000 C 
ATOM      7  C   UNL     1       7.904   5.148  19.072  0.00  0.00    +0.000 C 
ATOM      8  C   UNL     1       5.944   5.107  17.478  0.00  0.00    +0.000 C 
ATOM      9  C   UNL     1       4.505   4.748  17.154  0.00  0.00    +0.000 C 
ATOM     10  C   UNL     1       3.652   6.026  17.097  0.00  0.00    +0.000 C 
ENDROOT
BRANCH   1  11
ATOM     11  O   UNL     1       2.160   3.312  16.589  0.00  0.00    +0.000 OA
ATOM     12  H   UNL     1       1.217   3.446  16.768  0.00  0.00    +0.000 HD
ENDBRANCH   1  11
BRANCH   8  13
ATOM     13  C   UNL     1       6.695   5.965  16.515  0.00  0.00    +0.000 C 
ATOM     14  O   UNL     1       6.590   7.178  16.434  0.00  0.00    +0.000 OA
BRANCH  13  15
ATOM     15  O   UNL     1       7.430   5.205  15.661  0.00  0.00    +0.000 OA
BRANCH  15  16
ATOM     16  C   UNL     1       6.862   5.069  14.344  0.00  0.00    +0.000 C 
BRANCH  16  17
ATOM     17  C   UNL     1       7.895   5.095  13.217  0.00  0.00    +0.000 C 
BRANCH  17  18
ATOM     18  S   UNL     1       7.113   4.441  11.700  0.00  0.00    +0.000 S 
BRANCH  18  19
ATOM     19  C   UNL     1       5.921   3.291  12.446  0.00  0.00    +0.000 C 
ATOM     20  C   UNL     1       4.618   3.340  11.664  0.00  0.00    +0.000 C 
ENDBRANCH  18  19
ENDBRANCH  17  18
ENDBRANCH  16  17
ENDBRANCH  15  16
ENDBRANCH  13  15
ENDBRANCH   8  13
BRANCH   1  21
ATOM     21  O   UNL     1       2.281   2.026  18.577  0.00  0.00    +0.000 OA
BRANCH  21  23
ATOM     22  C   UNL     1       0.715   3.189  19.958  0.00  0.00    +0.000 C 
ATOM     23  C   UNL     1       0.890   2.105  18.906  0.00  0.00    +0.000 C 
ENDBRANCH  21  23
ENDBRANCH   1  21
TORSDOF 9
ENDMDL
MODEL 9
REMARK VINA RESULT:      -5.6      3.146      4.852
REMARK  Name = 
REMARK  14 active torsions:
REMARK  status: ('A' for Active; 'I' for Inactive)
REMARK    1  A    between atoms: C_1  and  C_2
REMARK    2  A    between atoms: C_2  and  O_3
REMARK    3  A    between atoms: O_3  and  C_4
REMARK    4  A    between atoms: C_4  and  O_5
REMARK    5  A    between atoms: C_7  and  C_8
REMARK    6  A    between atoms: C_10  and  C_11
REMARK    7  A    between atoms: C_12  and  C_13
REMARK    8  A    between atoms: C_13  and  O_15
REMARK    9  A    between atoms: O_15  and  C_16
REMARK   10  A    between atoms: C_16  and  C_17
REMARK   11  A    between atoms: C_17  and  S_18
REMARK   12  A    between atoms: S_18  and  C_19
REMARK   13  A    between atoms: C_19  and  C_20
REMARK   14  A    between atoms: C_21  and  C_22
REMARK                            x       y       z     vdW  Elec       q    Type
REMARK                         _______ _______ _______ _____ _____    ______ ____
ROOT
ATOM      1  C   UNL     1       2.156   4.233  19.246  0.00  0.00    +0.000 C 
ATOM      2  C   UNL     1       3.228   4.181  18.422  0.00  0.00    +0.000 C 
ATOM      3  C   UNL     1       3.783   2.922  17.817  0.00  0.00    +0.000 C 
ATOM      4  C   UNL     1       3.373   1.549  18.318  0.00  0.00    +0.000 C 
ATOM      5  N   UNL     1       4.638   2.888  16.846  0.00  0.00    +0.000 NA
ATOM      6  C   UNL     1       5.128   4.041  16.288  0.00  0.00    +0.000 C 
ATOM      7  C   UNL     1       6.050   3.782  15.123  0.00  0.00    +0.000 C 
ATOM      8  C   UNL     1       4.839   5.268  16.770  0.00  0.00    +0.000 C 
ATOM      9  C   UNL     1       3.962   5.452  17.995  0.00  0.00    +0.000 C 
ATOM     10  C   UNL     1       4.806   6.001  19.158  0.00  0.00    +0.000 C 
ENDROOT
BRANCH   1  11
ATOM     11  O   UNL     1       1.770   5.462  19.749  0.00  0.00    +0.000 OA
ATOM     12  H   UNL     1       1.613   6.048  18.993  0.00  0.00    +0.000 HD
ENDBRANCH   1  11
BRANCH   8  13
ATOM     13  C   UNL     1       5.483   6.474  16.172  0.00  0.00    +0.000 C 
ATOM     14  O   UNL     1       5.025   7.120  15.242  0.00  0.00    +0.000 OA
BRANCH  13  15
ATOM     15  O   UNL     1       6.705   6.696  16.724  0.00  0.00    +0.000 OA
BRANCH  15  16
ATOM     16  C   UNL     1       6.805   7.922  17.476  0.00  0.00    +0.000 C 
BRANCH  16  17
ATOM     17  C   UNL     1       8.235   8.292  17.870  0.00  0.00    +0.000 C 
BRANCH  17  18
ATOM     18  S   UNL     1       8.374  10.115  17.897  0.00  0.00    +0.000 S 
BRANCH  18  19
ATOM     19  C   UNL     1       9.328  10.322  19.430  0.00  0.00    +0.000 C 
ATOM     20  C   UNL     1      10.506  11.246  19.168  0.00  0.00    +0.000 C 
ENDBRANCH  18  19
ENDBRANCH  17  18
ENDBRANCH  16  17
ENDBRANCH  15  16
ENDBRANCH  13  15
ENDBRANCH   8  13
BRANCH   1  21
ATOM     21  O   UNL     1       1.383   3.134  19.530  0.00  0.00    +0.000 OA
BRANCH  21  23
ATOM     22  C   UNL     1       2.317   2.696  21.686  0.00  0.00    +0.000 C 
ATOM     23  C   UNL     1       1.037   2.948  20.906  0.00  0.00    +0.000 C 
ENDBRANCH  21  23
ENDBRANCH   1  21
TORSDOF 9
ENDMDL
