MODEL 1
REMARK VINA RESULT:      -5.1      0.000      0.000
REMARK  Name = 
REMARK  12 active torsions:
REMARK  status: ('A' for Active; 'I' for Inactive)
REMARK    1  A    between atoms: C_1  and  C_2
REMARK    2  A    between atoms: C_2  and  C_3
REMARK    3  A    between atoms: C_3  and  C_4
REMARK    4  A    between atoms: C_4  and  C_5
REMARK    5  A    between atoms: C_5  and  C_6
REMARK    6  A    between atoms: C_6  and  C_7
REMARK    7  A    between atoms: C_7  and  C_8
REMARK    8  A    between atoms: C_7  and  C_10
REMARK    9  A    between atoms: C_8  and  O_9
REMARK   10  A    between atoms: C_10  and  C_11
REMARK   11  A    between atoms: C_11  and  C_12
REMARK   12  A    between atoms: C_12  and  C_13
REMARK                            x       y       z     vdW  Elec       q    Type
REMARK                         _______ _______ _______ _____ _____    ______ ____
ROOT
ATOM      1  C   UNL     1       2.749   3.033  17.410  0.00  0.00    +0.000 C 
ENDROOT
BRANCH   1   2
ATOM      2  C   UNL     1       3.884   4.067  17.222  0.00  0.00    +0.000 C 
BRANCH   2   3
ATOM      3  C   UNL     1       3.523   5.465  17.723  0.00  0.00    +0.000 C 
BRANCH   3   4
ATOM      4  C   UNL     1       4.560   6.500  17.284  0.00  0.00    +0.000 C 
BRANCH   4   5
ATOM      5  C   UNL     1       5.625   5.833  16.413  0.00  0.00    +0.000 C 
BRANCH   5   7
ATOM      6  C   UNL     1       7.525   4.695  17.581  0.00  0.00    +0.000 C 
ATOM      7  C   UNL     1       7.027   6.004  16.990  0.00  0.00    +0.000 C 
ENDBRANCH   5   7
ENDBRANCH   4   5
ENDBRANCH   3   4
ENDBRANCH   2   3
ENDBRANCH   1   2
BRANCH   1   8
ATOM      8  C   UNL     1       3.179   1.815  18.251  0.00  0.00    +0.000 C 
BRANCH   8   9
ATOM      9  O   UNL     1       4.405   2.044  18.931  0.00  0.00    +0.000 OA
ATOM     10  H   UNL     1       4.948   2.636  18.384  0.00  0.00    +0.000 HD
ENDBRANCH   8   9
ENDBRANCH   1   8
BRANCH   1  11
ATOM     11  C   UNL     1       1.500   3.694  18.041  0.00  0.00    +0.000 C 
BRANCH  11  12
ATOM     12  C   UNL     1       0.974   2.943  19.263  0.00  0.00    +0.000 C 
BRANCH  12  13
ATOM     13  C   UNL     1       1.090   3.764  20.544  0.00  0.00    +0.000 C 
ATOM     14  C   UNL     1       1.905   3.014  21.588  0.00  0.00    +0.000 C 
ENDBRANCH  12  13
ENDBRANCH  11  12
ENDBRANCH   1  11
TORSDOF 10
ENDMDL
MODEL 2
REMARK VINA RESULT:      -5.1      1.096      1.216
REMARK  Name = 
REMARK  12 active torsions:
REMARK  status: ('A' for Active; 'I' for Inactive)
REMARK    1  A    between atoms: C_1  and  C_2
REMARK    2  A    between atoms: C_2  and  C_3
REMARK    3  A    between atoms: C_3  and  C_4
REMARK    4  A    between atoms: C_4  and  C_5
REMARK    5  A    between atoms: C_5  and  C_6
REMARK    6  A    between atoms: C_6  and  C_7
REMARK    7  A    between atoms: C_7  and  C_8
REMARK    8  A    between atoms: C_7  and  C_10
REMARK    9  A    between atoms: C_8  and  O_9
REMARK   10  A    between atoms: C_10  and  C_11
REMARK   11  A    between atoms: C_11  and  C_12
REMARK   12  A    between atoms: C_12  and  C_13
REMARK                            x       y       z     vdW  Elec       q    Type
REMARK                         _______ _______ _______ _____ _____    ______ ____
ROOT
ATOM      1  C   UNL     1       3.582   2.728  18.235  0.00  0.00    +0.000 C 
ENDROOT
BRANCH   1   2
ATOM      2  C   UNL     1       3.265   3.917  17.299  0.00  0.00    +0.000 C 
BRANCH   2   3
ATOM      3  C   UNL     1       3.729   5.265  17.849  0.00  0.00    +0.000 C 
BRANCH   3   4
ATOM      4  C   UNL     1       4.924   5.807  17.062  0.00  0.00    +0.000 C 
BRANCH   4   5
ATOM      5  C   UNL     1       5.211   4.901  15.864  0.00  0.00    +0.000 C 
BRANCH   5   7
ATOM      6  C   UNL     1       7.292   4.659  17.234  0.00  0.00    +0.000 C 
ATOM      7  C   UNL     1       6.614   4.303  15.921  0.00  0.00    +0.000 C 
ENDBRANCH   5   7
ENDBRANCH   4   5
ENDBRANCH   3   4
ENDBRANCH   2   3
ENDBRANCH   1   2
BRANCH   1   8
ATOM      8  C   UNL     1       4.532   3.107  19.389  0.00  0.00    +0.000 C 
BRANCH   8   9
ATOM      9  O   UNL     1       5.124   1.963  19.989  0.00  0.00    +0.000 OA
ATOM     10  H   UNL     1       5.206   2.131  20.942  0.00  0.00    +0.000 HD
ENDBRANCH   8   9
ENDBRANCH   1   8
BRANCH   1  11
ATOM     11  C   UNL     1       2.282   2.113  18.806  0.00  0.00    +0.000 C 
BRANCH  11  12
ATOM     12  C   UNL     1       1.121   3.105  18.866  0.00  0.00    +0.000 C 
BRANCH  12  13
ATOM     13  C   UNL     1       0.999   3.772  20.234  0.00  0.00    +0.000 C 
ATOM     14  C   UNL     1       1.352   2.790  21.341  0.00  0.00    +0.000 C 
ENDBRANCH  12  13
ENDBRANCH  11  12
ENDBRANCH   1  11
TORSDOF 10
ENDMDL
MODEL 3
REMARK VINA RESULT:      -5.0      1.330      1.786
REMARK  Name = 
REMARK  12 active torsions:
REMARK  status: ('A' for Active; 'I' for Inactive)
REMARK    1  A    between atoms: C_1  and  C_2
REMARK    2  A    between atoms: C_2  and  C_3
REMARK    3  A    between atoms: C_3  and  C_4
REMARK    4  A    between atoms: C_4  and  C_5
REMARK    5  A    between atoms: C_5  and  C_6
REMARK    6  A    between atoms: C_6  and  C_7
REMARK    7  A    between atoms: C_7  and  C_8
REMARK    8  A    between atoms: C_7  and  C_10
REMARK    9  A    between atoms: C_8  and  O_9
REMARK   10  A    between atoms: C_10  and  C_11
REMARK   11  A    between atoms: C_11  and  C_12
REMARK   12  A    between atoms: C_12  and  C_13
REMARK                            x       y       z     vdW  Elec       q    Type
REMARK                         _______ _______ _______ _____ _____    ______ ____
ROOT
ATOM      1  C   UNL     1       3.478   3.781  18.572  0.00  0.00    +0.000 C 
ENDROOT
BRANCH   1   2
ATOM      2  C   UNL     1       3.786   3.755  17.057  0.00  0.00    +0.000 C 
BRANCH   2   3
ATOM      3  C   UNL     1       4.777   4.831  16.618  0.00  0.00    +0.000 C 
BRANCH   3   4
ATOM      4  C   UNL     1       6.045   4.214  16.026  0.00  0.00    +0.000 C 
BRANCH   4   5
ATOM      5  C   UNL     1       7.253   4.575  16.891  0.00  0.00    +0.000 C 
BRANCH   5   7
ATOM      6  C   UNL     1       7.775   6.085  18.819  0.00  0.00    +0.000 C 
ATOM      7  C   UNL     1       7.166   6.001  17.428  0.00  0.00    +0.000 C 
ENDBRANCH   5   7
ENDBRANCH   4   5
ENDBRANCH   3   4
ENDBRANCH   2   3
ENDBRANCH   1   2
BRANCH   1   8
ATOM      8  C   UNL     1       4.742   3.662  19.445  0.00  0.00    +0.000 C 
BRANCH   8   9
ATOM      9  O   UNL     1       5.089   2.307  19.697  0.00  0.00    +0.000 OA
ATOM     10  H   UNL     1       5.860   2.298  20.289  0.00  0.00    +0.000 HD
ENDBRANCH   8   9
ENDBRANCH   1   8
BRANCH   1  11
ATOM     11  C   UNL     1       2.695   5.061  18.953  0.00  0.00    +0.000 C 
BRANCH  11  12
ATOM     12  C   UNL     1       1.835   4.891  20.205  0.00  0.00    +0.000 C 
BRANCH  12  13
ATOM     13  C   UNL     1       1.052   3.581  20.197  0.00  0.00    +0.000 C 
ATOM     14  C   UNL     1       1.366   2.763  21.442  0.00  0.00    +0.000 C 
ENDBRANCH  12  13
ENDBRANCH  11  12
ENDBRANCH   1  11
TORSDOF 10
ENDMDL
MODEL 4
REMARK VINA RESULT:      -4.9      1.306      1.823
REMARK  Name = 
REMARK  12 active torsions:
REMARK  status: ('A' for Active; 'I' for Inactive)
REMARK    1  A    between atoms: C_1  and  C_2
REMARK    2  A    between atoms: C_2  and  C_3
REMARK    3  A    between atoms: C_3  and  C_4
REMARK    4  A    between atoms: C_4  and  C_5
REMARK    5  A    between atoms: C_5  and  C_6
REMARK    6  A    between atoms: C_6  and  C_7
REMARK    7  A    between atoms: C_7  and  C_8
REMARK    8  A    between atoms: C_7  and  C_10
REMARK    9  A    between atoms: C_8  and  O_9
REMARK   10  A    between atoms: C_10  and  C_11
REMARK   11  A    between atoms: C_11  and  C_12
REMARK   12  A    between atoms: C_12  and  C_13
REMARK                            x       y       z     vdW  Elec       q    Type
REMARK                         _______ _______ _______ _____ _____    ______ ____
ROOT
ATOM      1  C   UNL     1       3.870   3.606  17.865  0.00  0.00    +0.000 C 
ENDROOT
BRANCH   1   2
ATOM      2  C   UNL     1       4.518   4.511  16.791  0.00  0.00    +0.000 C 
BRANCH   2   3
ATOM      3  C   UNL     1       5.515   3.775  15.897  0.00  0.00    +0.000 C 
BRANCH   3   4
ATOM      4  C   UNL     1       6.803   4.579  15.717  0.00  0.00    +0.000 C 
BRANCH   4   5
ATOM      5  C   UNL     1       6.986   5.538  16.894  0.00  0.00    +0.000 C 
BRANCH   5   7
ATOM      6  C   UNL     1       7.775   5.801  19.257  0.00  0.00    +0.000 C 
ATOM      7  C   UNL     1       7.786   4.904  18.030  0.00  0.00    +0.000 C 
ENDBRANCH   5   7
ENDBRANCH   4   5
ENDBRANCH   3   4
ENDBRANCH   2   3
ENDBRANCH   1   2
BRANCH   1   8
ATOM      8  C   UNL     1       4.621   3.637  19.211  0.00  0.00    +0.000 C 
BRANCH   8   9
ATOM      9  O   UNL     1       5.097   2.351  19.584  0.00  0.00    +0.000 OA
ATOM     10  H   UNL     1       5.789   2.469  20.256  0.00  0.00    +0.000 HD
ENDBRANCH   8   9
ENDBRANCH   1   8
BRANCH   1  11
ATOM     11  C   UNL     1       2.386   3.986  18.082  0.00  0.00    +0.000 C 
BRANCH  11  12
ATOM     12  C   UNL     1       1.541   2.833  18.624  0.00  0.00    +0.000 C 
BRANCH  12  13
ATOM     13  C   UNL     1       0.783   3.216  19.892  0.00  0.00    +0.000 C 
ATOM     14  C   UNL     1       1.559   2.786  21.129  0.00  0.00    +0.000 C 
ENDBRANCH  12  13
ENDBRANCH  11  12
ENDBRANCH   1  11
TORSDOF 10
ENDMDL
MODEL 5
REMARK VINA RESULT:      -4.9      1.289      5.228
REMARK  Name = 
REMARK  12 active torsions:
REMARK  status: ('A' for Active; 'I' for Inactive)
REMARK    1  A    between atoms: C_1  and  C_2
REMARK    2  A    between atoms: C_2  and  C_3
REMARK    3  A    between atoms: C_3  and  C_4
REMARK    4  A    between atoms: C_4  and  C_5
REMARK    5  A    between atoms: C_5  and  C_6
REMARK    6  A    between atoms: C_6  and  C_7
REMARK    7  A    between atoms: C_7  and  C_8
REMARK    8  A    between atoms: C_7  and  C_10
REMARK    9  A    between atoms: C_8  and  O_9
REMARK   10  A    between atoms: C_10  and  C_11
REMARK   11  A    between atoms: C_11  and  C_12
REMARK   12  A    between atoms: C_12  and  C_13
REMARK                            x       y       z     vdW  Elec       q    Type
REMARK                         _______ _______ _______ _____ _____    ______ ____
ROOT
ATOM      1  C   UNL     1       4.332   4.755  18.065  0.00  0.00    +0.000 C 
ENDROOT
BRANCH   1   2
ATOM      2  C   UNL     1       3.784   3.676  17.101  0.00  0.00    +0.000 C 
BRANCH   2   3
ATOM      3  C   UNL     1       2.471   3.053  17.569  0.00  0.00    +0.000 C 
BRANCH   3   4
ATOM      4  C   UNL     1       1.496   4.119  18.073  0.00  0.00    +0.000 C 
BRANCH   4   5
ATOM      5  C   UNL     1       1.102   3.822  19.520  0.00  0.00    +0.000 C 
BRANCH   5   7
ATOM      6  C   UNL     1       2.267   2.781  21.477  0.00  0.00    +0.000 C 
ATOM      7  C   UNL     1       1.784   2.564  20.052  0.00  0.00    +0.000 C 
ENDBRANCH   5   7
ENDBRANCH   4   5
ENDBRANCH   3   4
ENDBRANCH   2   3
ENDBRANCH   1   2
BRANCH   1   8
ATOM      8  C   UNL     1       5.485   4.241  18.950  0.00  0.00    +0.000 C 
BRANCH   8   9
ATOM      9  O   UNL     1       5.207   2.959  19.495  0.00  0.00    +0.000 OA
ATOM     10  H   UNL     1       5.471   2.289  18.842  0.00  0.00    +0.000 HD
ENDBRANCH   8   9
ENDBRANCH   1   8
BRANCH   1  11
ATOM     11  C   UNL     1       4.788   6.011  17.285  0.00  0.00    +0.000 C 
BRANCH  11  12
ATOM     12  C   UNL     1       5.094   5.730  15.814  0.00  0.00    +0.000 C 
BRANCH  12  13
ATOM     13  C   UNL     1       6.528   5.253  15.601  0.00  0.00    +0.000 C 
ATOM     14  C   UNL     1       6.592   4.240  14.466  0.00  0.00    +0.000 C 
ENDBRANCH  12  13
ENDBRANCH  11  12
ENDBRANCH   1  11
TORSDOF 10
ENDMDL
MODEL 6
REMARK VINA RESULT:      -4.8      1.324      4.882
REMARK  Name = 
REMARK  12 active torsions:
REMARK  status: ('A' for Active; 'I' for Inactive)
REMARK    1  A    between atoms: C_1  and  C_2
REMARK    2  A    between atoms: C_2  and  C_3
REMARK    3  A    between atoms: C_3  and  C_4
REMARK    4  A    between atoms: C_4  and  C_5
REMARK    5  A    between atoms: C_5  and  C_6
REMARK    6  A    between atoms: C_6  and  C_7
REMARK    7  A    between atoms: C_7  and  C_8
REMARK    8  A    between atoms: C_7  and  C_10
REMARK    9  A    between atoms: C_8  and  O_9
REMARK   10  A    between atoms: C_10  and  C_11
REMARK   11  A    between atoms: C_11  and  C_12
REMARK   12  A    between atoms: C_12  and  C_13
REMARK                            x       y       z     vdW  Elec       q    Type
REMARK                         _______ _______ _______ _____ _____    ______ ____
ROOT
ATOM      1  C   UNL     1       3.728   3.474  17.820  0.00  0.00    +0.000 C 
ENDROOT
BRANCH   1   2
ATOM      2  C   UNL     1       2.437   4.291  17.579  0.00  0.00    +0.000 C 
BRANCH   2   3
ATOM      3  C   UNL     1       2.353   5.560  18.426  0.00  0.00    +0.000 C 
BRANCH   3   4
ATOM      4  C   UNL     1       2.696   5.277  19.890  0.00  0.00    +0.000 C 
BRANCH   4   5
ATOM      5  C   UNL     1       1.419   4.972  20.674  0.00  0.00    +0.000 C 
BRANCH   5   7
ATOM      6  C   UNL     1       2.434   2.834  21.492  0.00  0.00    +0.000 C 
ATOM      7  C   UNL     1       1.207   3.472  20.861  0.00  0.00    +0.000 C 
ENDBRANCH   5   7
ENDBRANCH   4   5
ENDBRANCH   3   4
ENDBRANCH   2   3
ENDBRANCH   1   2
BRANCH   1   8
ATOM      8  C   UNL     1       3.484   1.951  17.819  0.00  0.00    +0.000 C 
BRANCH   8   9
ATOM      9  O   UNL     1       2.116   1.631  18.026  0.00  0.00    +0.000 OA
ATOM     10  H   UNL     1       1.723   1.411  17.165  0.00  0.00    +0.000 HD
ENDBRANCH   8   9
ENDBRANCH   1   8
BRANCH   1  11
ATOM     11  C   UNL     1       4.812   3.834  16.777  0.00  0.00    +0.000 C 
BRANCH  11  12
ATOM     12  C   UNL     1       5.968   4.643  17.363  0.00  0.00    +0.000 C 
BRANCH  12  13
ATOM     13  C   UNL     1       6.167   5.975  16.644  0.00  0.00    +0.000 C 
ATOM     14  C   UNL     1       7.149   6.853  17.408  0.00  0.00    +0.000 C 
ENDBRANCH  12  13
ENDBRANCH  11  12
ENDBRANCH   1  11
TORSDOF 10
ENDMDL
MODEL 7
REMARK VINA RESULT:      -4.8      1.040      1.229
REMARK  Name = 
REMARK  12 active torsions:
REMARK  status: ('A' for Active; 'I' for Inactive)
REMARK    1  A    between atoms: C_1  and  C_2
REMARK    2  A    between atoms: C_2  and  C_3
REMARK    3  A    between atoms: C_3  and  C_4
REMARK    4  A    between atoms: C_4  and  C_5
REMARK    5  A    between atoms: C_5  and  C_6
REMARK    6  A    between atoms: C_6  and  C_7
REMARK    7  A    between atoms: C_7  and  C_8
REMARK    8  A    between atoms: C_7  and  C_10
REMARK    9  A    between atoms: C_8  and  O_9
REMARK   10  A    between atoms: C_10  and  C_11
REMARK   11  A    between atoms: C_11  and  C_12
REMARK   12  A    between atoms: C_12  and  C_13
REMARK                            x       y       z     vdW  Elec       q    Type
REMARK                         _______ _______ _______ _____ _____    ______ ____
ROOT
ATOM      1  C   UNL     1       3.485   3.464  17.973  0.00  0.00    +0.000 C 
ENDROOT
BRANCH   1   2
ATOM      2  C   UNL     1       4.339   4.593  18.597  0.00  0.00    +0.000 C 
BRANCH   2   3
ATOM      3  C   UNL     1       4.124   5.954  17.937  0.00  0.00    +0.000 C 
BRANCH   3   4
ATOM      4  C   UNL     1       5.369   6.405  17.171  0.00  0.00    +0.000 C 
BRANCH   4   5
ATOM      5  C   UNL     1       5.181   6.150  15.676  0.00  0.00    +0.000 C 
BRANCH   5   7
ATOM      6  C   UNL     1       7.084   4.601  16.178  0.00  0.00    +0.000 C 
ATOM      7  C   UNL     1       5.969   4.932  15.199  0.00  0.00    +0.000 C 
ENDBRANCH   5   7
ENDBRANCH   4   5
ENDBRANCH   3   4
ENDBRANCH   2   3
ENDBRANCH   1   2
BRANCH   1   8
ATOM      8  C   UNL     1       3.758   2.084  18.603  0.00  0.00    +0.000 C 
BRANCH   8   9
ATOM      9  O   UNL     1       4.908   2.099  19.438  0.00  0.00    +0.000 OA
ATOM     10  H   UNL     1       4.613   2.226  20.355  0.00  0.00    +0.000 HD
ENDBRANCH   8   9
ENDBRANCH   1   8
BRANCH   1  11
ATOM     11  C   UNL     1       1.977   3.797  18.069  0.00  0.00    +0.000 C 
BRANCH  11  12
ATOM     12  C   UNL     1       1.173   2.740  18.826  0.00  0.00    +0.000 C 
BRANCH  12  13
ATOM     13  C   UNL     1       0.848   3.171  20.254  0.00  0.00    +0.000 C 
ATOM     14  C   UNL     1       1.214   4.633  20.467  0.00  0.00    +0.000 C 
ENDBRANCH  12  13
ENDBRANCH  11  12
ENDBRANCH   1  11
TORSDOF 10
ENDMDL
MODEL 8
REMARK VINA RESULT:      -4.8      1.118      1.461
REMARK  Name = 
REMARK  12 active torsions:
REMARK  status: ('A' for Active; 'I' for Inactive)
REMARK    1  A    between atoms: C_1  and  C_2
REMARK    2  A    between atoms: C_2  and  C_3
REMARK    3  A    between atoms: C_3  and  C_4
REMARK    4  A    between atoms: C_4  and  C_5
REMARK    5  A    between atoms: C_5  and  C_6
REMARK    6  A    between atoms: C_6  and  C_7
REMARK    7  A    between atoms: C_7  and  C_8
REMARK    8  A    between atoms: C_7  and  C_10
REMARK    9  A    between atoms: C_8  and  O_9
REMARK   10  A    between atoms: C_10  and  C_11
REMARK   11  A    between atoms: C_11  and  C_12
REMARK   12  A    between atoms: C_12  and  C_13
REMARK                            x       y       z     vdW  Elec       q    Type
REMARK                         _______ _______ _______ _____ _____    ______ ____
ROOT
ATOM      1  C   UNL     1       1.946   3.517  17.810  0.00  0.00    +0.000 C 
ENDROOT
BRANCH   1   2
ATOM      2  C   UNL     1       2.780   4.819  17.760  0.00  0.00    +0.000 C 
BRANCH   2   3
ATOM      3  C   UNL     1       4.288   4.575  17.740  0.00  0.00    +0.000 C 
BRANCH   3   4
ATOM      4  C   UNL     1       4.861   4.744  16.332  0.00  0.00    +0.000 C 
BRANCH   4   5
ATOM      5  C   UNL     1       5.179   6.217  16.073  0.00  0.00    +0.000 C 
BRANCH   5   7
ATOM      6  C   UNL     1       7.282   6.726  17.333  0.00  0.00    +0.000 C 
ATOM      7  C   UNL     1       5.772   6.899  17.302  0.00  0.00    +0.000 C 
ENDBRANCH   5   7
ENDBRANCH   4   5
ENDBRANCH   3   4
ENDBRANCH   2   3
ENDBRANCH   1   2
BRANCH   1   8
ATOM      8  C   UNL     1       2.811   2.245  17.706  0.00  0.00    +0.000 C 
BRANCH   8   9
ATOM      9  O   UNL     1       2.458   1.279  18.686  0.00  0.00    +0.000 OA
ATOM     10  H   UNL     1       3.200   1.195  19.308  0.00  0.00    +0.000 HD
ENDBRANCH   8   9
ENDBRANCH   1   8
BRANCH   1  11
ATOM     11  C   UNL     1       1.085   3.462  19.095  0.00  0.00    +0.000 C 
BRANCH  11  12
ATOM     12  C   UNL     1       1.453   4.540  20.113  0.00  0.00    +0.000 C 
BRANCH  12  13
ATOM     13  C   UNL     1       2.176   3.967  21.330  0.00  0.00    +0.000 C 
ATOM     14  C   UNL     1       1.563   2.634  21.736  0.00  0.00    +0.000 C 
ENDBRANCH  12  13
ENDBRANCH  11  12
ENDBRANCH   1  11
TORSDOF 10
ENDMDL
MODEL 9
REMARK VINA RESULT:      -4.8      1.130      1.558
REMARK  Name = 
REMARK  12 active torsions:
REMARK  status: ('A' for Active; 'I' for Inactive)
REMARK    1  A    between atoms: C_1  and  C_2
REMARK    2  A    between atoms: C_2  and  C_3
REMARK    3  A    between atoms: C_3  and  C_4
REMARK    4  A    between atoms: C_4  and  C_5
REMARK    5  A    between atoms: C_5  and  C_6
REMARK    6  A    between atoms: C_6  and  C_7
REMARK    7  A    between atoms: C_7  and  C_8
REMARK    8  A    between atoms: C_7  and  C_10
REMARK    9  A    between atoms: C_8  and  O_9
REMARK   10  A    between atoms: C_10  and  C_11
REMARK   11  A    between atoms: C_11  and  C_12
REMARK   12  A    between atoms: C_12  and  C_13
REMARK                            x       y       z     vdW  Elec       q    Type
REMARK                         _______ _______ _______ _____ _____    ______ ____
ROOT
ATOM      1  C   UNL     1       3.173   4.443  17.649  0.00  0.00    +0.000 C 
ENDROOT
BRANCH   1   2
ATOM      2  C   UNL     1       3.600   5.860  18.099  0.00  0.00    +0.000 C 
BRANCH   2   3
ATOM      3  C   UNL     1       4.582   6.532  17.141  0.00  0.00    +0.000 C 
BRANCH   3   4
ATOM      4  C   UNL     1       6.031   6.307  17.579  0.00  0.00    +0.000 C 
BRANCH   4   5
ATOM      5  C   UNL     1       6.885   5.919  16.372  0.00  0.00    +0.000 C 
BRANCH   5   7
ATOM      6  C   UNL     1       6.183   4.011  14.909  0.00  0.00    +0.000 C 
ATOM      7  C   UNL     1       6.935   4.407  16.170  0.00  0.00    +0.000 C 
ENDBRANCH   5   7
ENDBRANCH   4   5
ENDBRANCH   3   4
ENDBRANCH   2   3
ENDBRANCH   1   2
BRANCH   1   8
ATOM      8  C   UNL     1       3.907   3.324  18.413  0.00  0.00    +0.000 C 
BRANCH   8   9
ATOM      9  O   UNL     1       4.443   2.344  17.535  0.00  0.00    +0.000 OA
ATOM     10  H   UNL     1       4.063   2.488  16.653  0.00  0.00    +0.000 HD
ENDBRANCH   8   9
ENDBRANCH   1   8
BRANCH   1  11
ATOM     11  C   UNL     1       1.643   4.259  17.788  0.00  0.00    +0.000 C 
BRANCH  11  12
ATOM     12  C   UNL     1       1.255   3.203  18.822  0.00  0.00    +0.000 C 
BRANCH  12  13
ATOM     13  C   UNL     1       0.874   3.819  20.166  0.00  0.00    +0.000 C 
ATOM     14  C   UNL     1       1.400   2.967  21.313  0.00  0.00    +0.000 C 
ENDBRANCH  12  13
ENDBRANCH  11  12
ENDBRANCH   1  11
TORSDOF 10
ENDMDL
