MODEL 1
REMARK VINA RESULT:     -10.4      0.000      0.000
REMARK  Name = 
REMARK  6 active torsions:
REMARK  status: ('A' for Active; 'I' for Inactive)
REMARK    1  A    between atoms: C_1  and  C_2
REMARK    2  A    between atoms: N_10  and  C_11
REMARK    3  A    between atoms: C_11  and  C_12
REMARK    4  A    between atoms: C_15  and  C_16
REMARK    5  A    between atoms: C_16  and  C_18
REMARK    6  A    between atoms: C_22  and  C_23
REMARK                            x       y       z     vdW  Elec       q    Type
REMARK                         _______ _______ _______ _____ _____    ______ ____
ROOT
ATOM      1  C   UNL     1       1.206  10.638  18.696  0.00  0.00    +0.000 C 
ATOM      2  O   UNL     1       2.074  11.424  18.322  0.00  0.00    +0.000 OA
ENDROOT
BRANCH   1   3
ATOM      3  C   UNL     1      -0.176  11.066  18.928  0.00  0.00    +0.000 A 
ATOM      4  C   UNL     1      -0.525  11.894  19.977  0.00  0.00    +0.000 A 
ATOM      5  N   UNL     1      -1.868  12.119  19.928  0.00  0.00    +0.000 N 
ATOM      6  C   UNL     1      -2.431  11.507  18.827  0.00  0.00    +0.000 A 
ATOM      7  C   UNL     1      -3.767  11.530  18.349  0.00  0.00    +0.000 A 
ATOM      8  C   UNL     1      -4.026  10.707  17.232  0.00  0.00    +0.000 A 
ATOM      9  C   UNL     1      -3.050   9.895  16.663  0.00  0.00    +0.000 A 
ATOM     10  C   UNL     1      -1.749   9.900  17.166  0.00  0.00    +0.000 A 
ATOM     11  C   UNL     1      -1.406  10.755  18.238  0.00  0.00    +0.000 A 
ATOM     12  H   UNL     1      -2.382  12.666  20.604  0.00  0.00    +0.000 HD
BRANCH   7  13
ATOM     13  C   UNL     1      -4.831  12.326  19.000  0.00  0.00    +0.000 A 
ATOM     14  C   UNL     1      -4.618  13.005  20.217  0.00  0.00    +0.000 A 
ATOM     15  C   UNL     1      -5.659  13.664  20.878  0.00  0.00    +0.000 A 
ATOM     16  C   UNL     1      -6.918  13.707  20.300  0.00  0.00    +0.000 A 
ATOM     17  F   UNL     1      -7.916  14.334  20.934  0.00  0.00    +0.000 F 
ATOM     18  C   UNL     1      -7.151  13.111  19.070  0.00  0.00    +0.000 A 
ATOM     19  C   UNL     1      -6.118  12.419  18.431  0.00  0.00    +0.000 A 
ENDBRANCH   7  13
ENDBRANCH   1   3
BRANCH   1  23
ATOM     20  C   UNL     1       2.679   6.682  19.396  0.00  0.00    +0.000 A 
ATOM     21  C   UNL     1       2.824   7.287  18.137  0.00  0.00    +0.000 A 
ATOM     22  C   UNL     1       2.288   8.554  17.898  0.00  0.00    +0.000 A 
ATOM     23  C   UNL     1       1.588   9.217  18.911  0.00  0.00    +0.000 A 
ATOM     24  C   UNL     1       1.292   8.544  20.100  0.00  0.00    +0.000 A 
ATOM     25  C   UNL     1       1.852   7.291  20.350  0.00  0.00    +0.000 A 
BRANCH  20  26
ATOM     26  C   UNL     1       3.432   5.418  19.746  0.00  0.00    +0.000 C 
BRANCH  26  36
ATOM     27  C   UNL     1       1.896   3.760  17.664  0.00  0.00    +0.000 C 
ATOM     28  C   UNL     1       3.340   4.099  17.594  0.00  0.00    +0.000 A 
ATOM     29  N   UNL     1       4.134   3.783  16.590  0.00  0.00    +0.000 NA
ATOM     30  C   UNL     1       5.383   4.238  16.942  0.00  0.00    +0.000 A 
ATOM     31  C   UNL     1       6.592   4.171  16.243  0.00  0.00    +0.000 A 
ATOM     32  N   UNL     1       7.731   4.665  16.792  0.00  0.00    +0.000 NA
ATOM     33  C   UNL     1       7.670   5.215  18.026  0.00  0.00    +0.000 A 
ATOM     34  C   UNL     1       6.517   5.332  18.796  0.00  0.00    +0.000 A 
ATOM     35  C   UNL     1       5.357   4.833  18.201  0.00  0.00    +0.000 A 
ATOM     36  N   UNL     1       4.023   4.796  18.567  0.00  0.00    +0.000 N 
ENDBRANCH  26  36
ENDBRANCH  20  26
ENDBRANCH   1  23
TORSDOF 5
ENDMDL
MODEL 2
REMARK VINA RESULT:     -10.0      1.298      1.616
REMARK  Name = 
REMARK  6 active torsions:
REMARK  status: ('A' for Active; 'I' for Inactive)
REMARK    1  A    between atoms: C_1  and  C_2
REMARK    2  A    between atoms: N_10  and  C_11
REMARK    3  A    between atoms: C_11  and  C_12
REMARK    4  A    between atoms: C_15  and  C_16
REMARK    5  A    between atoms: C_16  and  C_18
REMARK    6  A    between atoms: C_22  and  C_23
REMARK                            x       y       z     vdW  Elec       q    Type
REMARK                         _______ _______ _______ _____ _____    ______ ____
ROOT
ATOM      1  C   UNL     1       1.365  10.455  18.795  0.00  0.00    +0.000 C 
ATOM      2  O   UNL     1       2.134  11.073  18.061  0.00  0.00    +0.000 OA
ENDROOT
BRANCH   1   3
ATOM      3  C   UNL     1       0.209  11.102  19.421  0.00  0.00    +0.000 A 
ATOM      4  C   UNL     1       0.305  11.779  20.623  0.00  0.00    +0.000 A 
ATOM      5  N   UNL     1      -0.923  12.273  20.944  0.00  0.00    +0.000 N 
ATOM      6  C   UNL     1      -1.842  11.998  19.952  0.00  0.00    +0.000 A 
ATOM      7  C   UNL     1      -3.205  12.374  19.835  0.00  0.00    +0.000 A 
ATOM      8  C   UNL     1      -3.890  11.837  18.724  0.00  0.00    +0.000 A 
ATOM      9  C   UNL     1      -3.283  10.963  17.827  0.00  0.00    +0.000 A 
ATOM     10  C   UNL     1      -1.941  10.616  17.980  0.00  0.00    +0.000 A 
ATOM     11  C   UNL     1      -1.179  11.175  19.031  0.00  0.00    +0.000 A 
ATOM     12  H   UNL     1      -1.132  12.780  21.792  0.00  0.00    +0.000 HD
BRANCH   7  13
ATOM     13  C   UNL     1      -3.881  13.236  20.831  0.00  0.00    +0.000 A 
ATOM     14  C   UNL     1      -3.664  14.628  20.884  0.00  0.00    +0.000 A 
ATOM     15  C   UNL     1      -4.221  15.416  21.895  0.00  0.00    +0.000 A 
ATOM     16  C   UNL     1      -5.057  14.833  22.834  0.00  0.00    +0.000 A 
ATOM     17  F   UNL     1      -5.588  15.585  23.806  0.00  0.00    +0.000 F 
ATOM     18  C   UNL     1      -5.351  13.479  22.776  0.00  0.00    +0.000 A 
ATOM     19  C   UNL     1      -4.760  12.687  21.787  0.00  0.00    +0.000 A 
ENDBRANCH   7  13
ENDBRANCH   1   3
BRANCH   1  23
ATOM     20  C   UNL     1       2.516   6.400  19.528  0.00  0.00    +0.000 A 
ATOM     21  C   UNL     1       2.577   6.937  18.233  0.00  0.00    +0.000 A 
ATOM     22  C   UNL     1       2.143   8.242  17.990  0.00  0.00    +0.000 A 
ATOM     23  C   UNL     1       1.628   9.012  19.037  0.00  0.00    +0.000 A 
ATOM     24  C   UNL     1       1.403   8.419  20.284  0.00  0.00    +0.000 A 
ATOM     25  C   UNL     1       1.863   7.126  20.534  0.00  0.00    +0.000 A 
BRANCH  20  26
ATOM     26  C   UNL     1       3.176   5.080  19.858  0.00  0.00    +0.000 C 
BRANCH  26  36
ATOM     27  C   UNL     1       2.055   3.203  17.699  0.00  0.00    +0.000 C 
ATOM     28  C   UNL     1       3.430   3.761  17.720  0.00  0.00    +0.000 A 
ATOM     29  N   UNL     1       4.328   3.570  16.773  0.00  0.00    +0.000 NA
ATOM     30  C   UNL     1       5.466   4.213  17.200  0.00  0.00    +0.000 A 
ATOM     31  C   UNL     1       6.715   4.333  16.582  0.00  0.00    +0.000 A 
ATOM     32  N   UNL     1       7.726   4.997  17.199  0.00  0.00    +0.000 NA
ATOM     33  C   UNL     1       7.499   5.532  18.420  0.00  0.00    +0.000 A 
ATOM     34  C   UNL     1       6.294   5.470  19.113  0.00  0.00    +0.000 A 
ATOM     35  C   UNL     1       5.267   4.797  18.448  0.00  0.00    +0.000 A 
ATOM     36  N   UNL     1       3.932   4.556  18.728  0.00  0.00    +0.000 N 
ENDBRANCH  26  36
ENDBRANCH  20  26
ENDBRANCH   1  23
TORSDOF 5
ENDMDL
MODEL 3
REMARK VINA RESULT:      -9.8      1.329      2.099
REMARK  Name = 
REMARK  6 active torsions:
REMARK  status: ('A' for Active; 'I' for Inactive)
REMARK    1  A    between atoms: C_1  and  C_2
REMARK    2  A    between atoms: N_10  and  C_11
REMARK    3  A    between atoms: C_11  and  C_12
REMARK    4  A    between atoms: C_15  and  C_16
REMARK    5  A    between atoms: C_16  and  C_18
REMARK    6  A    between atoms: C_22  and  C_23
REMARK                            x       y       z     vdW  Elec       q    Type
REMARK                         _______ _______ _______ _____ _____    ______ ____
ROOT
ATOM      1  C   UNL     1       1.274  10.866  18.790  0.00  0.00    +0.000 C 
ATOM      2  O   UNL     1       2.158  11.513  18.233  0.00  0.00    +0.000 OA
ENDROOT
BRANCH   1   3
ATOM      3  C   UNL     1       0.008  11.481  19.200  0.00  0.00    +0.000 A 
ATOM      4  C   UNL     1      -0.853  12.068  18.293  0.00  0.00    +0.000 A 
ATOM      5  N   UNL     1      -1.938  12.542  18.966  0.00  0.00    +0.000 N 
ATOM      6  C   UNL     1      -1.861  12.234  20.309  0.00  0.00    +0.000 A 
ATOM      7  C   UNL     1      -2.786  12.469  21.358  0.00  0.00    +0.000 A 
ATOM      8  C   UNL     1      -2.345  12.105  22.649  0.00  0.00    +0.000 A 
ATOM      9  C   UNL     1      -1.074  11.591  22.884  0.00  0.00    +0.000 A 
ATOM     10  C   UNL     1      -0.193  11.379  21.824  0.00  0.00    +0.000 A 
ATOM     11  C   UNL     1      -0.598  11.655  20.499  0.00  0.00    +0.000 A 
ATOM     12  H   UNL     1      -2.702  13.047  18.539  0.00  0.00    +0.000 HD
BRANCH   7  13
ATOM     13  C   UNL     1      -4.108  13.093  21.128  0.00  0.00    +0.000 A 
ATOM     14  C   UNL     1      -4.379  14.427  21.494  0.00  0.00    +0.000 A 
ATOM     15  C   UNL     1      -5.660  14.972  21.372  0.00  0.00    +0.000 A 
ATOM     16  C   UNL     1      -6.679  14.209  20.824  0.00  0.00    +0.000 A 
ATOM     17  F   UNL     1      -7.907  14.729  20.710  0.00  0.00    +0.000 F 
ATOM     18  C   UNL     1      -6.437  12.916  20.387  0.00  0.00    +0.000 A 
ATOM     19  C   UNL     1      -5.164  12.361  20.548  0.00  0.00    +0.000 A 
ENDBRANCH   7  13
ENDBRANCH   1   3
BRANCH   1  23
ATOM     20  C   UNL     1       2.352   6.797  19.557  0.00  0.00    +0.000 A 
ATOM     21  C   UNL     1       2.433   7.326  18.260  0.00  0.00    +0.000 A 
ATOM     22  C   UNL     1       2.023   8.636  18.005  0.00  0.00    +0.000 A 
ATOM     23  C   UNL     1       1.512   9.420  19.044  0.00  0.00    +0.000 A 
ATOM     24  C   UNL     1       1.266   8.838  20.291  0.00  0.00    +0.000 A 
ATOM     25  C   UNL     1       1.703   7.540  20.553  0.00  0.00    +0.000 A 
BRANCH  20  26
ATOM     26  C   UNL     1       2.988   5.469  19.901  0.00  0.00    +0.000 C 
BRANCH  26  36
ATOM     27  C   UNL     1       1.795   3.685  17.701  0.00  0.00    +0.000 C 
ATOM     28  C   UNL     1       3.199   4.165  17.748  0.00  0.00    +0.000 A 
ATOM     29  N   UNL     1       4.098   3.935  16.812  0.00  0.00    +0.000 NA
ATOM     30  C   UNL     1       5.265   4.506  17.263  0.00  0.00    +0.000 A 
ATOM     31  C   UNL     1       6.527   4.564  16.664  0.00  0.00    +0.000 A 
ATOM     32  N   UNL     1       7.565   5.162  17.304  0.00  0.00    +0.000 NA
ATOM     33  C   UNL     1       7.350   5.693  18.529  0.00  0.00    +0.000 A 
ATOM     34  C   UNL     1       6.134   5.691  19.204  0.00  0.00    +0.000 A 
ATOM     35  C   UNL     1       5.080   5.086  18.516  0.00  0.00    +0.000 A 
ATOM     36  N   UNL     1       3.730   4.917  18.774  0.00  0.00    +0.000 N 
ENDBRANCH  26  36
ENDBRANCH  20  26
ENDBRANCH   1  23
TORSDOF 5
ENDMDL
MODEL 4
REMARK VINA RESULT:      -9.6      1.244      2.353
REMARK  Name = 
REMARK  6 active torsions:
REMARK  status: ('A' for Active; 'I' for Inactive)
REMARK    1  A    between atoms: C_1  and  C_2
REMARK    2  A    between atoms: N_10  and  C_11
REMARK    3  A    between atoms: C_11  and  C_12
REMARK    4  A    between atoms: C_15  and  C_16
REMARK    5  A    between atoms: C_16  and  C_18
REMARK    6  A    between atoms: C_22  and  C_23
REMARK                            x       y       z     vdW  Elec       q    Type
REMARK                         _______ _______ _______ _____ _____    ______ ____
ROOT
ATOM      1  C   UNL     1       1.303  10.683  18.714  0.00  0.00    +0.000 C 
ATOM      2  O   UNL     1       2.118  11.355  18.084  0.00  0.00    +0.000 OA
ENDROOT
BRANCH   1   3
ATOM      3  C   UNL     1       0.058  11.261  19.225  0.00  0.00    +0.000 A 
ATOM      4  C   UNL     1      -1.178  10.926  18.706  0.00  0.00    +0.000 A 
ATOM      5  N   UNL     1      -2.138  11.615  19.384  0.00  0.00    +0.000 N 
ATOM      6  C   UNL     1      -1.583  12.368  20.399  0.00  0.00    +0.000 A 
ATOM      7  C   UNL     1      -2.204  13.176  21.385  0.00  0.00    +0.000 A 
ATOM      8  C   UNL     1      -1.323  13.894  22.224  0.00  0.00    +0.000 A 
ATOM      9  C   UNL     1       0.058  13.845  22.068  0.00  0.00    +0.000 A 
ATOM     10  C   UNL     1       0.628  13.040  21.082  0.00  0.00    +0.000 A 
ATOM     11  C   UNL     1      -0.194  12.242  20.255  0.00  0.00    +0.000 A 
ATOM     12  H   UNL     1      -3.126  11.575  19.177  0.00  0.00    +0.000 HD
BRANCH   7  13
ATOM     13  C   UNL     1      -3.674  13.298  21.504  0.00  0.00    +0.000 A 
ATOM     14  C   UNL     1      -4.376  12.808  22.624  0.00  0.00    +0.000 A 
ATOM     15  C   UNL     1      -5.772  12.830  22.678  0.00  0.00    +0.000 A 
ATOM     16  C   UNL     1      -6.488  13.402  21.637  0.00  0.00    +0.000 A 
ATOM     17  F   UNL     1      -7.825  13.420  21.685  0.00  0.00    +0.000 F 
ATOM     18  C   UNL     1      -5.832  13.958  20.550  0.00  0.00    +0.000 A 
ATOM     19  C   UNL     1      -4.436  13.897  20.482  0.00  0.00    +0.000 A 
ENDBRANCH   7  13
ENDBRANCH   1   3
BRANCH   1  23
ATOM     20  C   UNL     1       2.557   6.661  19.458  0.00  0.00    +0.000 A 
ATOM     21  C   UNL     1       2.693   7.228  18.181  0.00  0.00    +0.000 A 
ATOM     22  C   UNL     1       2.227   8.520  17.930  0.00  0.00    +0.000 A 
ATOM     23  C   UNL     1       1.605   9.247  18.950  0.00  0.00    +0.000 A 
ATOM     24  C   UNL     1       1.312   8.620  20.164  0.00  0.00    +0.000 A 
ATOM     25  C   UNL     1       1.803   7.340  20.425  0.00  0.00    +0.000 A 
BRANCH  20  26
ATOM     26  C   UNL     1       3.243   5.361  19.813  0.00  0.00    +0.000 C 
BRANCH  26  36
ATOM     27  C   UNL     1       1.856   3.651  17.670  0.00  0.00    +0.000 C 
ATOM     28  C   UNL     1       3.287   4.045  17.658  0.00  0.00    +0.000 A 
ATOM     29  N   UNL     1       4.131   3.762  16.686  0.00  0.00    +0.000 NA
ATOM     30  C   UNL     1       5.347   4.263  17.087  0.00  0.00    +0.000 A 
ATOM     31  C   UNL     1       6.585   4.245  16.436  0.00  0.00    +0.000 A 
ATOM     32  N   UNL     1       7.682   4.780  17.031  0.00  0.00    +0.000 NA
ATOM     33  C   UNL     1       7.551   5.324  18.262  0.00  0.00    +0.000 A 
ATOM     34  C   UNL     1       6.365   5.395  18.987  0.00  0.00    +0.000 A 
ATOM     35  C   UNL     1       5.249   4.853  18.345  0.00  0.00    +0.000 A 
ATOM     36  N   UNL     1       3.904   4.765  18.658  0.00  0.00    +0.000 N 
ENDBRANCH  26  36
ENDBRANCH  20  26
ENDBRANCH   1  23
TORSDOF 5
ENDMDL
MODEL 5
REMARK VINA RESULT:      -9.5      0.651      1.319
REMARK  Name = 
REMARK  6 active torsions:
REMARK  status: ('A' for Active; 'I' for Inactive)
REMARK    1  A    between atoms: C_1  and  C_2
REMARK    2  A    between atoms: N_10  and  C_11
REMARK    3  A    between atoms: C_11  and  C_12
REMARK    4  A    between atoms: C_15  and  C_16
REMARK    5  A    between atoms: C_16  and  C_18
REMARK    6  A    between atoms: C_22  and  C_23
REMARK                            x       y       z     vdW  Elec       q    Type
REMARK                         _______ _______ _______ _____ _____    ______ ____
ROOT
ATOM      1  C   UNL     1       1.131  10.916  18.721  0.00  0.00    +0.000 C 
ATOM      2  O   UNL     1       1.934  11.707  18.230  0.00  0.00    +0.000 OA
ENDROOT
BRANCH   1   3
ATOM      3  C   UNL     1      -0.271  11.278  18.945  0.00  0.00    +0.000 A 
ATOM      4  C   UNL     1      -0.657  12.144  19.951  0.00  0.00    +0.000 A 
ATOM      5  N   UNL     1      -2.010  12.290  19.905  0.00  0.00    +0.000 N 
ATOM      6  C   UNL     1      -2.549  11.586  18.847  0.00  0.00    +0.000 A 
ATOM      7  C   UNL     1      -3.888  11.508  18.385  0.00  0.00    +0.000 A 
ATOM      8  C   UNL     1      -4.110  10.610  17.319  0.00  0.00    +0.000 A 
ATOM      9  C   UNL     1      -3.094   9.823  16.784  0.00  0.00    +0.000 A 
ATOM     10  C   UNL     1      -1.792   9.929  17.270  0.00  0.00    +0.000 A 
ATOM     11  C   UNL     1      -1.487  10.861  18.288  0.00  0.00    +0.000 A 
ATOM     12  H   UNL     1      -2.549  12.844  20.556  0.00  0.00    +0.000 HD
BRANCH   7  13
ATOM     13  C   UNL     1      -4.989  12.278  19.003  0.00  0.00    +0.000 A 
ATOM     14  C   UNL     1      -5.991  12.901  18.231  0.00  0.00    +0.000 A 
ATOM     15  C   UNL     1      -6.964  13.716  18.817  0.00  0.00    +0.000 A 
ATOM     16  C   UNL     1      -6.988  13.871  20.194  0.00  0.00    +0.000 A 
ATOM     17  F   UNL     1      -7.916  14.655  20.756  0.00  0.00    +0.000 F 
ATOM     18  C   UNL     1      -6.063  13.219  20.995  0.00  0.00    +0.000 A 
ATOM     19  C   UNL     1      -5.067  12.437  20.402  0.00  0.00    +0.000 A 
ENDBRANCH   7  13
ENDBRANCH   1   3
BRANCH   1  23
ATOM     20  C   UNL     1       2.135   6.880  19.727  0.00  0.00    +0.000 A 
ATOM     21  C   UNL     1       1.649   7.762  20.706  0.00  0.00    +0.000 A 
ATOM     22  C   UNL     1       1.380   9.094  20.384  0.00  0.00    +0.000 A 
ATOM     23  C   UNL     1       1.613   9.558  19.086  0.00  0.00    +0.000 A 
ATOM     24  C   UNL     1       2.261   8.731  18.163  0.00  0.00    +0.000 A 
ATOM     25  C   UNL     1       2.503   7.393  18.475  0.00  0.00    +0.000 A 
BRANCH  20  26
ATOM     26  C   UNL     1       2.226   5.394  19.990  0.00  0.00    +0.000 C 
BRANCH  26  36
ATOM     27  C   UNL     1       1.026   3.397  17.986  0.00  0.00    +0.000 C 
ATOM     28  C   UNL     1       2.439   3.852  18.002  0.00  0.00    +0.000 A 
ATOM     29  N   UNL     1       3.346   3.500  17.112  0.00  0.00    +0.000 NA
ATOM     30  C   UNL     1       4.518   4.097  17.515  0.00  0.00    +0.000 A 
ATOM     31  C   UNL     1       5.790   4.062  16.934  0.00  0.00    +0.000 A 
ATOM     32  N   UNL     1       6.831   4.708  17.519  0.00  0.00    +0.000 NA
ATOM     33  C   UNL     1       6.610   5.378  18.673  0.00  0.00    +0.000 A 
ATOM     34  C   UNL     1       5.385   5.476  19.324  0.00  0.00    +0.000 A 
ATOM     35  C   UNL     1       4.328   4.817  18.691  0.00  0.00    +0.000 A 
ATOM     36  N   UNL     1       2.972   4.704  18.945  0.00  0.00    +0.000 N 
ENDBRANCH  26  36
ENDBRANCH  20  26
ENDBRANCH   1  23
TORSDOF 5
ENDMDL
MODEL 6
REMARK VINA RESULT:      -9.5      4.778     10.954
REMARK  Name = 
REMARK  6 active torsions:
REMARK  status: ('A' for Active; 'I' for Inactive)
REMARK    1  A    between atoms: C_1  and  C_2
REMARK    2  A    between atoms: N_10  and  C_11
REMARK    3  A    between atoms: C_11  and  C_12
REMARK    4  A    between atoms: C_15  and  C_16
REMARK    5  A    between atoms: C_16  and  C_18
REMARK    6  A    between atoms: C_22  and  C_23
REMARK                            x       y       z     vdW  Elec       q    Type
REMARK                         _______ _______ _______ _____ _____    ______ ____
ROOT
ATOM      1  C   UNL     1       2.758   5.740  19.867  0.00  0.00    +0.000 C 
ATOM      2  O   UNL     1       2.582   4.945  20.788  0.00  0.00    +0.000 OA
ENDROOT
BRANCH   1   3
ATOM      3  C   UNL     1       3.561   5.393  18.691  0.00  0.00    +0.000 A 
ATOM      4  C   UNL     1       2.987   5.002  17.496  0.00  0.00    +0.000 A 
ATOM      5  N   UNL     1       3.979   4.753  16.596  0.00  0.00    +0.000 N 
ATOM      6  C   UNL     1       5.219   5.026  17.139  0.00  0.00    +0.000 A 
ATOM      7  C   UNL     1       6.508   4.976  16.550  0.00  0.00    +0.000 A 
ATOM      8  C   UNL     1       7.586   5.229  17.426  0.00  0.00    +0.000 A 
ATOM      9  C   UNL     1       7.400   5.470  18.784  0.00  0.00    +0.000 A 
ATOM     10  C   UNL     1       6.115   5.508  19.323  0.00  0.00    +0.000 A 
ATOM     11  C   UNL     1       4.989   5.333  18.487  0.00  0.00    +0.000 A 
ATOM     12  H   UNL     1       3.828   4.420  15.655  0.00  0.00    +0.000 HD
BRANCH   7  13
ATOM     13  C   UNL     1       6.719   4.638  15.125  0.00  0.00    +0.000 A 
ATOM     14  C   UNL     1       7.667   5.313  14.329  0.00  0.00    +0.000 A 
ATOM     15  C   UNL     1       7.783   5.061  12.959  0.00  0.00    +0.000 A 
ATOM     16  C   UNL     1       6.994   4.083  12.374  0.00  0.00    +0.000 A 
ATOM     17  F   UNL     1       7.101   3.844  11.062  0.00  0.00    +0.000 F 
ATOM     18  C   UNL     1       6.099   3.348  13.136  0.00  0.00    +0.000 A 
ATOM     19  C   UNL     1       5.957   3.631  14.498  0.00  0.00    +0.000 A 
ENDBRANCH   7  13
ENDBRANCH   1   3
BRANCH   1  23
ATOM     20  C   UNL     1       0.635   9.454  19.929  0.00  0.00    +0.000 A 
ATOM     21  C   UNL     1       1.459   9.120  18.843  0.00  0.00    +0.000 A 
ATOM     22  C   UNL     1       2.196   7.933  18.856  0.00  0.00    +0.000 A 
ATOM     23  C   UNL     1       2.128   7.083  19.964  0.00  0.00    +0.000 A 
ATOM     24  C   UNL     1       1.450   7.500  21.113  0.00  0.00    +0.000 A 
ATOM     25  C   UNL     1       0.691   8.670  21.090  0.00  0.00    +0.000 A 
BRANCH  20  26
ATOM     26  C   UNL     1      -0.333  10.613  19.848  0.00  0.00    +0.000 C 
BRANCH  26  36
ATOM     27  C   UNL     1      -1.076  11.789  22.588  0.00  0.00    +0.000 C 
ATOM     28  C   UNL     1      -0.048  12.339  21.669  0.00  0.00    +0.000 A 
ATOM     29  N   UNL     1       0.724  13.371  21.945  0.00  0.00    +0.000 NA
ATOM     30  C   UNL     1       1.491  13.577  20.822  0.00  0.00    +0.000 A 
ATOM     31  C   UNL     1       2.478  14.535  20.572  0.00  0.00    +0.000 A 
ATOM     32  N   UNL     1       3.102  14.581  19.367  0.00  0.00    +0.000 NA
ATOM     33  C   UNL     1       2.746  13.686  18.419  0.00  0.00    +0.000 A 
ATOM     34  C   UNL     1       1.781  12.694  18.573  0.00  0.00    +0.000 A 
ATOM     35  C   UNL     1       1.168  12.658  19.826  0.00  0.00    +0.000 A 
ATOM     36  N   UNL     1       0.230  11.830  20.419  0.00  0.00    +0.000 N 
ENDBRANCH  26  36
ENDBRANCH  20  26
ENDBRANCH   1  23
TORSDOF 5
ENDMDL
MODEL 7
REMARK VINA RESULT:      -9.4      3.893     11.043
REMARK  Name = 
REMARK  6 active torsions:
REMARK  status: ('A' for Active; 'I' for Inactive)
REMARK    1  A    between atoms: C_1  and  C_2
REMARK    2  A    between atoms: N_10  and  C_11
REMARK    3  A    between atoms: C_11  and  C_12
REMARK    4  A    between atoms: C_15  and  C_16
REMARK    5  A    between atoms: C_16  and  C_18
REMARK    6  A    between atoms: C_22  and  C_23
REMARK                            x       y       z     vdW  Elec       q    Type
REMARK                         _______ _______ _______ _____ _____    ______ ____
ROOT
ATOM      1  C   UNL     1       1.084   8.725  20.921  0.00  0.00    +0.000 C 
ATOM      2  O   UNL     1       1.049   8.358  22.094  0.00  0.00    +0.000 OA
ENDROOT
BRANCH   1   3
ATOM      3  C   UNL     1       1.825   7.979  19.900  0.00  0.00    +0.000 A 
ATOM      4  C   UNL     1       2.261   8.567  18.728  0.00  0.00    +0.000 A 
ATOM      5  N   UNL     1       2.919   7.632  17.989  0.00  0.00    +0.000 N 
ATOM      6  C   UNL     1       2.993   6.430  18.664  0.00  0.00    +0.000 A 
ATOM      7  C   UNL     1       3.637   5.217  18.308  0.00  0.00    +0.000 A 
ATOM      8  C   UNL     1       3.433   4.138  19.196  0.00  0.00    +0.000 A 
ATOM      9  C   UNL     1       2.622   4.245  20.322  0.00  0.00    +0.000 A 
ATOM     10  C   UNL     1       2.005   5.455  20.634  0.00  0.00    +0.000 A 
ATOM     11  C   UNL     1       2.225   6.593  19.825  0.00  0.00    +0.000 A 
ATOM     12  H   UNL     1       3.307   7.796  17.071  0.00  0.00    +0.000 HD
BRANCH   7  13
ATOM     13  C   UNL     1       4.433   5.072  17.069  0.00  0.00    +0.000 A 
ATOM     14  C   UNL     1       4.813   3.811  16.568  0.00  0.00    +0.000 A 
ATOM     15  C   UNL     1       5.655   3.689  15.459  0.00  0.00    +0.000 A 
ATOM     16  C   UNL     1       6.080   4.828  14.794  0.00  0.00    +0.000 A 
ATOM     17  F   UNL     1       6.890   4.713  13.734  0.00  0.00    +0.000 F 
ATOM     18  C   UNL     1       5.672   6.085  15.213  0.00  0.00    +0.000 A 
ATOM     19  C   UNL     1       4.862   6.204  16.347  0.00  0.00    +0.000 A 
ENDBRANCH   7  13
ENDBRANCH   1   3
BRANCH   1  23
ATOM     20  C   UNL     1      -1.370  12.114  20.024  0.00  0.00    +0.000 A 
ATOM     21  C   UNL     1      -1.371  10.987  19.186  0.00  0.00    +0.000 A 
ATOM     22  C   UNL     1      -0.525   9.909  19.451  0.00  0.00    +0.000 A 
ATOM     23  C   UNL     1       0.344   9.958  20.546  0.00  0.00    +0.000 A 
ATOM     24  C   UNL     1       0.473  11.147  21.272  0.00  0.00    +0.000 A 
ATOM     25  C   UNL     1      -0.394  12.212  21.025  0.00  0.00    +0.000 A 
BRANCH  20  26
ATOM     26  C   UNL     1      -2.423  13.190  19.888  0.00  0.00    +0.000 C 
BRANCH  26  36
ATOM     27  C   UNL     1      -3.353  13.188  22.817  0.00  0.00    +0.000 C 
ATOM     28  C   UNL     1      -4.180  12.780  21.655  0.00  0.00    +0.000 A 
ATOM     29  N   UNL     1      -5.448  12.423  21.729  0.00  0.00    +0.000 NA
ATOM     30  C   UNL     1      -5.817  12.081  20.449  0.00  0.00    +0.000 A 
ATOM     31  C   UNL     1      -7.049  11.638  19.958  0.00  0.00    +0.000 A 
ATOM     32  N   UNL     1      -7.192  11.324  18.644  0.00  0.00    +0.000 NA
ATOM     33  C   UNL     1      -6.121  11.447  17.829  0.00  0.00    +0.000 A 
ATOM     34  C   UNL     1      -4.859  11.883  18.220  0.00  0.00    +0.000 A 
ATOM     35  C   UNL     1      -4.744  12.216  19.571  0.00  0.00    +0.000 A 
ATOM     36  N   UNL     1      -3.726  12.733  20.354  0.00  0.00    +0.000 N 
ENDBRANCH  26  36
ENDBRANCH  20  26
ENDBRANCH   1  23
TORSDOF 5
ENDMDL
MODEL 8
REMARK VINA RESULT:      -9.4      2.078      2.999
REMARK  Name = 
REMARK  6 active torsions:
REMARK  status: ('A' for Active; 'I' for Inactive)
REMARK    1  A    between atoms: C_1  and  C_2
REMARK    2  A    between atoms: N_10  and  C_11
REMARK    3  A    between atoms: C_11  and  C_12
REMARK    4  A    between atoms: C_15  and  C_16
REMARK    5  A    between atoms: C_16  and  C_18
REMARK    6  A    between atoms: C_22  and  C_23
REMARK                            x       y       z     vdW  Elec       q    Type
REMARK                         _______ _______ _______ _____ _____    ______ ____
ROOT
ATOM      1  C   UNL     1       1.376  10.536  18.879  0.00  0.00    +0.000 C 
ATOM      2  O   UNL     1       2.065  11.133  18.054  0.00  0.00    +0.000 OA
ENDROOT
BRANCH   1   3
ATOM      3  C   UNL     1       0.324  11.213  19.642  0.00  0.00    +0.000 A 
ATOM      4  C   UNL     1      -0.989  10.783  19.628  0.00  0.00    +0.000 A 
ATOM      5  N   UNL     1      -1.724  11.602  20.431  0.00  0.00    +0.000 N 
ATOM      6  C   UNL     1      -0.923  12.547  21.040  0.00  0.00    +0.000 A 
ATOM      7  C   UNL     1      -1.248  13.545  21.995  0.00  0.00    +0.000 A 
ATOM      8  C   UNL     1      -0.193  14.417  22.343  0.00  0.00    +0.000 A 
ATOM      9  C   UNL     1       1.067  14.331  21.760  0.00  0.00    +0.000 A 
ATOM     10  C   UNL     1       1.343  13.336  20.822  0.00  0.00    +0.000 A 
ATOM     11  C   UNL     1       0.353  12.387  20.482  0.00  0.00    +0.000 A 
ATOM     12  H   UNL     1      -2.722  11.525  20.567  0.00  0.00    +0.000 HD
BRANCH   7  13
ATOM     13  C   UNL     1      -2.608  13.696  22.558  0.00  0.00    +0.000 A 
ATOM     14  C   UNL     1      -3.084  12.868  23.594  0.00  0.00    +0.000 A 
ATOM     15  C   UNL     1      -4.404  12.947  24.044  0.00  0.00    +0.000 A 
ATOM     16  C   UNL     1      -5.255  13.900  23.506  0.00  0.00    +0.000 A 
ATOM     17  F   UNL     1      -6.521  13.973  23.932  0.00  0.00    +0.000 F 
ATOM     18  C   UNL     1      -4.805  14.780  22.534  0.00  0.00    +0.000 A 
ATOM     19  C   UNL     1      -3.495  14.671  22.058  0.00  0.00    +0.000 A 
ENDBRANCH   7  13
ENDBRANCH   1   3
BRANCH   1  23
ATOM     20  C   UNL     1       2.500   6.457  19.522  0.00  0.00    +0.000 A 
ATOM     21  C   UNL     1       2.541   7.017  18.235  0.00  0.00    +0.000 A 
ATOM     22  C   UNL     1       2.116   8.329  18.022  0.00  0.00    +0.000 A 
ATOM     23  C   UNL     1       1.630   9.086  19.092  0.00  0.00    +0.000 A 
ATOM     24  C   UNL     1       1.423   8.475  20.333  0.00  0.00    +0.000 A 
ATOM     25  C   UNL     1       1.875   7.173  20.552  0.00  0.00    +0.000 A 
BRANCH  20  26
ATOM     26  C   UNL     1       3.154   5.126  19.817  0.00  0.00    +0.000 C 
BRANCH  26  36
ATOM     27  C   UNL     1       1.999   3.397  17.554  0.00  0.00    +0.000 C 
ATOM     28  C   UNL     1       3.394   3.902  17.621  0.00  0.00    +0.000 A 
ATOM     29  N   UNL     1       4.299   3.723  16.679  0.00  0.00    +0.000 NA
ATOM     30  C   UNL     1       5.453   4.302  17.152  0.00  0.00    +0.000 A 
ATOM     31  C   UNL     1       6.715   4.405  16.558  0.00  0.00    +0.000 A 
ATOM     32  N   UNL     1       7.739   5.001  17.221  0.00  0.00    +0.000 NA
ATOM     33  C   UNL     1       7.513   5.485  18.463  0.00  0.00    +0.000 A 
ATOM     34  C   UNL     1       6.295   5.435  19.134  0.00  0.00    +0.000 A 
ATOM     35  C   UNL     1       5.255   4.834  18.424  0.00  0.00    +0.000 A 
ATOM     36  N   UNL     1       3.908   4.629  18.673  0.00  0.00    +0.000 N 
ENDBRANCH  26  36
ENDBRANCH  20  26
ENDBRANCH   1  23
TORSDOF 5
ENDMDL
MODEL 9
REMARK VINA RESULT:      -9.4      3.791     11.186
REMARK  Name = 
REMARK  6 active torsions:
REMARK  status: ('A' for Active; 'I' for Inactive)
REMARK    1  A    between atoms: C_1  and  C_2
REMARK    2  A    between atoms: N_10  and  C_11
REMARK    3  A    between atoms: C_11  and  C_12
REMARK    4  A    between atoms: C_15  and  C_16
REMARK    5  A    between atoms: C_16  and  C_18
REMARK    6  A    between atoms: C_22  and  C_23
REMARK                            x       y       z     vdW  Elec       q    Type
REMARK                         _______ _______ _______ _____ _____    ______ ____
ROOT
ATOM      1  C   UNL     1       0.661  10.932  19.676  0.00  0.00    +0.000 C 
ATOM      2  O   UNL     1       1.251  11.774  20.350  0.00  0.00    +0.000 OA
ENDROOT
BRANCH   1   3
ATOM      3  C   UNL     1       1.363   9.797  19.072  0.00  0.00    +0.000 A 
ATOM      4  C   UNL     1       1.930   9.866  17.813  0.00  0.00    +0.000 A 
ATOM      5  N   UNL     1       2.512   8.668  17.530  0.00  0.00    +0.000 N 
ATOM      6  C   UNL     1       2.405   7.801  18.599  0.00  0.00    +0.000 A 
ATOM      7  C   UNL     1       2.919   6.490  18.771  0.00  0.00    +0.000 A 
ATOM      8  C   UNL     1       2.539   5.841  19.966  0.00  0.00    +0.000 A 
ATOM      9  C   UNL     1       1.685   6.431  20.894  0.00  0.00    +0.000 A 
ATOM     10  C   UNL     1       1.200   7.721  20.685  0.00  0.00    +0.000 A 
ATOM     11  C   UNL     1       1.599   8.453  19.543  0.00  0.00    +0.000 A 
ATOM     12  H   UNL     1       2.968   8.444  16.657  0.00  0.00    +0.000 HD
BRANCH   7  13
ATOM     13  C   UNL     1       3.759   5.824  17.751  0.00  0.00    +0.000 A 
ATOM     14  C   UNL     1       4.645   6.546  16.926  0.00  0.00    +0.000 A 
ATOM     15  C   UNL     1       5.353   5.924  15.894  0.00  0.00    +0.000 A 
ATOM     16  C   UNL     1       5.232   4.555  15.710  0.00  0.00    +0.000 A 
ATOM     17  F   UNL     1       5.906   3.959  14.719  0.00  0.00    +0.000 F 
ATOM     18  C   UNL     1       4.424   3.798  16.544  0.00  0.00    +0.000 A 
ATOM     19  C   UNL     1       3.687   4.431  17.550  0.00  0.00    +0.000 A 
ENDBRANCH   7  13
ENDBRANCH   1   3
BRANCH   1  23
ATOM     20  C   UNL     1      -3.478  11.713  18.921  0.00  0.00    +0.000 A 
ATOM     21  C   UNL     1      -2.830  12.292  20.023  0.00  0.00    +0.000 A 
ATOM     22  C   UNL     1      -1.496  11.986  20.299  0.00  0.00    +0.000 A 
ATOM     23  C   UNL     1      -0.805  11.084  19.483  0.00  0.00    +0.000 A 
ATOM     24  C   UNL     1      -1.499  10.375  18.497  0.00  0.00    +0.000 A 
ATOM     25  C   UNL     1      -2.822  10.702  18.204  0.00  0.00    +0.000 A 
BRANCH  20  26
ATOM     26  C   UNL     1      -4.842  12.191  18.476  0.00  0.00    +0.000 C 
BRANCH  26  36
ATOM     27  C   UNL     1      -6.679   9.797  19.056  0.00  0.00    +0.000 C 
ATOM     28  C   UNL     1      -6.607  11.039  19.867  0.00  0.00    +0.000 A 
ATOM     29  N   UNL     1      -7.281  11.243  20.981  0.00  0.00    +0.000 NA
ATOM     30  C   UNL     1      -6.965  12.520  21.383  0.00  0.00    +0.000 A 
ATOM     31  C   UNL     1      -7.394  13.242  22.501  0.00  0.00    +0.000 A 
ATOM     32  N   UNL     1      -6.976  14.519  22.696  0.00  0.00    +0.000 NA
ATOM     33  C   UNL     1      -6.142  15.073  21.787  0.00  0.00    +0.000 A 
ATOM     34  C   UNL     1      -5.657  14.436  20.649  0.00  0.00    +0.000 A 
ATOM     35  C   UNL     1      -6.088  13.119  20.482  0.00  0.00    +0.000 A 
ATOM     36  N   UNL     1      -5.817  12.125  19.558  0.00  0.00    +0.000 N 
ENDBRANCH  26  36
ENDBRANCH  20  26
ENDBRANCH   1  23
TORSDOF 5
ENDMDL
