MODEL 1
REMARK VINA RESULT:      -6.9      0.000      0.000
REMARK  Name = 
REMARK  4 active torsions:
REMARK  status: ('A' for Active; 'I' for Inactive)
REMARK    1  A    between atoms: N_1  and  C_2
REMARK    2  A    between atoms: C_2  and  C_3
REMARK    3  A    between atoms: C_2  and  C_10
REMARK    4  A    between atoms: C_3  and  C_4
REMARK                            x       y       z     vdW  Elec       q    Type
REMARK                         _______ _______ _______ _____ _____    ______ ____
ROOT
ATOM      1  C   UNL     1       4.535   3.827  17.154  0.00  0.00    +0.000 C 
ENDROOT
BRANCH   1   2
ATOM      2  C   UNL     1       5.651   4.169  18.190  0.00  0.00    +0.000 C 
ATOM      3  O   UNL     1       5.607   3.715  19.335  0.00  0.00    +0.000 OA
ATOM      4  N   UNL     1       6.728   4.937  17.757  0.00  0.00    +0.000 N 
ATOM      5  C   UNL     1       7.882   5.098  18.635  0.00  0.00    +0.000 C 
ATOM      6  C   UNL     1       7.964   6.531  19.154  0.00  0.00    +0.000 C 
ATOM      7  C   UNL     1       7.952   7.529  17.995  0.00  0.00    +0.000 C 
ATOM      8  C   UNL     1       6.759   7.283  17.066  0.00  0.00    +0.000 C 
ATOM      9  C   UNL     1       6.716   5.825  16.597  0.00  0.00    +0.000 C 
ENDBRANCH   1   2
BRANCH   1  10
ATOM     10  N   UNL     1       5.159   3.110  16.022  0.00  0.00    +0.000 NA
ATOM     11  H   UNL     1       4.739   2.190  15.920  0.00  0.00    +0.000 HD
ATOM     12  H   UNL     1       6.142   2.949  16.252  0.00  0.00    +0.000 HD
ENDBRANCH   1  10
BRANCH   1  13
ATOM     13  C   UNL     1       3.434   2.981  17.830  0.00  0.00    +0.000 C 
BRANCH  13  14
ATOM     14  C   UNL     1       1.987   3.528  17.769  0.00  0.00    +0.000 C 
ATOM     15  C   UNL     1       1.050   2.670  18.643  0.00  0.00    +0.000 C 
ATOM     16  C   UNL     1       1.330   2.832  20.138  0.00  0.00    +0.000 C 
ATOM     17  C   UNL     1       1.278   4.295  20.567  0.00  0.00    +0.000 C 
ATOM     18  C   UNL     1       2.129   5.208  19.683  0.00  0.00    +0.000 C 
ATOM     19  C   UNL     1       1.852   4.998  18.196  0.00  0.00    +0.000 C 
ENDBRANCH  13  14
ENDBRANCH   1  13
TORSDOF 4
ENDMDL
MODEL 2
REMARK VINA RESULT:      -6.9      1.153      1.569
REMARK  Name = 
REMARK  4 active torsions:
REMARK  status: ('A' for Active; 'I' for Inactive)
REMARK    1  A    between atoms: N_1  and  C_2
REMARK    2  A    between atoms: C_2  and  C_3
REMARK    3  A    between atoms: C_2  and  C_10
REMARK    4  A    between atoms: C_3  and  C_4
REMARK                            x       y       z     vdW  Elec       q    Type
REMARK                         _______ _______ _______ _____ _____    ______ ____
ROOT
ATOM      1  C   UNL     1       3.853   3.004  17.962  0.00  0.00    +0.000 C 
ENDROOT
BRANCH   1   2
ATOM      2  C   UNL     1       5.154   3.669  18.511  0.00  0.00    +0.000 C 
ATOM      3  O   UNL     1       5.496   3.510  19.685  0.00  0.00    +0.000 OA
ATOM      4  N   UNL     1       5.949   4.380  17.617  0.00  0.00    +0.000 N 
ATOM      5  C   UNL     1       7.268   4.834  18.046  0.00  0.00    +0.000 C 
ATOM      6  C   UNL     1       7.289   6.353  18.195  0.00  0.00    +0.000 C 
ATOM      7  C   UNL     1       6.815   7.030  16.908  0.00  0.00    +0.000 C 
ATOM      8  C   UNL     1       5.457   6.479  16.462  0.00  0.00    +0.000 C 
ATOM      9  C   UNL     1       5.490   4.952  16.353  0.00  0.00    +0.000 C 
ENDBRANCH   1   2
BRANCH   1  10
ATOM     10  N   UNL     1       4.195   1.650  17.478  0.00  0.00    +0.000 NA
ATOM     11  H   UNL     1       4.355   1.670  16.475  0.00  0.00    +0.000 HD
ATOM     12  H   UNL     1       3.383   1.046  17.624  0.00  0.00    +0.000 HD
ENDBRANCH   1  10
BRANCH   1  13
ATOM     13  C   UNL     1       2.780   2.961  19.070  0.00  0.00    +0.000 C 
BRANCH  13  14
ATOM     14  C   UNL     1       1.500   3.804  18.846  0.00  0.00    +0.000 C 
ATOM     15  C   UNL     1       0.909   4.255  20.196  0.00  0.00    +0.000 C 
ATOM     16  C   UNL     1       1.784   5.289  20.905  0.00  0.00    +0.000 C 
ATOM     17  C   UNL     1       2.070   6.493  20.013  0.00  0.00    +0.000 C 
ATOM     18  C   UNL     1       2.585   6.102  18.627  0.00  0.00    +0.000 C 
ATOM     19  C   UNL     1       1.711   5.042  17.961  0.00  0.00    +0.000 C 
ENDBRANCH  13  14
ENDBRANCH   1  13
TORSDOF 4
ENDMDL
MODEL 3
REMARK VINA RESULT:      -6.8      2.302      5.879
REMARK  Name = 
REMARK  4 active torsions:
REMARK  status: ('A' for Active; 'I' for Inactive)
REMARK    1  A    between atoms: N_1  and  C_2
REMARK    2  A    between atoms: C_2  and  C_3
REMARK    3  A    between atoms: C_2  and  C_10
REMARK    4  A    between atoms: C_3  and  C_4
REMARK                            x       y       z     vdW  Elec       q    Type
REMARK                         _______ _______ _______ _____ _____    ______ ____
ROOT
ATOM      1  C   UNL     1       3.294   6.459  17.905  0.00  0.00    +0.000 C 
ENDROOT
BRANCH   1   2
ATOM      2  C   UNL     1       2.541   5.757  19.078  0.00  0.00    +0.000 C 
ATOM      3  O   UNL     1       2.521   6.259  20.204  0.00  0.00    +0.000 OA
ATOM      4  N   UNL     1       1.835   4.591  18.794  0.00  0.00    +0.000 N 
ATOM      5  C   UNL     1       0.955   4.029  19.813  0.00  0.00    +0.000 C 
ATOM      6  C   UNL     1       1.529   2.722  20.353  0.00  0.00    +0.000 C 
ATOM      7  C   UNL     1       1.822   1.745  19.213  0.00  0.00    +0.000 C 
ATOM      8  C   UNL     1       2.696   2.398  18.138  0.00  0.00    +0.000 C 
ATOM      9  C   UNL     1       2.083   3.715  17.651  0.00  0.00    +0.000 C 
ENDBRANCH   1   2
BRANCH   1  10
ATOM     10  N   UNL     1       2.928   7.891  17.912  0.00  0.00    +0.000 NA
ATOM     11  H   UNL     1       3.388   8.370  17.144  0.00  0.00    +0.000 HD
ATOM     12  H   UNL     1       3.299   8.308  18.769  0.00  0.00    +0.000 HD
ENDBRANCH   1  10
BRANCH   1  13
ATOM     13  C   UNL     1       4.816   6.256  18.063  0.00  0.00    +0.000 C 
BRANCH  13  14
ATOM     14  C   UNL     1       5.713   6.690  16.879  0.00  0.00    +0.000 C 
ATOM     15  C   UNL     1       7.172   6.254  17.120  0.00  0.00    +0.000 C 
ATOM     16  C   UNL     1       7.352   4.738  17.045  0.00  0.00    +0.000 C 
ATOM     17  C   UNL     1       6.832   4.172  15.727  0.00  0.00    +0.000 C 
ATOM     18  C   UNL     1       5.414   4.636  15.396  0.00  0.00    +0.000 C 
ATOM     19  C   UNL     1       5.256   6.150  15.514  0.00  0.00    +0.000 C 
ENDBRANCH  13  14
ENDBRANCH   1  13
TORSDOF 4
ENDMDL
MODEL 4
REMARK VINA RESULT:      -6.8      1.485      2.656
REMARK  Name = 
REMARK  4 active torsions:
REMARK  status: ('A' for Active; 'I' for Inactive)
REMARK    1  A    between atoms: N_1  and  C_2
REMARK    2  A    between atoms: C_2  and  C_3
REMARK    3  A    between atoms: C_2  and  C_10
REMARK    4  A    between atoms: C_3  and  C_4
REMARK                            x       y       z     vdW  Elec       q    Type
REMARK                         _______ _______ _______ _____ _____    ______ ____
ROOT
ATOM      1  C   UNL     1       4.421   3.636  19.205  0.00  0.00    +0.000 C 
ENDROOT
BRANCH   1   2
ATOM      2  C   UNL     1       5.697   4.384  18.706  0.00  0.00    +0.000 C 
ATOM      3  O   UNL     1       6.316   5.142  19.456  0.00  0.00    +0.000 OA
ATOM      4  N   UNL     1       6.151   4.110  17.419  0.00  0.00    +0.000 N 
ATOM      5  C   UNL     1       7.449   4.628  17.000  0.00  0.00    +0.000 C 
ATOM      6  C   UNL     1       7.274   5.727  15.956  0.00  0.00    +0.000 C 
ATOM      7  C   UNL     1       6.424   5.232  14.785  0.00  0.00    +0.000 C 
ATOM      8  C   UNL     1       5.099   4.640  15.277  0.00  0.00    +0.000 C 
ATOM      9  C   UNL     1       5.336   3.562  16.338  0.00  0.00    +0.000 C 
ENDBRANCH   1   2
BRANCH   1  10
ATOM     10  N   UNL     1       4.850   2.419  19.926  0.00  0.00    +0.000 NA
ATOM     11  H   UNL     1       4.751   2.556  20.928  0.00  0.00    +0.000 HD
ATOM     12  H   UNL     1       5.850   2.286  19.755  0.00  0.00    +0.000 HD
ENDBRANCH   1  10
BRANCH   1  13
ATOM     13  C   UNL     1       3.585   4.570  20.106  0.00  0.00    +0.000 C 
BRANCH  13  14
ATOM     14  C   UNL     1       2.184   4.981  19.590  0.00  0.00    +0.000 C 
ATOM     15  C   UNL     1       2.016   4.583  18.111  0.00  0.00    +0.000 C 
ATOM     16  C   UNL     1       1.935   3.068  17.916  0.00  0.00    +0.000 C 
ATOM     17  C   UNL     1       0.833   2.448  18.769  0.00  0.00    +0.000 C 
ATOM     18  C   UNL     1       0.902   2.872  20.236  0.00  0.00    +0.000 C 
ATOM     19  C   UNL     1       1.019   4.386  20.397  0.00  0.00    +0.000 C 
ENDBRANCH  13  14
ENDBRANCH   1  13
TORSDOF 4
ENDMDL
MODEL 5
REMARK VINA RESULT:      -6.7      1.680      2.620
REMARK  Name = 
REMARK  4 active torsions:
REMARK  status: ('A' for Active; 'I' for Inactive)
REMARK    1  A    between atoms: N_1  and  C_2
REMARK    2  A    between atoms: C_2  and  C_3
REMARK    3  A    between atoms: C_2  and  C_10
REMARK    4  A    between atoms: C_3  and  C_4
REMARK                            x       y       z     vdW  Elec       q    Type
REMARK                         _______ _______ _______ _____ _____    ______ ____
ROOT
ATOM      1  C   UNL     1       4.360   3.198  19.203  0.00  0.00    +0.000 C 
ENDROOT
BRANCH   1   2
ATOM      2  C   UNL     1       5.549   4.162  18.902  0.00  0.00    +0.000 C 
ATOM      3  O   UNL     1       6.027   4.871  19.791  0.00  0.00    +0.000 OA
ATOM      4  N   UNL     1       6.098   4.140  17.622  0.00  0.00    +0.000 N 
ATOM      5  C   UNL     1       7.335   4.871  17.368  0.00  0.00    +0.000 C 
ATOM      6  C   UNL     1       7.069   6.083  16.480  0.00  0.00    +0.000 C 
ATOM      7  C   UNL     1       6.348   5.666  15.197  0.00  0.00    +0.000 C 
ATOM      8  C   UNL     1       5.090   4.849  15.510  0.00  0.00    +0.000 C 
ATOM      9  C   UNL     1       5.415   3.663  16.422  0.00  0.00    +0.000 C 
ENDBRANCH   1   2
BRANCH   1  10
ATOM     10  N   UNL     1       4.902   1.984  19.848  0.00  0.00    +0.000 NA
ATOM     11  H   UNL     1       5.813   2.182  20.252  0.00  0.00    +0.000 HD
ATOM     12  H   UNL     1       5.061   1.282  19.121  0.00  0.00    +0.000 HD
ENDBRANCH   1  10
BRANCH   1  13
ATOM     13  C   UNL     1       3.324   3.909  20.099  0.00  0.00    +0.000 C 
BRANCH  13  14
ATOM     14  C   UNL     1       2.014   4.384  19.424  0.00  0.00    +0.000 C 
ATOM     15  C   UNL     1       1.235   5.326  20.363  0.00  0.00    +0.000 C 
ATOM     16  C   UNL     1       1.934   6.672  20.556  0.00  0.00    +0.000 C 
ATOM     17  C   UNL     1       2.221   7.356  19.223  0.00  0.00    +0.000 C 
ATOM     18  C   UNL     1       2.924   6.440  18.220  0.00  0.00    +0.000 C 
ATOM     19  C   UNL     1       2.223   5.091  18.076  0.00  0.00    +0.000 C 
ENDBRANCH  13  14
ENDBRANCH   1  13
TORSDOF 4
ENDMDL
MODEL 6
REMARK VINA RESULT:      -6.7      1.519      2.051
REMARK  Name = 
REMARK  4 active torsions:
REMARK  status: ('A' for Active; 'I' for Inactive)
REMARK    1  A    between atoms: N_1  and  C_2
REMARK    2  A    between atoms: C_2  and  C_3
REMARK    3  A    between atoms: C_2  and  C_10
REMARK    4  A    between atoms: C_3  and  C_4
REMARK                            x       y       z     vdW  Elec       q    Type
REMARK                         _______ _______ _______ _____ _____    ______ ____
ROOT
ATOM      1  C   UNL     1       4.672   4.265  16.374  0.00  0.00    +0.000 C 
ENDROOT
BRANCH   1   2
ATOM      2  C   UNL     1       5.288   5.697  16.288  0.00  0.00    +0.000 C 
ATOM      3  O   UNL     1       5.255   6.334  15.233  0.00  0.00    +0.000 OA
ATOM      4  N   UNL     1       5.806   6.255  17.453  0.00  0.00    +0.000 N 
ATOM      5  C   UNL     1       6.196   7.661  17.454  0.00  0.00    +0.000 C 
ATOM      6  C   UNL     1       7.714   7.795  17.543  0.00  0.00    +0.000 C 
ATOM      7  C   UNL     1       8.257   7.024  18.748  0.00  0.00    +0.000 C 
ATOM      8  C   UNL     1       7.771   5.571  18.739  0.00  0.00    +0.000 C 
ATOM      9  C   UNL     1       6.245   5.499  18.624  0.00  0.00    +0.000 C 
ENDBRANCH   1   2
BRANCH   1  10
ATOM     10  N   UNL     1       5.772   3.283  16.289  0.00  0.00    +0.000 NA
ATOM     11  H   UNL     1       6.660   3.765  16.181  0.00  0.00    +0.000 HD
ATOM     12  H   UNL     1       5.642   2.733  15.436  0.00  0.00    +0.000 HD
ENDBRANCH   1  10
BRANCH   1  13
ATOM     13  C   UNL     1       3.872   4.118  17.686  0.00  0.00    +0.000 C 
BRANCH  13  14
ATOM     14  C   UNL     1       2.571   4.947  17.818  0.00  0.00    +0.000 C 
ATOM     15  C   UNL     1       1.338   4.023  17.787  0.00  0.00    +0.000 C 
ATOM     16  C   UNL     1       1.224   3.154  19.040  0.00  0.00    +0.000 C 
ATOM     17  C   UNL     1       1.236   3.995  20.313  0.00  0.00    +0.000 C 
ATOM     18  C   UNL     1       2.396   4.989  20.362  0.00  0.00    +0.000 C 
ATOM     19  C   UNL     1       2.506   5.817  19.083  0.00  0.00    +0.000 C 
ENDBRANCH  13  14
ENDBRANCH   1  13
TORSDOF 4
ENDMDL
MODEL 7
REMARK VINA RESULT:      -6.7      2.368      5.780
REMARK  Name = 
REMARK  4 active torsions:
REMARK  status: ('A' for Active; 'I' for Inactive)
REMARK    1  A    between atoms: N_1  and  C_2
REMARK    2  A    between atoms: C_2  and  C_3
REMARK    3  A    between atoms: C_2  and  C_10
REMARK    4  A    between atoms: C_3  and  C_4
REMARK                            x       y       z     vdW  Elec       q    Type
REMARK                         _______ _______ _______ _____ _____    ______ ____
ROOT
ATOM      1  C   UNL     1       2.910   6.551  17.861  0.00  0.00    +0.000 C 
ENDROOT
BRANCH   1   2
ATOM      2  C   UNL     1       2.507   5.831  19.186  0.00  0.00    +0.000 C 
ATOM      3  O   UNL     1       2.904   6.249  20.276  0.00  0.00    +0.000 OA
ATOM      4  N   UNL     1       1.630   4.754  19.102  0.00  0.00    +0.000 N 
ATOM      5  C   UNL     1       1.072   4.196  20.329  0.00  0.00    +0.000 C 
ATOM      6  C   UNL     1       1.650   2.809  20.596  0.00  0.00    +0.000 C 
ATOM      7  C   UNL     1       1.456   1.897  19.384  0.00  0.00    +0.000 C 
ATOM      8  C   UNL     1       1.999   2.550  18.109  0.00  0.00    +0.000 C 
ATOM      9  C   UNL     1       1.403   3.946  17.906  0.00  0.00    +0.000 C 
ENDBRANCH   1   2
BRANCH   1  10
ATOM     10  N   UNL     1       2.578   7.985  17.994  0.00  0.00    +0.000 NA
ATOM     11  H   UNL     1       2.118   8.153  18.885  0.00  0.00    +0.000 HD
ATOM     12  H   UNL     1       1.892   8.220  17.273  0.00  0.00    +0.000 HD
ENDBRANCH   1  10
BRANCH   1  13
ATOM     13  C   UNL     1       4.414   6.335  17.585  0.00  0.00    +0.000 C 
BRANCH  13  14
ATOM     14  C   UNL     1       4.937   4.879  17.624  0.00  0.00    +0.000 C 
ATOM     15  C   UNL     1       4.703   4.185  16.267  0.00  0.00    +0.000 C 
ATOM     16  C   UNL     1       5.589   4.753  15.158  0.00  0.00    +0.000 C 
ATOM     17  C   UNL     1       7.066   4.711  15.537  0.00  0.00    +0.000 C 
ATOM     18  C   UNL     1       7.347   5.316  16.912  0.00  0.00    +0.000 C 
ATOM     19  C   UNL     1       6.424   4.756  17.992  0.00  0.00    +0.000 C 
ENDBRANCH  13  14
ENDBRANCH   1  13
TORSDOF 4
ENDMDL
MODEL 8
REMARK VINA RESULT:      -6.6      2.399      5.780
REMARK  Name = 
REMARK  4 active torsions:
REMARK  status: ('A' for Active; 'I' for Inactive)
REMARK    1  A    between atoms: N_1  and  C_2
REMARK    2  A    between atoms: C_2  and  C_3
REMARK    3  A    between atoms: C_2  and  C_10
REMARK    4  A    between atoms: C_3  and  C_4
REMARK                            x       y       z     vdW  Elec       q    Type
REMARK                         _______ _______ _______ _____ _____    ______ ____
ROOT
ATOM      1  C   UNL     1       2.622   6.815  17.965  0.00  0.00    +0.000 C 
ENDROOT
BRANCH   1   2
ATOM      2  C   UNL     1       2.278   5.960  19.225  0.00  0.00    +0.000 C 
ATOM      3  O   UNL     1       2.570   6.358  20.355  0.00  0.00    +0.000 OA
ATOM      4  N   UNL     1       1.569   4.778  19.036  0.00  0.00    +0.000 N 
ATOM      5  C   UNL     1       1.052   4.067  20.200  0.00  0.00    +0.000 C 
ATOM      6  C   UNL     1       1.815   2.761  20.412  0.00  0.00    +0.000 C 
ATOM      7  C   UNL     1       1.799   1.912  19.139  0.00  0.00    +0.000 C 
ATOM      8  C   UNL     1       2.289   2.718  17.932  0.00  0.00    +0.000 C 
ATOM      9  C   UNL     1       1.506   4.025  17.785  0.00  0.00    +0.000 C 
ENDBRANCH   1   2
BRANCH   1  10
ATOM     10  N   UNL     1       2.029   8.157  18.141  0.00  0.00    +0.000 NA
ATOM     11  H   UNL     1       1.622   8.474  17.265  0.00  0.00    +0.000 HD
ATOM     12  H   UNL     1       2.785   8.812  18.355  0.00  0.00    +0.000 HD
ENDBRANCH   1  10
BRANCH   1  13
ATOM     13  C   UNL     1       4.153   6.885  17.782  0.00  0.00    +0.000 C 
BRANCH  13  14
ATOM     14  C   UNL     1       4.872   5.587  17.341  0.00  0.00    +0.000 C 
ATOM     15  C   UNL     1       6.074   5.917  16.435  0.00  0.00    +0.000 C 
ATOM     16  C   UNL     1       7.211   6.603  17.193  0.00  0.00    +0.000 C 
ATOM     17  C   UNL     1       7.657   5.785  18.402  0.00  0.00    +0.000 C 
ATOM     18  C   UNL     1       6.493   5.360  19.298  0.00  0.00    +0.000 C 
ATOM     19  C   UNL     1       5.359   4.712  18.507  0.00  0.00    +0.000 C 
ENDBRANCH  13  14
ENDBRANCH   1  13
TORSDOF 4
ENDMDL
MODEL 9
REMARK VINA RESULT:      -6.6      2.289      3.592
REMARK  Name = 
REMARK  4 active torsions:
REMARK  status: ('A' for Active; 'I' for Inactive)
REMARK    1  A    between atoms: N_1  and  C_2
REMARK    2  A    between atoms: C_2  and  C_3
REMARK    3  A    between atoms: C_2  and  C_10
REMARK    4  A    between atoms: C_3  and  C_4
REMARK                            x       y       z     vdW  Elec       q    Type
REMARK                         _______ _______ _______ _____ _____    ______ ____
ROOT
ATOM      1  C   UNL     1       2.816   5.644  19.591  0.00  0.00    +0.000 C 
ENDROOT
BRANCH   1   2
ATOM      2  C   UNL     1       3.442   6.513  18.456  0.00  0.00    +0.000 C 
ATOM      3  O   UNL     1       2.943   7.597  18.146  0.00  0.00    +0.000 OA
ATOM      4  N   UNL     1       4.617   6.062  17.862  0.00  0.00    +0.000 N 
ATOM      5  C   UNL     1       5.337   6.947  16.952  0.00  0.00    +0.000 C 
ATOM      6  C   UNL     1       5.236   6.435  15.518  0.00  0.00    +0.000 C 
ATOM      7  C   UNL     1       5.700   4.980  15.427  0.00  0.00    +0.000 C 
ATOM      8  C   UNL     1       4.963   4.101  16.442  0.00  0.00    +0.000 C 
ATOM      9  C   UNL     1       5.079   4.676  17.857  0.00  0.00    +0.000 C 
ENDBRANCH   1   2
BRANCH   1  10
ATOM     10  N   UNL     1       2.316   6.550  20.646  0.00  0.00    +0.000 NA
ATOM     11  H   UNL     1       2.763   7.459  20.562  0.00  0.00    +0.000 HD
ATOM     12  H   UNL     1       2.607   6.173  21.552  0.00  0.00    +0.000 HD
ENDBRANCH   1  10
BRANCH   1  13
ATOM     13  C   UNL     1       1.689   4.761  19.013  0.00  0.00    +0.000 C 
BRANCH  13  14
ATOM     14  C   UNL     1       1.390   3.429  19.744  0.00  0.00    +0.000 C 
ATOM     15  C   UNL     1       1.076   2.315  18.726  0.00  0.00    +0.000 C 
ATOM     16  C   UNL     1       2.303   1.899  17.914  0.00  0.00    +0.000 C 
ATOM     17  C   UNL     1       3.466   1.495  18.815  0.00  0.00    +0.000 C 
ATOM     18  C   UNL     1       3.772   2.530  19.897  0.00  0.00    +0.000 C 
ATOM     19  C   UNL     1       2.522   2.952  20.667  0.00  0.00    +0.000 C 
ENDBRANCH  13  14
ENDBRANCH   1  13
TORSDOF 4
ENDMDL
