MODEL 1
REMARK VINA RESULT:      -8.3      0.000      0.000
REMARK  Name = 
REMARK  5 active torsions:
REMARK  status: ('A' for Active; 'I' for Inactive)
REMARK    1  A    between atoms: C_1  and  O_2
REMARK    2  A    between atoms: O_2  and  C_3
REMARK    3  A    between atoms: C_7  and  C_8
REMARK    4  A    between atoms: C_8  and  C_9
REMARK    5  A    between atoms: N_14  and  C_15
REMARK                            x       y       z     vdW  Elec       q    Type
REMARK                         _______ _______ _______ _____ _____    ______ ____
ROOT
ATOM      1  C   UNL     1       5.395   6.067  16.325  0.00  0.00    +0.000 C 
ATOM      2  O   UNL     1       5.191   6.934  15.469  0.00  0.00    +0.000 OA
ATOM      3  N   UNL     1       4.810   6.136  17.583  0.00  0.00    +0.000 N 
ATOM      4  C   UNL     1       3.889   7.237  17.901  0.00  0.00    +0.000 C 
ATOM      5  C   UNL     1       2.413   6.813  18.002  0.00  0.00    +0.000 C 
ATOM      6  N   UNL     1       2.136   5.838  19.056  0.00  0.00    +0.000 N 
ATOM      7  C   UNL     1       1.934   6.222  20.434  0.00  0.00    +0.000 C 
ATOM      8  C   UNL     1       2.444   4.514  18.816  0.00  0.00    +0.000 A 
ATOM      9  N   UNL     1       1.425   3.633  18.859  0.00  0.00    +0.000 NA
ATOM     10  C   UNL     1       1.666   2.358  18.487  0.00  0.00    +0.000 A 
ATOM     11  C   UNL     1       2.902   1.894  18.083  0.00  0.00    +0.000 A 
ATOM     12  C   UNL     1       3.961   2.785  18.104  0.00  0.00    +0.000 A 
ATOM     13  C   UNL     1       3.745   4.116  18.487  0.00  0.00    +0.000 A 
ATOM     14  C   UNL     1       4.887   5.084  18.586  0.00  0.00    +0.000 C 
ENDROOT
BRANCH   1  15
ATOM     15  C   UNL     1       6.296   4.881  15.987  0.00  0.00    +0.000 C 
BRANCH  15  20
ATOM     16  C   UNL     1       5.896   3.450  12.464  0.00  0.00    +0.000 A 
ATOM     17  C   UNL     1       6.948   4.076  11.797  0.00  0.00    +0.000 A 
ATOM     18  C   UNL     1       7.776   4.978  12.461  0.00  0.00    +0.000 A 
ATOM     19  C   UNL     1       7.567   5.256  13.812  0.00  0.00    +0.000 A 
ATOM     20  C   UNL     1       6.534   4.622  14.512  0.00  0.00    +0.000 A 
ATOM     21  C   UNL     1       5.680   3.738  13.816  0.00  0.00    +0.000 A 
BRANCH  16  23
ATOM     22  C   UNL     1       3.998   3.093  11.070  0.00  0.00    +0.000 C 
ATOM     23  O   UNL     1       5.169   2.582  11.700  0.00  0.00    +0.000 OA
ENDBRANCH  16  23
ENDBRANCH  15  20
ENDBRANCH   1  15
TORSDOF 3
ENDMDL
MODEL 2
REMARK VINA RESULT:      -7.5      1.438      2.827
REMARK  Name = 
REMARK  5 active torsions:
REMARK  status: ('A' for Active; 'I' for Inactive)
REMARK    1  A    between atoms: C_1  and  O_2
REMARK    2  A    between atoms: O_2  and  C_3
REMARK    3  A    between atoms: C_7  and  C_8
REMARK    4  A    between atoms: C_8  and  C_9
REMARK    5  A    between atoms: N_14  and  C_15
REMARK                            x       y       z     vdW  Elec       q    Type
REMARK                         _______ _______ _______ _____ _____    ______ ____
ROOT
ATOM      1  C   UNL     1       5.585   4.462  17.127  0.00  0.00    +0.000 C 
ATOM      2  O   UNL     1       6.661   4.020  17.544  0.00  0.00    +0.000 OA
ATOM      3  N   UNL     1       4.374   4.065  17.679  0.00  0.00    +0.000 N 
ATOM      4  C   UNL     1       4.360   3.133  18.816  0.00  0.00    +0.000 C 
ATOM      5  C   UNL     1       3.964   3.781  20.155  0.00  0.00    +0.000 C 
ATOM      6  N   UNL     1       2.616   4.345  20.176  0.00  0.00    +0.000 N 
ATOM      7  C   UNL     1       1.442   3.541  20.422  0.00  0.00    +0.000 C 
ATOM      8  C   UNL     1       2.416   5.576  19.583  0.00  0.00    +0.000 A 
ATOM      9  N   UNL     1       1.964   6.569  20.375  0.00  0.00    +0.000 NA
ATOM     10  C   UNL     1       1.897   7.815  19.863  0.00  0.00    +0.000 A 
ATOM     11  C   UNL     1       2.244   8.134  18.565  0.00  0.00    +0.000 A 
ATOM     12  C   UNL     1       2.643   7.101  17.734  0.00  0.00    +0.000 A 
ATOM     13  C   UNL     1       2.722   5.795  18.235  0.00  0.00    +0.000 A 
ATOM     14  C   UNL     1       3.084   4.647  17.339  0.00  0.00    +0.000 C 
ENDROOT
BRANCH   1  15
ATOM     15  C   UNL     1       5.587   5.482  15.991  0.00  0.00    +0.000 C 
BRANCH  15  20
ATOM     16  C   UNL     1       5.823   3.581  12.681  0.00  0.00    +0.000 A 
ATOM     17  C   UNL     1       7.052   4.028  12.199  0.00  0.00    +0.000 A 
ATOM     18  C   UNL     1       7.801   4.960  12.916  0.00  0.00    +0.000 A 
ATOM     19  C   UNL     1       7.333   5.446  14.136  0.00  0.00    +0.000 A 
ATOM     20  C   UNL     1       6.113   4.994  14.655  0.00  0.00    +0.000 A 
ATOM     21  C   UNL     1       5.348   4.078  13.900  0.00  0.00    +0.000 A 
BRANCH  16  23
ATOM     22  C   UNL     1       4.062   3.105  11.151  0.00  0.00    +0.000 C 
ATOM     23  O   UNL     1       5.197   2.663  11.888  0.00  0.00    +0.000 OA
ENDBRANCH  16  23
ENDBRANCH  15  20
ENDBRANCH   1  15
TORSDOF 3
ENDMDL
MODEL 3
REMARK VINA RESULT:      -6.8      3.677      6.570
REMARK  Name = 
REMARK  5 active torsions:
REMARK  status: ('A' for Active; 'I' for Inactive)
REMARK    1  A    between atoms: C_1  and  O_2
REMARK    2  A    between atoms: O_2  and  C_3
REMARK    3  A    between atoms: C_7  and  C_8
REMARK    4  A    between atoms: C_8  and  C_9
REMARK    5  A    between atoms: N_14  and  C_15
REMARK                            x       y       z     vdW  Elec       q    Type
REMARK                         _______ _______ _______ _____ _____    ______ ____
ROOT
ATOM      1  C   UNL     1       4.194   6.429  17.549  0.00  0.00    +0.000 C 
ATOM      2  O   UNL     1       5.184   7.135  17.765  0.00  0.00    +0.000 OA
ATOM      3  N   UNL     1       4.256   5.044  17.629  0.00  0.00    +0.000 N 
ATOM      4  C   UNL     1       5.514   4.392  18.024  0.00  0.00    +0.000 C 
ATOM      5  C   UNL     1       5.487   3.778  19.435  0.00  0.00    +0.000 C 
ATOM      6  N   UNL     1       4.497   2.718  19.614  0.00  0.00    +0.000 N 
ATOM      7  C   UNL     1       4.744   1.351  19.218  0.00  0.00    +0.000 C 
ATOM      8  C   UNL     1       3.180   3.084  19.807  0.00  0.00    +0.000 A 
ATOM      9  N   UNL     1       2.603   2.699  20.963  0.00  0.00    +0.000 NA
ATOM     10  C   UNL     1       1.368   3.162  21.247  0.00  0.00    +0.000 A 
ATOM     11  C   UNL     1       0.647   3.993  20.412  0.00  0.00    +0.000 A 
ATOM     12  C   UNL     1       1.214   4.332  19.196  0.00  0.00    +0.000 A 
ATOM     13  C   UNL     1       2.494   3.866  18.871  0.00  0.00    +0.000 A 
ATOM     14  C   UNL     1       3.104   4.160  17.531  0.00  0.00    +0.000 C 
ENDROOT
BRANCH   1  15
ATOM     15  C   UNL     1       2.863   7.096  17.205  0.00  0.00    +0.000 C 
BRANCH  15  20
ATOM     16  C   UNL     1       0.926   9.838  19.035  0.00  0.00    +0.000 A 
ATOM     17  C   UNL     1       0.981   9.376  20.350  0.00  0.00    +0.000 A 
ATOM     18  C   UNL     1       1.615   8.174  20.656  0.00  0.00    +0.000 A 
ATOM     19  C   UNL     1       2.216   7.422  19.647  0.00  0.00    +0.000 A 
ATOM     20  C   UNL     1       2.197   7.875  18.322  0.00  0.00    +0.000 A 
ATOM     21  C   UNL     1       1.519   9.077  18.021  0.00  0.00    +0.000 A 
BRANCH  16  23
ATOM     22  C   UNL     1      -1.138  11.018  18.905  0.00  0.00    +0.000 C 
ATOM     23  O   UNL     1       0.286  11.033  18.874  0.00  0.00    +0.000 OA
ENDBRANCH  16  23
ENDBRANCH  15  20
ENDBRANCH   1  15
TORSDOF 3
ENDMDL
MODEL 4
REMARK VINA RESULT:      -6.7      4.534      7.275
REMARK  Name = 
REMARK  5 active torsions:
REMARK  status: ('A' for Active; 'I' for Inactive)
REMARK    1  A    between atoms: C_1  and  O_2
REMARK    2  A    between atoms: O_2  and  C_3
REMARK    3  A    between atoms: C_7  and  C_8
REMARK    4  A    between atoms: C_8  and  C_9
REMARK    5  A    between atoms: N_14  and  C_15
REMARK                            x       y       z     vdW  Elec       q    Type
REMARK                         _______ _______ _______ _____ _____    ______ ____
ROOT
ATOM      1  C   UNL     1       1.677   8.209  19.673  0.00  0.00    +0.000 C 
ATOM      2  O   UNL     1       1.930   7.463  20.624  0.00  0.00    +0.000 OA
ATOM      3  N   UNL     1       0.681   9.174  19.751  0.00  0.00    +0.000 N 
ATOM      4  C   UNL     1      -0.065   9.354  21.005  0.00  0.00    +0.000 C 
ATOM      5  C   UNL     1       0.282  10.646  21.765  0.00  0.00    +0.000 C 
ATOM      6  N   UNL     1      -0.010  11.875  21.030  0.00  0.00    +0.000 N 
ATOM      7  C   UNL     1      -1.330  12.462  20.995  0.00  0.00    +0.000 C 
ATOM      8  C   UNL     1       0.877  12.276  20.051  0.00  0.00    +0.000 A 
ATOM      9  N   UNL     1       1.464  13.478  20.214  0.00  0.00    +0.000 NA
ATOM     10  C   UNL     1       2.441  13.835  19.356  0.00  0.00    +0.000 A 
ATOM     11  C   UNL     1       2.865  13.049  18.302  0.00  0.00    +0.000 A 
ATOM     12  C   UNL     1       2.215  11.845  18.097  0.00  0.00    +0.000 A 
ATOM     13  C   UNL     1       1.195  11.446  18.970  0.00  0.00    +0.000 A 
ATOM     14  C   UNL     1       0.427  10.179  18.730  0.00  0.00    +0.000 C 
ENDROOT
BRANCH   1  15
ATOM     15  C   UNL     1       2.490   8.081  18.387  0.00  0.00    +0.000 C 
BRANCH  15  20
ATOM     16  C   UNL     1       2.340   4.326  17.681  0.00  0.00    +0.000 A 
ATOM     17  C   UNL     1       3.668   4.060  17.349  0.00  0.00    +0.000 A 
ATOM     18  C   UNL     1       4.614   5.082  17.323  0.00  0.00    +0.000 A 
ATOM     19  C   UNL     1       4.243   6.388  17.644  0.00  0.00    +0.000 A 
ATOM     20  C   UNL     1       2.922   6.678  18.006  0.00  0.00    +0.000 A 
ATOM     21  C   UNL     1       1.966   5.638  17.992  0.00  0.00    +0.000 A 
BRANCH  16  23
ATOM     22  C   UNL     1       1.828   2.186  18.591  0.00  0.00    +0.000 C 
ATOM     23  O   UNL     1       1.520   3.234  17.678  0.00  0.00    +0.000 OA
ENDBRANCH  16  23
ENDBRANCH  15  20
ENDBRANCH   1  15
TORSDOF 3
ENDMDL
MODEL 5
REMARK VINA RESULT:      -6.7      3.572      7.082
REMARK  Name = 
REMARK  5 active torsions:
REMARK  status: ('A' for Active; 'I' for Inactive)
REMARK    1  A    between atoms: C_1  and  O_2
REMARK    2  A    between atoms: O_2  and  C_3
REMARK    3  A    between atoms: C_7  and  C_8
REMARK    4  A    between atoms: C_8  and  C_9
REMARK    5  A    between atoms: N_14  and  C_15
REMARK                            x       y       z     vdW  Elec       q    Type
REMARK                         _______ _______ _______ _____ _____    ______ ____
ROOT
ATOM      1  C   UNL     1       1.616   5.150  20.484  0.00  0.00    +0.000 C 
ATOM      2  O   UNL     1       0.384   5.059  20.472  0.00  0.00    +0.000 OA
ATOM      3  N   UNL     1       2.429   4.067  20.177  0.00  0.00    +0.000 N 
ATOM      4  C   UNL     1       1.822   2.787  19.783  0.00  0.00    +0.000 C 
ATOM      5  C   UNL     1       1.987   2.446  18.291  0.00  0.00    +0.000 C 
ATOM      6  N   UNL     1       3.374   2.299  17.856  0.00  0.00    +0.000 N 
ATOM      7  C   UNL     1       4.118   1.074  18.034  0.00  0.00    +0.000 C 
ATOM      8  C   UNL     1       4.107   3.445  17.619  0.00  0.00    +0.000 A 
ATOM      9  N   UNL     1       4.588   3.615  16.371  0.00  0.00    +0.000 NA
ATOM     10  C   UNL     1       5.182   4.788  16.069  0.00  0.00    +0.000 A 
ATOM     11  C   UNL     1       5.346   5.823  16.970  0.00  0.00    +0.000 A 
ATOM     12  C   UNL     1       4.912   5.620  18.268  0.00  0.00    +0.000 A 
ATOM     13  C   UNL     1       4.292   4.412  18.614  0.00  0.00    +0.000 A 
ATOM     14  C   UNL     1       3.875   4.138  20.029  0.00  0.00    +0.000 C 
ENDROOT
BRANCH   1  15
ATOM     15  C   UNL     1       2.261   6.492  20.825  0.00  0.00    +0.000 C 
BRANCH  15  20
ATOM     16  C   UNL     1       0.793   9.808  19.611  0.00  0.00    +0.000 A 
ATOM     17  C   UNL     1       1.194   9.809  18.276  0.00  0.00    +0.000 A 
ATOM     18  C   UNL     1       1.958   8.763  17.762  0.00  0.00    +0.000 A 
ATOM     19  C   UNL     1       2.320   7.692  18.579  0.00  0.00    +0.000 A 
ATOM     20  C   UNL     1       1.908   7.654  19.917  0.00  0.00    +0.000 A 
ATOM     21  C   UNL     1       1.166   8.738  20.433  0.00  0.00    +0.000 A 
BRANCH  16  23
ATOM     22  C   UNL     1      -0.102  11.938  19.036  0.00  0.00    +0.000 C 
ATOM     23  O   UNL     1       0.041  10.885  19.984  0.00  0.00    +0.000 OA
ENDBRANCH  16  23
ENDBRANCH  15  20
ENDBRANCH   1  15
TORSDOF 3
ENDMDL
MODEL 6
REMARK VINA RESULT:      -6.7      3.689      6.799
REMARK  Name = 
REMARK  5 active torsions:
REMARK  status: ('A' for Active; 'I' for Inactive)
REMARK    1  A    between atoms: C_1  and  O_2
REMARK    2  A    between atoms: O_2  and  C_3
REMARK    3  A    between atoms: C_7  and  C_8
REMARK    4  A    between atoms: C_8  and  C_9
REMARK    5  A    between atoms: N_14  and  C_15
REMARK                            x       y       z     vdW  Elec       q    Type
REMARK                         _______ _______ _______ _____ _____    ______ ____
ROOT
ATOM      1  C   UNL     1       3.766   6.485  17.566  0.00  0.00    +0.000 C 
ATOM      2  O   UNL     1       4.725   7.255  17.687  0.00  0.00    +0.000 OA
ATOM      3  N   UNL     1       3.927   5.107  17.636  0.00  0.00    +0.000 N 
ATOM      4  C   UNL     1       5.256   4.540  17.907  0.00  0.00    +0.000 C 
ATOM      5  C   UNL     1       5.405   3.931  19.312  0.00  0.00    +0.000 C 
ATOM      6  N   UNL     1       4.508   2.810  19.583  0.00  0.00    +0.000 N 
ATOM      7  C   UNL     1       4.804   1.460  19.162  0.00  0.00    +0.000 C 
ATOM      8  C   UNL     1       3.194   3.090  19.903  0.00  0.00    +0.000 A 
ATOM      9  N   UNL     1       2.757   2.672  21.108  0.00  0.00    +0.000 NA
ATOM     10  C   UNL     1       1.527   3.055  21.510  0.00  0.00    +0.000 A 
ATOM     11  C   UNL     1       0.677   3.834  20.751  0.00  0.00    +0.000 A 
ATOM     12  C   UNL     1       1.101   4.205  19.486  0.00  0.00    +0.000 A 
ATOM     13  C   UNL     1       2.372   3.822  19.038  0.00  0.00    +0.000 A 
ATOM     14  C   UNL     1       2.830   4.150  17.648  0.00  0.00    +0.000 C 
ENDROOT
BRANCH   1  15
ATOM     15  C   UNL     1       2.368   7.062  17.352  0.00  0.00    +0.000 C 
BRANCH  15  20
ATOM     16  C   UNL     1       1.425   8.765  20.643  0.00  0.00    +0.000 A 
ATOM     17  C   UNL     1       1.083  10.042  20.199  0.00  0.00    +0.000 A 
ATOM     18  C   UNL     1       1.177  10.374  18.849  0.00  0.00    +0.000 A 
ATOM     19  C   UNL     1       1.602   9.424  17.921  0.00  0.00    +0.000 A 
ATOM     20  C   UNL     1       1.927   8.127  18.337  0.00  0.00    +0.000 A 
ATOM     21  C   UNL     1       1.863   7.816  19.714  0.00  0.00    +0.000 A 
BRANCH  16  23
ATOM     22  C   UNL     1       0.250   9.303  22.644  0.00  0.00    +0.000 C 
ATOM     23  O   UNL     1       1.278   8.568  21.986  0.00  0.00    +0.000 OA
ENDBRANCH  16  23
ENDBRANCH  15  20
ENDBRANCH   1  15
TORSDOF 3
ENDMDL
MODEL 7
REMARK VINA RESULT:      -6.6      5.049      7.622
REMARK  Name = 
REMARK  5 active torsions:
REMARK  status: ('A' for Active; 'I' for Inactive)
REMARK    1  A    between atoms: C_1  and  O_2
REMARK    2  A    between atoms: O_2  and  C_3
REMARK    3  A    between atoms: C_7  and  C_8
REMARK    4  A    between atoms: C_8  and  C_9
REMARK    5  A    between atoms: N_14  and  C_15
REMARK                            x       y       z     vdW  Elec       q    Type
REMARK                         _______ _______ _______ _____ _____    ______ ____
ROOT
ATOM      1  C   UNL     1       1.722  10.335  18.297  0.00  0.00    +0.000 C 
ATOM      2  O   UNL     1       2.671  11.054  17.969  0.00  0.00    +0.000 OA
ATOM      3  N   UNL     1       0.802  10.738  19.257  0.00  0.00    +0.000 N 
ATOM      4  C   UNL     1       0.922  12.069  19.869  0.00  0.00    +0.000 C 
ATOM      5  C   UNL     1      -0.156  13.069  19.417  0.00  0.00    +0.000 C 
ATOM      6  N   UNL     1      -1.523  12.675  19.752  0.00  0.00    +0.000 N 
ATOM      7  C   UNL     1      -2.102  12.914  21.053  0.00  0.00    +0.000 C 
ATOM      8  C   UNL     1      -2.142  11.731  18.957  0.00  0.00    +0.000 A 
ATOM      9  N   UNL     1      -3.273  12.109  18.328  0.00  0.00    +0.000 NA
ATOM     10  C   UNL     1      -3.821  11.262  17.433  0.00  0.00    +0.000 A 
ATOM     11  C   UNL     1      -3.304  10.016  17.135  0.00  0.00    +0.000 A 
ATOM     12  C   UNL     1      -2.181   9.603  17.832  0.00  0.00    +0.000 A 
ATOM     13  C   UNL     1      -1.589  10.459  18.769  0.00  0.00    +0.000 A 
ATOM     14  C   UNL     1      -0.414  10.011  19.588  0.00  0.00    +0.000 C 
ENDROOT
BRANCH   1  15
ATOM     15  C   UNL     1       1.545   8.977  17.620  0.00  0.00    +0.000 C 
BRANCH  15  20
ATOM     16  C   UNL     1       4.310   6.347  17.872  0.00  0.00    +0.000 A 
ATOM     17  C   UNL     1       3.991   5.735  19.083  0.00  0.00    +0.000 A 
ATOM     18  C   UNL     1       2.908   6.176  19.840  0.00  0.00    +0.000 A 
ATOM     19  C   UNL     1       2.117   7.231  19.384  0.00  0.00    +0.000 A 
ATOM     20  C   UNL     1       2.399   7.846  18.158  0.00  0.00    +0.000 A 
ATOM     21  C   UNL     1       3.523   7.413  17.420  0.00  0.00    +0.000 A 
BRANCH  16  23
ATOM     22  C   UNL     1       5.347   5.786  15.803  0.00  0.00    +0.000 C 
ATOM     23  O   UNL     1       5.388   5.812  17.227  0.00  0.00    +0.000 OA
ENDBRANCH  16  23
ENDBRANCH  15  20
ENDBRANCH   1  15
TORSDOF 3
ENDMDL
MODEL 8
REMARK VINA RESULT:      -6.6      5.241      8.005
REMARK  Name = 
REMARK  5 active torsions:
REMARK  status: ('A' for Active; 'I' for Inactive)
REMARK    1  A    between atoms: C_1  and  O_2
REMARK    2  A    between atoms: O_2  and  C_3
REMARK    3  A    between atoms: C_7  and  C_8
REMARK    4  A    between atoms: C_8  and  C_9
REMARK    5  A    between atoms: N_14  and  C_15
REMARK                            x       y       z     vdW  Elec       q    Type
REMARK                         _______ _______ _______ _____ _____    ______ ____
ROOT
ATOM      1  C   UNL     1       1.693  10.385  18.338  0.00  0.00    +0.000 C 
ATOM      2  O   UNL     1       2.633  11.127  18.038  0.00  0.00    +0.000 OA
ATOM      3  N   UNL     1       0.782  10.730  19.328  0.00  0.00    +0.000 N 
ATOM      4  C   UNL     1       0.901  12.027  20.010  0.00  0.00    +0.000 C 
ATOM      5  C   UNL     1      -0.189  13.043  19.625  0.00  0.00    +0.000 C 
ATOM      6  N   UNL     1      -1.549  12.622  19.953  0.00  0.00    +0.000 N 
ATOM      7  C   UNL     1      -2.115  12.787  21.272  0.00  0.00    +0.000 C 
ATOM      8  C   UNL     1      -2.172  11.718  19.116  0.00  0.00    +0.000 A 
ATOM      9  N   UNL     1      -3.312  12.122  18.521  0.00  0.00    +0.000 NA
ATOM     10  C   UNL     1      -3.866  11.321  17.587  0.00  0.00    +0.000 A 
ATOM     11  C   UNL     1      -3.345  10.096  17.217  0.00  0.00    +0.000 A 
ATOM     12  C   UNL     1      -2.212   9.654  17.878  0.00  0.00    +0.000 A 
ATOM     13  C   UNL     1      -1.613  10.462  18.853  0.00  0.00    +0.000 A 
ATOM     14  C   UNL     1      -0.427   9.978  19.633  0.00  0.00    +0.000 C 
ENDROOT
BRANCH   1  15
ATOM     15  C   UNL     1       1.516   9.065  17.591  0.00  0.00    +0.000 C 
BRANCH  15  20
ATOM     16  C   UNL     1       2.523   6.124  19.818  0.00  0.00    +0.000 A 
ATOM     17  C   UNL     1       3.705   5.711  19.203  0.00  0.00    +0.000 A 
ATOM     18  C   UNL     1       4.173   6.353  18.059  0.00  0.00    +0.000 A 
ATOM     19  C   UNL     1       3.468   7.430  17.521  0.00  0.00    +0.000 A 
ATOM     20  C   UNL     1       2.293   7.881  18.133  0.00  0.00    +0.000 A 
ATOM     21  C   UNL     1       1.811   7.197  19.271  0.00  0.00    +0.000 A 
BRANCH  16  23
ATOM     22  C   UNL     1       1.505   4.180  20.742  0.00  0.00    +0.000 C 
ATOM     23  O   UNL     1       2.183   5.417  20.935  0.00  0.00    +0.000 OA
ENDBRANCH  16  23
ENDBRANCH  15  20
ENDBRANCH   1  15
TORSDOF 3
ENDMDL
MODEL 9
REMARK VINA RESULT:      -6.5      4.358      7.168
REMARK  Name = 
REMARK  5 active torsions:
REMARK  status: ('A' for Active; 'I' for Inactive)
REMARK    1  A    between atoms: C_1  and  O_2
REMARK    2  A    between atoms: O_2  and  C_3
REMARK    3  A    between atoms: C_7  and  C_8
REMARK    4  A    between atoms: C_8  and  C_9
REMARK    5  A    between atoms: N_14  and  C_15
REMARK                            x       y       z     vdW  Elec       q    Type
REMARK                         _______ _______ _______ _____ _____    ______ ____
ROOT
ATOM      1  C   UNL     1       1.713   8.123  19.674  0.00  0.00    +0.000 C 
ATOM      2  O   UNL     1       1.981   7.390  20.631  0.00  0.00    +0.000 OA
ATOM      3  N   UNL     1       0.722   9.093  19.755  0.00  0.00    +0.000 N 
ATOM      4  C   UNL     1      -0.001   9.294  21.019  0.00  0.00    +0.000 C 
ATOM      5  C   UNL     1       0.365  10.597  21.752  0.00  0.00    +0.000 C 
ATOM      6  N   UNL     1       0.064  11.815  21.004  0.00  0.00    +0.000 N 
ATOM      7  C   UNL     1      -1.254  12.407  20.983  0.00  0.00    +0.000 C 
ATOM      8  C   UNL     1       0.934  12.197  20.003  0.00  0.00    +0.000 A 
ATOM      9  N   UNL     1       1.528  13.400  20.137  0.00  0.00    +0.000 NA
ATOM     10  C   UNL     1       2.491  13.740  19.255  0.00  0.00    +0.000 A 
ATOM     11  C   UNL     1       2.893  12.936  18.206  0.00  0.00    +0.000 A 
ATOM     12  C   UNL     1       2.235  11.731  18.031  0.00  0.00    +0.000 A 
ATOM     13  C   UNL     1       1.229  11.350  18.929  0.00  0.00    +0.000 A 
ATOM     14  C   UNL     1       0.452  10.083  18.723  0.00  0.00    +0.000 C 
ENDROOT
BRANCH   1  15
ATOM     15  C   UNL     1       2.502   7.971  18.375  0.00  0.00    +0.000 C 
BRANCH  15  20
ATOM     16  C   UNL     1       4.754   5.038  17.401  0.00  0.00    +0.000 A 
ATOM     17  C   UNL     1       3.830   3.997  17.336  0.00  0.00    +0.000 A 
ATOM     18  C   UNL     1       2.486   4.220  17.629  0.00  0.00    +0.000 A 
ATOM     19  C   UNL     1       2.047   5.497  17.978  0.00  0.00    +0.000 A 
ATOM     20  C   UNL     1       2.950   6.566  18.025  0.00  0.00    +0.000 A 
ATOM     21  C   UNL     1       4.315   6.317  17.762  0.00  0.00    +0.000 A 
BRANCH  16  23
ATOM     22  C   UNL     1       6.841   5.675  16.447  0.00  0.00    +0.000 C 
ATOM     23  O   UNL     1       6.035   4.688  17.082  0.00  0.00    +0.000 OA
ENDBRANCH  16  23
ENDBRANCH  15  20
ENDBRANCH   1  15
TORSDOF 3
ENDMDL
