MODEL 1
REMARK VINA RESULT:      -7.5      0.000      0.000
REMARK  Name = 
REMARK  3 active torsions:
REMARK  status: ('A' for Active; 'I' for Inactive)
REMARK    1  A    between atoms: C_1  and  O_2
REMARK    2  A    between atoms: O_2  and  C_3
REMARK    3  A    between atoms: C_11  and  C_12
REMARK                            x       y       z     vdW  Elec       q    Type
REMARK                         _______ _______ _______ _____ _____    ______ ____
ROOT
ATOM      1  C   UNL     1       6.223   6.241  16.620  0.00  0.00    +0.000 A 
ATOM      2  C   UNL     1       6.890   5.193  15.971  0.00  0.00    +0.000 A 
ATOM      3  C   UNL     1       6.299   3.936  15.850  0.00  0.00    +0.000 A 
ATOM      4  C   UNL     1       5.025   3.723  16.371  0.00  0.00    +0.000 A 
ATOM      5  C   UNL     1       4.349   4.777  16.998  0.00  0.00    +0.000 A 
ATOM      6  C   UNL     1       2.997   4.578  17.539  0.00  0.00    +0.000 A 
ATOM      7  O   UNL     1       2.455   3.481  17.478  0.00  0.00    +0.000 OA
ATOM      8  O   UNL     1       2.378   5.643  18.105  0.00  0.00    +0.000 OA
ATOM      9  C   UNL     1       3.012   6.831  18.140  0.00  0.00    +0.000 A 
ATOM     10  N   UNL     1       4.198   7.076  17.704  0.00  0.00    +0.000 NA
ATOM     11  C   UNL     1       4.926   6.039  17.125  0.00  0.00    +0.000 A 
ENDROOT
BRANCH   9  12
ATOM     12  C   UNL     1       2.156   7.894  18.733  0.00  0.00    +0.000 A 
ATOM     13  C   UNL     1       1.696   8.981  17.983  0.00  0.00    +0.000 A 
ATOM     14  C   UNL     1       0.943   9.984  18.597  0.00  0.00    +0.000 A 
ATOM     15  C   UNL     1       0.641   9.905  19.957  0.00  0.00    +0.000 A 
ATOM     16  C   UNL     1       1.074   8.813  20.705  0.00  0.00    +0.000 A 
ATOM     17  C   UNL     1       1.829   7.810  20.096  0.00  0.00    +0.000 A 
ENDBRANCH   9  12
BRANCH   1  19
ATOM     18  C   UNL     1       7.781   7.609  17.781  0.00  0.00    +0.000 C 
ATOM     19  O   UNL     1       6.940   7.412  16.649  0.00  0.00    +0.000 OA
ENDBRANCH   1  19
TORSDOF 2
ENDMDL
MODEL 2
REMARK VINA RESULT:      -7.5      0.176      1.121
REMARK  Name = 
REMARK  3 active torsions:
REMARK  status: ('A' for Active; 'I' for Inactive)
REMARK    1  A    between atoms: C_1  and  O_2
REMARK    2  A    between atoms: O_2  and  C_3
REMARK    3  A    between atoms: C_11  and  C_12
REMARK                            x       y       z     vdW  Elec       q    Type
REMARK                         _______ _______ _______ _____ _____    ______ ____
ROOT
ATOM      1  C   UNL     1       6.103   6.295  16.631  0.00  0.00    +0.000 A 
ATOM      2  C   UNL     1       6.761   5.237  15.988  0.00  0.00    +0.000 A 
ATOM      3  C   UNL     1       6.168   3.978  15.895  0.00  0.00    +0.000 A 
ATOM      4  C   UNL     1       4.902   3.774  16.436  0.00  0.00    +0.000 A 
ATOM      5  C   UNL     1       4.234   4.838  17.056  0.00  0.00    +0.000 A 
ATOM      6  C   UNL     1       2.889   4.647  17.618  0.00  0.00    +0.000 A 
ATOM      7  O   UNL     1       2.347   3.550  17.581  0.00  0.00    +0.000 OA
ATOM      8  O   UNL     1       2.279   5.721  18.176  0.00  0.00    +0.000 OA
ATOM      9  C   UNL     1       2.913   6.910  18.185  0.00  0.00    +0.000 A 
ATOM     10  N   UNL     1       4.093   7.147  17.729  0.00  0.00    +0.000 NA
ATOM     11  C   UNL     1       4.813   6.101  17.156  0.00  0.00    +0.000 A 
ENDROOT
BRANCH   9  12
ATOM     12  C   UNL     1       2.066   7.981  18.773  0.00  0.00    +0.000 A 
ATOM     13  C   UNL     1       1.722   7.995  20.128  0.00  0.00    +0.000 A 
ATOM     14  C   UNL     1       0.876   8.990  20.624  0.00  0.00    +0.000 A 
ATOM     15  C   UNL     1       0.376   9.977  19.774  0.00  0.00    +0.000 A 
ATOM     16  C   UNL     1       0.734   9.985  18.429  0.00  0.00    +0.000 A 
ATOM     17  C   UNL     1       1.577   8.991  17.929  0.00  0.00    +0.000 A 
ENDBRANCH   9  12
BRANCH   1  19
ATOM     18  C   UNL     1       7.771   7.623  17.680  0.00  0.00    +0.000 C 
ATOM     19  O   UNL     1       6.820   7.466  16.631  0.00  0.00    +0.000 OA
ENDBRANCH   1  19
TORSDOF 2
ENDMDL
MODEL 3
REMARK VINA RESULT:      -7.1      2.746      4.601
REMARK  Name = 
REMARK  3 active torsions:
REMARK  status: ('A' for Active; 'I' for Inactive)
REMARK    1  A    between atoms: C_1  and  O_2
REMARK    2  A    between atoms: O_2  and  C_3
REMARK    3  A    between atoms: C_11  and  C_12
REMARK                            x       y       z     vdW  Elec       q    Type
REMARK                         _______ _______ _______ _____ _____    ______ ____
ROOT
ATOM      1  C   UNL     1       2.632   5.246  20.230  0.00  0.00    +0.000 A 
ATOM      2  C   UNL     1       3.437   4.493  19.363  0.00  0.00    +0.000 A 
ATOM      3  C   UNL     1       3.828   5.004  18.126  0.00  0.00    +0.000 A 
ATOM      4  C   UNL     1       3.423   6.283  17.754  0.00  0.00    +0.000 A 
ATOM      5  C   UNL     1       2.639   7.045  18.630  0.00  0.00    +0.000 A 
ATOM      6  C   UNL     1       2.216   8.404  18.262  0.00  0.00    +0.000 A 
ATOM      7  O   UNL     1       2.515   8.877  17.173  0.00  0.00    +0.000 OA
ATOM      8  O   UNL     1       1.488   9.105  19.164  0.00  0.00    +0.000 OA
ATOM      9  C   UNL     1       1.192   8.544  20.353  0.00  0.00    +0.000 A 
ATOM     10  N   UNL     1       1.512   7.358  20.736  0.00  0.00    +0.000 NA
ATOM     11  C   UNL     1       2.243   6.548  19.869  0.00  0.00    +0.000 A 
ENDROOT
BRANCH   9  12
ATOM     12  C   UNL     1       0.450   9.483  21.235  0.00  0.00    +0.000 A 
ATOM     13  C   UNL     1       0.065   9.134  22.533  0.00  0.00    +0.000 A 
ATOM     14  C   UNL     1      -0.682  10.028  23.305  0.00  0.00    +0.000 A 
ATOM     15  C   UNL     1      -1.042  11.273  22.788  0.00  0.00    +0.000 A 
ATOM     16  C   UNL     1      -0.642  11.638  21.506  0.00  0.00    +0.000 A 
ATOM     17  C   UNL     1       0.102  10.747  20.731  0.00  0.00    +0.000 A 
ENDBRANCH   9  12
BRANCH   1  19
ATOM     18  C   UNL     1       1.668   3.351  21.292  0.00  0.00    +0.000 C 
ATOM     19  O   UNL     1       2.342   4.600  21.407  0.00  0.00    +0.000 OA
ENDBRANCH   1  19
TORSDOF 2
ENDMDL
MODEL 4
REMARK VINA RESULT:      -7.1      2.724      4.413
REMARK  Name = 
REMARK  3 active torsions:
REMARK  status: ('A' for Active; 'I' for Inactive)
REMARK    1  A    between atoms: C_1  and  O_2
REMARK    2  A    between atoms: O_2  and  C_3
REMARK    3  A    between atoms: C_11  and  C_12
REMARK                            x       y       z     vdW  Elec       q    Type
REMARK                         _______ _______ _______ _____ _____    ______ ____
ROOT
ATOM      1  C   UNL     1       2.660   5.159  20.319  0.00  0.00    +0.000 A 
ATOM      2  C   UNL     1       3.501   4.388  19.503  0.00  0.00    +0.000 A 
ATOM      3  C   UNL     1       3.933   4.868  18.268  0.00  0.00    +0.000 A 
ATOM      4  C   UNL     1       3.535   6.133  17.845  0.00  0.00    +0.000 A 
ATOM      5  C   UNL     1       2.715   6.913  18.670  0.00  0.00    +0.000 A 
ATOM      6  C   UNL     1       2.298   8.258  18.250  0.00  0.00    +0.000 A 
ATOM      7  O   UNL     1       2.634   8.704  17.159  0.00  0.00    +0.000 OA
ATOM      8  O   UNL     1       1.533   8.980  19.105  0.00  0.00    +0.000 OA
ATOM      9  C   UNL     1       1.198   8.450  20.297  0.00  0.00    +0.000 A 
ATOM     10  N   UNL     1       1.510   7.277  20.725  0.00  0.00    +0.000 NA
ATOM     11  C   UNL     1       2.277   6.448  19.908  0.00  0.00    +0.000 A 
ENDROOT
BRANCH   9  12
ATOM     12  C   UNL     1       0.418   9.408  21.125  0.00  0.00    +0.000 A 
ATOM     13  C   UNL     1      -0.014  10.640  20.625  0.00  0.00    +0.000 A 
ATOM     14  C   UNL     1      -0.694  11.532  21.458  0.00  0.00    +0.000 A 
ATOM     15  C   UNL     1      -0.951  11.197  22.788  0.00  0.00    +0.000 A 
ATOM     16  C   UNL     1      -0.546   9.962  23.286  0.00  0.00    +0.000 A 
ATOM     17  C   UNL     1       0.136   9.069  22.458  0.00  0.00    +0.000 A 
ENDBRANCH   9  12
BRANCH   1  19
ATOM     18  C   UNL     1       2.068   3.146  21.435  0.00  0.00    +0.000 C 
ATOM     19  O   UNL     1       2.331   4.545  21.502  0.00  0.00    +0.000 OA
ENDBRANCH   1  19
TORSDOF 2
ENDMDL
MODEL 5
REMARK VINA RESULT:      -7.1      2.217      5.985
REMARK  Name = 
REMARK  3 active torsions:
REMARK  status: ('A' for Active; 'I' for Inactive)
REMARK    1  A    between atoms: C_1  and  O_2
REMARK    2  A    between atoms: O_2  and  C_3
REMARK    3  A    between atoms: C_11  and  C_12
REMARK                            x       y       z     vdW  Elec       q    Type
REMARK                         _______ _______ _______ _____ _____    ______ ____
ROOT
ATOM      1  C   UNL     1       2.262   5.555  19.527  0.00  0.00    +0.000 A 
ATOM      2  C   UNL     1       1.476   5.160  20.619  0.00  0.00    +0.000 A 
ATOM      3  C   UNL     1       1.330   3.812  20.945  0.00  0.00    +0.000 A 
ATOM      4  C   UNL     1       1.984   2.848  20.182  0.00  0.00    +0.000 A 
ATOM      5  C   UNL     1       2.789   3.243  19.106  0.00  0.00    +0.000 A 
ATOM      6  C   UNL     1       3.501   2.242  18.300  0.00  0.00    +0.000 A 
ATOM      7  O   UNL     1       3.376   1.047  18.536  0.00  0.00    +0.000 OA
ATOM      8  O   UNL     1       4.292   2.686  17.293  0.00  0.00    +0.000 OA
ATOM      9  C   UNL     1       4.404   4.011  17.079  0.00  0.00    +0.000 A 
ATOM     10  N   UNL     1       3.800   4.943  17.730  0.00  0.00    +0.000 NA
ATOM     11  C   UNL     1       2.945   4.586  18.770  0.00  0.00    +0.000 A 
ENDROOT
BRANCH   9  12
ATOM     12  C   UNL     1       5.363   4.311  15.982  0.00  0.00    +0.000 A 
ATOM     13  C   UNL     1       5.139   3.896  14.666  0.00  0.00    +0.000 A 
ATOM     14  C   UNL     1       6.096   4.151  13.681  0.00  0.00    +0.000 A 
ATOM     15  C   UNL     1       7.274   4.826  14.002  0.00  0.00    +0.000 A 
ATOM     16  C   UNL     1       7.494   5.264  15.305  0.00  0.00    +0.000 A 
ATOM     17  C   UNL     1       6.542   5.009  16.293  0.00  0.00    +0.000 A 
ENDBRANCH   9  12
BRANCH   1  19
ATOM     18  C   UNL     1       1.762   7.709  20.398  0.00  0.00    +0.000 C 
ATOM     19  O   UNL     1       2.305   6.916  19.347  0.00  0.00    +0.000 OA
ENDBRANCH   1  19
TORSDOF 2
ENDMDL
MODEL 6
REMARK VINA RESULT:      -7.0      2.147      6.009
REMARK  Name = 
REMARK  3 active torsions:
REMARK  status: ('A' for Active; 'I' for Inactive)
REMARK    1  A    between atoms: C_1  and  O_2
REMARK    2  A    between atoms: O_2  and  C_3
REMARK    3  A    between atoms: C_11  and  C_12
REMARK                            x       y       z     vdW  Elec       q    Type
REMARK                         _______ _______ _______ _____ _____    ______ ____
ROOT
ATOM      1  C   UNL     1       2.464   5.662  19.606  0.00  0.00    +0.000 A 
ATOM      2  C   UNL     1       1.654   5.302  20.693  0.00  0.00    +0.000 A 
ATOM      3  C   UNL     1       1.410   3.961  20.988  0.00  0.00    +0.000 A 
ATOM      4  C   UNL     1       1.988   2.969  20.200  0.00  0.00    +0.000 A 
ATOM      5  C   UNL     1       2.817   3.329  19.130  0.00  0.00    +0.000 A 
ATOM      6  C   UNL     1       3.450   2.297  18.298  0.00  0.00    +0.000 A 
ATOM      7  O   UNL     1       3.238   1.109  18.507  0.00  0.00    +0.000 OA
ATOM      8  O   UNL     1       4.269   2.704  17.297  0.00  0.00    +0.000 OA
ATOM      9  C   UNL     1       4.478   4.022  17.112  0.00  0.00    +0.000 A 
ATOM     10  N   UNL     1       3.946   4.981  17.788  0.00  0.00    +0.000 NA
ATOM     11  C   UNL     1       3.071   4.664  18.824  0.00  0.00    +0.000 A 
ENDROOT
BRANCH   9  12
ATOM     12  C   UNL     1       5.453   4.276  16.019  0.00  0.00    +0.000 A 
ATOM     13  C   UNL     1       6.636   4.991  16.231  0.00  0.00    +0.000 A 
ATOM     14  C   UNL     1       7.494   5.255  15.160  0.00  0.00    +0.000 A 
ATOM     15  C   UNL     1       7.180   4.803  13.878  0.00  0.00    +0.000 A 
ATOM     16  C   UNL     1       6.016   4.070  13.663  0.00  0.00    +0.000 A 
ATOM     17  C   UNL     1       5.155   3.806  14.729  0.00  0.00    +0.000 A 
ENDBRANCH   9  12
BRANCH   1  19
ATOM     18  C   UNL     1       1.746   7.836  20.247  0.00  0.00    +0.000 C 
ATOM     19  O   UNL     1       2.606   7.021  19.457  0.00  0.00    +0.000 OA
ENDBRANCH   1  19
TORSDOF 2
ENDMDL
MODEL 7
REMARK VINA RESULT:      -7.0      2.086      3.971
REMARK  Name = 
REMARK  3 active torsions:
REMARK  status: ('A' for Active; 'I' for Inactive)
REMARK    1  A    between atoms: C_1  and  O_2
REMARK    2  A    between atoms: O_2  and  C_3
REMARK    3  A    between atoms: C_11  and  C_12
REMARK                            x       y       z     vdW  Elec       q    Type
REMARK                         _______ _______ _______ _____ _____    ______ ____
ROOT
ATOM      1  C   UNL     1       2.046   3.064  19.260  0.00  0.00    +0.000 A 
ATOM      2  C   UNL     1       2.651   1.834  18.963  0.00  0.00    +0.000 A 
ATOM      3  C   UNL     1       3.723   1.762  18.074  0.00  0.00    +0.000 A 
ATOM      4  C   UNL     1       4.206   2.927  17.485  0.00  0.00    +0.000 A 
ATOM      5  C   UNL     1       3.617   4.159  17.801  0.00  0.00    +0.000 A 
ATOM      6  C   UNL     1       4.124   5.402  17.203  0.00  0.00    +0.000 A 
ATOM      7  O   UNL     1       5.045   5.377  16.396  0.00  0.00    +0.000 OA
ATOM      8  O   UNL     1       3.537   6.567  17.572  0.00  0.00    +0.000 OA
ATOM      9  C   UNL     1       2.533   6.543  18.469  0.00  0.00    +0.000 A 
ATOM     10  N   UNL     1       2.027   5.496  19.020  0.00  0.00    +0.000 NA
ATOM     11  C   UNL     1       2.547   4.247  18.687  0.00  0.00    +0.000 A 
ENDROOT
BRANCH   9  12
ATOM     12  C   UNL     1       2.061   7.914  18.802  0.00  0.00    +0.000 A 
ATOM     13  C   UNL     1       1.593   8.248  20.077  0.00  0.00    +0.000 A 
ATOM     14  C   UNL     1       1.106   9.533  20.328  0.00  0.00    +0.000 A 
ATOM     15  C   UNL     1       1.088  10.490  19.312  0.00  0.00    +0.000 A 
ATOM     16  C   UNL     1       1.575  10.172  18.047  0.00  0.00    +0.000 A 
ATOM     17  C   UNL     1       2.060   8.889  17.792  0.00  0.00    +0.000 A 
ENDBRANCH   9  12
BRANCH   1  19
ATOM     18  C   UNL     1       1.369   2.867  21.530  0.00  0.00    +0.000 C 
ATOM     19  O   UNL     1       1.009   2.962  20.155  0.00  0.00    +0.000 OA
ENDBRANCH   1  19
TORSDOF 2
ENDMDL
MODEL 8
REMARK VINA RESULT:      -6.9      3.346      5.336
REMARK  Name = 
REMARK  3 active torsions:
REMARK  status: ('A' for Active; 'I' for Inactive)
REMARK    1  A    between atoms: C_1  and  O_2
REMARK    2  A    between atoms: O_2  and  C_3
REMARK    3  A    between atoms: C_11  and  C_12
REMARK                            x       y       z     vdW  Elec       q    Type
REMARK                         _______ _______ _______ _____ _____    ______ ____
ROOT
ATOM      1  C   UNL     1       5.953   3.652  12.866  0.00  0.00    +0.000 A 
ATOM      2  C   UNL     1       7.023   4.065  12.059  0.00  0.00    +0.000 A 
ATOM      3  C   UNL     1       7.961   4.983  12.531  0.00  0.00    +0.000 A 
ATOM      4  C   UNL     1       7.839   5.484  13.824  0.00  0.00    +0.000 A 
ATOM      5  C   UNL     1       6.785   5.053  14.639  0.00  0.00    +0.000 A 
ATOM      6  C   UNL     1       6.650   5.557  16.013  0.00  0.00    +0.000 A 
ATOM      7  O   UNL     1       7.437   6.385  16.454  0.00  0.00    +0.000 OA
ATOM      8  O   UNL     1       5.629   5.078  16.765  0.00  0.00    +0.000 OA
ATOM      9  C   UNL     1       4.795   4.161  16.238  0.00  0.00    +0.000 A 
ATOM     10  N   UNL     1       4.841   3.688  15.042  0.00  0.00    +0.000 NA
ATOM     11  C   UNL     1       5.841   4.136  14.181  0.00  0.00    +0.000 A 
ENDROOT
BRANCH   9  12
ATOM     12  C   UNL     1       3.784   3.704  17.227  0.00  0.00    +0.000 A 
ATOM     13  C   UNL     1       3.759   2.391  17.710  0.00  0.00    +0.000 A 
ATOM     14  C   UNL     1       2.755   1.992  18.595  0.00  0.00    +0.000 A 
ATOM     15  C   UNL     1       1.777   2.898  19.007  0.00  0.00    +0.000 A 
ATOM     16  C   UNL     1       1.810   4.214  18.550  0.00  0.00    +0.000 A 
ATOM     17  C   UNL     1       2.810   4.616  17.664  0.00  0.00    +0.000 A 
ENDBRANCH   9  12
BRANCH   1  19
ATOM     18  C   UNL     1       4.185   3.274  11.324  0.00  0.00    +0.000 C 
ATOM     19  O   UNL     1       5.124   2.744  12.254  0.00  0.00    +0.000 OA
ENDBRANCH   1  19
TORSDOF 2
ENDMDL
MODEL 9
REMARK VINA RESULT:      -6.9      2.007      5.960
REMARK  Name = 
REMARK  3 active torsions:
REMARK  status: ('A' for Active; 'I' for Inactive)
REMARK    1  A    between atoms: C_1  and  O_2
REMARK    2  A    between atoms: O_2  and  C_3
REMARK    3  A    between atoms: C_11  and  C_12
REMARK                            x       y       z     vdW  Elec       q    Type
REMARK                         _______ _______ _______ _____ _____    ______ ____
ROOT
ATOM      1  C   UNL     1       2.868   6.659  18.738  0.00  0.00    +0.000 A 
ATOM      2  C   UNL     1       2.136   6.564  19.930  0.00  0.00    +0.000 A 
ATOM      3  C   UNL     1       1.891   5.325  20.521  0.00  0.00    +0.000 A 
ATOM      4  C   UNL     1       2.391   4.170  19.925  0.00  0.00    +0.000 A 
ATOM      5  C   UNL     1       3.143   4.267  18.748  0.00  0.00    +0.000 A 
ATOM      6  C   UNL     1       3.694   3.062  18.114  0.00  0.00    +0.000 A 
ATOM      7  O   UNL     1       3.477   1.953  18.586  0.00  0.00    +0.000 OA
ATOM      8  O   UNL     1       4.442   3.221  16.994  0.00  0.00    +0.000 OA
ATOM      9  C   UNL     1       4.660   4.462  16.518  0.00  0.00    +0.000 A 
ATOM     10  N   UNL     1       4.197   5.559  17.009  0.00  0.00    +0.000 NA
ATOM     11  C   UNL     1       3.396   5.498  18.147  0.00  0.00    +0.000 A 
ENDROOT
BRANCH   9  12
ATOM     12  C   UNL     1       5.554   4.446  15.330  0.00  0.00    +0.000 A 
ATOM     13  C   UNL     1       6.759   5.155  15.299  0.00  0.00    +0.000 A 
ATOM     14  C   UNL     1       7.539   5.158  14.140  0.00  0.00    +0.000 A 
ATOM     15  C   UNL     1       7.124   4.449  13.012  0.00  0.00    +0.000 A 
ATOM     16  C   UNL     1       5.938   3.720  13.043  0.00  0.00    +0.000 A 
ATOM     17  C   UNL     1       5.155   3.717  14.198  0.00  0.00    +0.000 A 
ENDBRANCH   9  12
BRANCH   1  19
ATOM     18  C   UNL     1       1.855   8.585  17.782  0.00  0.00    +0.000 C 
ATOM     19  O   UNL     1       3.023   7.949  18.293  0.00  0.00    +0.000 OA
ENDBRANCH   1  19
TORSDOF 2
ENDMDL
