MODEL 1
REMARK VINA RESULT:      -6.3      0.000      0.000
REMARK  Name = 
REMARK  5 active torsions:
REMARK  status: ('A' for Active; 'I' for Inactive)
REMARK    1  A    between atoms: C_1  and  O_2
REMARK    2  A    between atoms: O_2  and  C_3
REMARK    3  A    between atoms: C_6  and  O_7
REMARK    4  A    between atoms: O_7  and  P_8
REMARK    5  A    between atoms: P_8  and  C_11
REMARK                            x       y       z     vdW  Elec       q    Type
REMARK                         _______ _______ _______ _____ _____    ______ ____
ROOT
ATOM      1  C   UNL     1       1.443   3.999  19.744  0.00  0.00    +0.000 A 
ATOM      2  C   UNL     1       2.126   5.100  20.270  0.00  0.00    +0.000 A 
ATOM      3  C   UNL     1       2.999   5.845  19.476  0.00  0.00    +0.000 A 
ATOM      4  C   UNL     1       3.184   5.515  18.133  0.00  0.00    +0.000 A 
ATOM      5  C   UNL     1       2.416   4.476  17.590  0.00  0.00    +0.000 A 
ATOM      6  C   UNL     1       1.566   3.693  18.394  0.00  0.00    +0.000 A 
ENDROOT
BRANCH   1   8
ATOM      7  C   UNL     1       1.576   2.738  21.728  0.00  0.00    +0.000 C 
ATOM      8  O   UNL     1       0.777   3.225  20.653  0.00  0.00    +0.000 OA
ENDBRANCH   1   8
BRANCH   4   9
ATOM      9  O   UNL     1       4.138   6.237  17.445  0.00  0.00    +0.000 OA
BRANCH   9  10
ATOM     10  P   UNL     1       5.613   5.548  16.860  0.00  0.00    +0.000 P 
ATOM     11  O   UNL     1       6.265   6.976  16.732  0.00  0.00    +0.000 OA
ATOM     12  O   UNL     1       5.994   4.946  18.241  0.00  0.00    +0.000 OA
BRANCH  10  13
ATOM     13  C   UNL     1       7.173   4.819  16.240  0.00  0.00    +0.000 C 
ATOM     14  O   UNL     1       7.392   4.889  14.980  0.00  0.00    +0.000 OA
ATOM     15  O   UNL     1       8.012   4.242  17.052  0.00  0.00    +0.000 OA
ENDBRANCH  10  13
ENDBRANCH   9  10
ENDBRANCH   4   9
TORSDOF 4
ENDMDL
MODEL 2
REMARK VINA RESULT:      -6.3      1.647      2.293
REMARK  Name = 
REMARK  5 active torsions:
REMARK  status: ('A' for Active; 'I' for Inactive)
REMARK    1  A    between atoms: C_1  and  O_2
REMARK    2  A    between atoms: O_2  and  C_3
REMARK    3  A    between atoms: C_6  and  O_7
REMARK    4  A    between atoms: O_7  and  P_8
REMARK    5  A    between atoms: P_8  and  C_11
REMARK                            x       y       z     vdW  Elec       q    Type
REMARK                         _______ _______ _______ _____ _____    ______ ____
ROOT
ATOM      1  C   UNL     1       1.894   3.204  18.806  0.00  0.00    +0.000 A 
ATOM      2  C   UNL     1       2.101   4.491  18.302  0.00  0.00    +0.000 A 
ATOM      3  C   UNL     1       3.236   4.788  17.546  0.00  0.00    +0.000 A 
ATOM      4  C   UNL     1       4.172   3.793  17.261  0.00  0.00    +0.000 A 
ATOM      5  C   UNL     1       3.902   2.484  17.683  0.00  0.00    +0.000 A 
ATOM      6  C   UNL     1       2.782   2.185  18.482  0.00  0.00    +0.000 A 
ENDROOT
BRANCH   1   8
ATOM      7  C   UNL     1       1.260   2.945  21.059  0.00  0.00    +0.000 C 
ATOM      8  O   UNL     1       0.864   3.074  19.696  0.00  0.00    +0.000 OA
ENDBRANCH   1   8
BRANCH   4   9
ATOM      9  O   UNL     1       5.313   4.191  16.595  0.00  0.00    +0.000 OA
BRANCH   9  10
ATOM     10  P   UNL     1       6.359   5.444  17.167  0.00  0.00    +0.000 P 
ATOM     11  O   UNL     1       7.088   4.437  18.136  0.00  0.00    +0.000 OA
ATOM     12  O   UNL     1       7.157   5.522  15.834  0.00  0.00    +0.000 OA
BRANCH  10  13
ATOM     13  C   UNL     1       7.466   6.771  17.773  0.00  0.00    +0.000 C 
ATOM     14  O   UNL     1       7.560   7.827  17.056  0.00  0.00    +0.000 OA
ATOM     15  O   UNL     1       8.135   6.630  18.881  0.00  0.00    +0.000 OA
ENDBRANCH  10  13
ENDBRANCH   9  10
ENDBRANCH   4   9
TORSDOF 4
ENDMDL
MODEL 3
REMARK VINA RESULT:      -6.2      1.562      2.145
REMARK  Name = 
REMARK  5 active torsions:
REMARK  status: ('A' for Active; 'I' for Inactive)
REMARK    1  A    between atoms: C_1  and  O_2
REMARK    2  A    between atoms: O_2  and  C_3
REMARK    3  A    between atoms: C_6  and  O_7
REMARK    4  A    between atoms: O_7  and  P_8
REMARK    5  A    between atoms: P_8  and  C_11
REMARK                            x       y       z     vdW  Elec       q    Type
REMARK                         _______ _______ _______ _____ _____    ______ ____
ROOT
ATOM      1  C   UNL     1       2.998   3.374  19.807  0.00  0.00    +0.000 A 
ATOM      2  C   UNL     1       3.891   2.911  18.836  0.00  0.00    +0.000 A 
ATOM      3  C   UNL     1       4.686   3.802  18.114  0.00  0.00    +0.000 A 
ATOM      4  C   UNL     1       4.618   5.172  18.371  0.00  0.00    +0.000 A 
ATOM      5  C   UNL     1       3.798   5.614  19.417  0.00  0.00    +0.000 A 
ATOM      6  C   UNL     1       2.961   4.727  20.122  0.00  0.00    +0.000 A 
ENDROOT
BRANCH   1   8
ATOM      7  C   UNL     1       1.541   2.782  21.560  0.00  0.00    +0.000 C 
ATOM      8  O   UNL     1       2.129   2.443  20.307  0.00  0.00    +0.000 OA
ENDBRANCH   1   8
BRANCH   4   9
ATOM      9  O   UNL     1       5.361   5.993  17.546  0.00  0.00    +0.000 OA
BRANCH   9  10
ATOM     10  P   UNL     1       6.094   5.450  16.077  0.00  0.00    +0.000 P 
ATOM     11  O   UNL     1       5.245   6.478  15.237  0.00  0.00    +0.000 OA
ATOM     12  O   UNL     1       7.470   6.093  16.411  0.00  0.00    +0.000 OA
BRANCH  10  13
ATOM     13  C   UNL     1       6.870   4.876  14.521  0.00  0.00    +0.000 C 
ATOM     14  O   UNL     1       7.862   5.552  14.078  0.00  0.00    +0.000 OA
ATOM     15  O   UNL     1       6.415   3.830  13.893  0.00  0.00    +0.000 OA
ENDBRANCH  10  13
ENDBRANCH   9  10
ENDBRANCH   4   9
TORSDOF 4
ENDMDL
MODEL 4
REMARK VINA RESULT:      -6.2      1.400      1.797
REMARK  Name = 
REMARK  5 active torsions:
REMARK  status: ('A' for Active; 'I' for Inactive)
REMARK    1  A    between atoms: C_1  and  O_2
REMARK    2  A    between atoms: O_2  and  C_3
REMARK    3  A    between atoms: C_6  and  O_7
REMARK    4  A    between atoms: O_7  and  P_8
REMARK    5  A    between atoms: P_8  and  C_11
REMARK                            x       y       z     vdW  Elec       q    Type
REMARK                         _______ _______ _______ _____ _____    ______ ____
ROOT
ATOM      1  C   UNL     1       2.311   3.174  19.215  0.00  0.00    +0.000 A 
ATOM      2  C   UNL     1       3.058   4.096  19.954  0.00  0.00    +0.000 A 
ATOM      3  C   UNL     1       4.128   4.778  19.371  0.00  0.00    +0.000 A 
ATOM      4  C   UNL     1       4.450   4.566  18.030  0.00  0.00    +0.000 A 
ATOM      5  C   UNL     1       3.630   3.720  17.273  0.00  0.00    +0.000 A 
ATOM      6  C   UNL     1       2.576   2.996  17.863  0.00  0.00    +0.000 A 
ENDROOT
BRANCH   1   8
ATOM      7  C   UNL     1       1.310   2.773  21.309  0.00  0.00    +0.000 C 
ATOM      8  O   UNL     1       1.424   2.419  19.933  0.00  0.00    +0.000 OA
ENDBRANCH   1   8
BRANCH   4   9
ATOM      9  O   UNL     1       5.581   5.203  17.559  0.00  0.00    +0.000 OA
BRANCH   9  10
ATOM     10  P   UNL     1       6.200   4.979  15.960  0.00  0.00    +0.000 P 
ATOM     11  O   UNL     1       5.809   6.454  15.568  0.00  0.00    +0.000 OA
ATOM     12  O   UNL     1       7.682   4.963  16.430  0.00  0.00    +0.000 OA
BRANCH  10  13
ATOM     13  C   UNL     1       6.856   4.742  14.267  0.00  0.00    +0.000 C 
ATOM     14  O   UNL     1       7.814   5.506  13.897  0.00  0.00    +0.000 OA
ATOM     15  O   UNL     1       6.352   3.839  13.474  0.00  0.00    +0.000 OA
ENDBRANCH  10  13
ENDBRANCH   9  10
ENDBRANCH   4   9
TORSDOF 4
ENDMDL
MODEL 5
REMARK VINA RESULT:      -6.1      3.599      6.504
REMARK  Name = 
REMARK  5 active torsions:
REMARK  status: ('A' for Active; 'I' for Inactive)
REMARK    1  A    between atoms: C_1  and  O_2
REMARK    2  A    between atoms: O_2  and  C_3
REMARK    3  A    between atoms: C_6  and  O_7
REMARK    4  A    between atoms: O_7  and  P_8
REMARK    5  A    between atoms: P_8  and  C_11
REMARK                            x       y       z     vdW  Elec       q    Type
REMARK                         _______ _______ _______ _____ _____    ______ ____
ROOT
ATOM      1  C   UNL     1       5.865   3.345  12.199  0.00  0.00    +0.000 A 
ATOM      2  C   UNL     1       5.257   3.493  13.449  0.00  0.00    +0.000 A 
ATOM      3  C   UNL     1       5.847   4.277  14.442  0.00  0.00    +0.000 A 
ATOM      4  C   UNL     1       7.045   4.947  14.190  0.00  0.00    +0.000 A 
ATOM      5  C   UNL     1       7.590   4.877  12.901  0.00  0.00    +0.000 A 
ATOM      6  C   UNL     1       7.024   4.054  11.907  0.00  0.00    +0.000 A 
ENDROOT
BRANCH   1   8
ATOM      7  C   UNL     1       6.076   1.207  11.237  0.00  0.00    +0.000 C 
ATOM      8  O   UNL     1       5.312   2.401  11.378  0.00  0.00    +0.000 OA
ENDBRANCH   1   8
BRANCH   4   9
ATOM      9  O   UNL     1       7.613   5.619  15.254  0.00  0.00    +0.000 OA
BRANCH   9  10
ATOM     10  P   UNL     1       6.975   5.566  16.861  0.00  0.00    +0.000 P 
ATOM     11  O   UNL     1       8.011   4.451  17.269  0.00  0.00    +0.000 OA
ATOM     12  O   UNL     1       7.558   6.956  17.243  0.00  0.00    +0.000 OA
BRANCH  10  13
ATOM     13  C   UNL     1       6.299   5.510  18.561  0.00  0.00    +0.000 C 
ATOM     14  O   UNL     1       5.059   5.795  18.708  0.00  0.00    +0.000 OA
ATOM     15  O   UNL     1       7.059   5.204  19.574  0.00  0.00    +0.000 OA
ENDBRANCH  10  13
ENDBRANCH   9  10
ENDBRANCH   4   9
TORSDOF 4
ENDMDL
MODEL 6
REMARK VINA RESULT:      -6.1      1.444      1.927
REMARK  Name = 
REMARK  5 active torsions:
REMARK  status: ('A' for Active; 'I' for Inactive)
REMARK    1  A    between atoms: C_1  and  O_2
REMARK    2  A    between atoms: O_2  and  C_3
REMARK    3  A    between atoms: C_6  and  O_7
REMARK    4  A    between atoms: O_7  and  P_8
REMARK    5  A    between atoms: P_8  and  C_11
REMARK                            x       y       z     vdW  Elec       q    Type
REMARK                         _______ _______ _______ _____ _____    ______ ____
ROOT
ATOM      1  C   UNL     1       2.400   4.469  19.787  0.00  0.00    +0.000 A 
ATOM      2  C   UNL     1       2.138   5.414  18.791  0.00  0.00    +0.000 A 
ATOM      3  C   UNL     1       3.174   5.943  18.018  0.00  0.00    +0.000 A 
ATOM      4  C   UNL     1       4.487   5.514  18.214  0.00  0.00    +0.000 A 
ATOM      5  C   UNL     1       4.723   4.492  19.142  0.00  0.00    +0.000 A 
ATOM      6  C   UNL     1       3.691   3.984  19.955  0.00  0.00    +0.000 A 
ENDROOT
BRANCH   1   8
ATOM      7  C   UNL     1       1.307   2.821  21.064  0.00  0.00    +0.000 C 
ATOM      8  O   UNL     1       1.351   4.172  20.613  0.00  0.00    +0.000 OA
ENDBRANCH   1   8
BRANCH   4   9
ATOM      9  O   UNL     1       5.463   6.158  17.480  0.00  0.00    +0.000 OA
BRANCH   9  10
ATOM     10  P   UNL     1       6.126   5.521  16.015  0.00  0.00    +0.000 P 
ATOM     11  O   UNL     1       5.285   6.539  15.156  0.00  0.00    +0.000 OA
ATOM     12  O   UNL     1       7.534   6.128  16.273  0.00  0.00    +0.000 OA
BRANCH  10  13
ATOM     13  C   UNL     1       6.827   4.846  14.465  0.00  0.00    +0.000 C 
ATOM     14  O   UNL     1       7.833   5.458  13.962  0.00  0.00    +0.000 OA
ATOM     15  O   UNL     1       6.309   3.795  13.897  0.00  0.00    +0.000 OA
ENDBRANCH  10  13
ENDBRANCH   9  10
ENDBRANCH   4   9
TORSDOF 4
ENDMDL
MODEL 7
REMARK VINA RESULT:      -6.0      2.952      6.123
REMARK  Name = 
REMARK  5 active torsions:
REMARK  status: ('A' for Active; 'I' for Inactive)
REMARK    1  A    between atoms: C_1  and  O_2
REMARK    2  A    between atoms: O_2  and  C_3
REMARK    3  A    between atoms: C_6  and  O_7
REMARK    4  A    between atoms: O_7  and  P_8
REMARK    5  A    between atoms: P_8  and  C_11
REMARK                            x       y       z     vdW  Elec       q    Type
REMARK                         _______ _______ _______ _____ _____    ______ ____
ROOT
ATOM      1  C   UNL     1       7.378   7.391  17.566  0.00  0.00    +0.000 A 
ATOM      2  C   UNL     1       8.000   6.702  18.612  0.00  0.00    +0.000 A 
ATOM      3  C   UNL     1       7.393   5.589  19.195  0.00  0.00    +0.000 A 
ATOM      4  C   UNL     1       6.162   5.131  18.722  0.00  0.00    +0.000 A 
ATOM      5  C   UNL     1       5.599   5.764  17.607  0.00  0.00    +0.000 A 
ATOM      6  C   UNL     1       6.183   6.914  17.040  0.00  0.00    +0.000 A 
ENDROOT
BRANCH   1   8
ATOM      7  C   UNL     1       8.463   9.349  18.294  0.00  0.00    +0.000 C 
ATOM      8  O   UNL     1       7.959   8.576  17.208  0.00  0.00    +0.000 OA
ENDBRANCH   1   8
BRANCH   4   9
ATOM      9  O   UNL     1       5.583   4.088  19.417  0.00  0.00    +0.000 OA
BRANCH   9  10
ATOM     10  P   UNL     1       4.036   3.424  19.020  0.00  0.00    +0.000 P 
ATOM     11  O   UNL     1       4.362   2.107  19.820  0.00  0.00    +0.000 OA
ATOM     12  O   UNL     1       3.268   4.401  19.955  0.00  0.00    +0.000 OA
BRANCH  10  13
ATOM     13  C   UNL     1       2.399   2.722  18.598  0.00  0.00    +0.000 C 
ATOM     14  O   UNL     1       1.909   1.855  19.403  0.00  0.00    +0.000 OA
ATOM     15  O   UNL     1       1.773   3.085  17.515  0.00  0.00    +0.000 OA
ENDBRANCH  10  13
ENDBRANCH   9  10
ENDBRANCH   4   9
TORSDOF 4
ENDMDL
MODEL 8
REMARK VINA RESULT:      -6.0      1.541      2.091
REMARK  Name = 
REMARK  5 active torsions:
REMARK  status: ('A' for Active; 'I' for Inactive)
REMARK    1  A    between atoms: C_1  and  O_2
REMARK    2  A    between atoms: O_2  and  C_3
REMARK    3  A    between atoms: C_6  and  O_7
REMARK    4  A    between atoms: O_7  and  P_8
REMARK    5  A    between atoms: P_8  and  C_11
REMARK                            x       y       z     vdW  Elec       q    Type
REMARK                         _______ _______ _______ _____ _____    ______ ____
ROOT
ATOM      1  C   UNL     1       2.644   4.120  20.152  0.00  0.00    +0.000 A 
ATOM      2  C   UNL     1       2.907   5.383  19.612  0.00  0.00    +0.000 A 
ATOM      3  C   UNL     1       4.123   5.651  18.983  0.00  0.00    +0.000 A 
ATOM      4  C   UNL     1       5.088   4.651  18.861  0.00  0.00    +0.000 A 
ATOM      5  C   UNL     1       4.773   3.362  19.312  0.00  0.00    +0.000 A 
ATOM      6  C   UNL     1       3.566   3.093  19.986  0.00  0.00    +0.000 A 
ENDROOT
BRANCH   1   8
ATOM      7  C   UNL     1       1.320   2.761  21.546  0.00  0.00    +0.000 C 
ATOM      8  O   UNL     1       1.516   4.026  20.919  0.00  0.00    +0.000 OA
ENDBRANCH   1   8
BRANCH   4   9
ATOM      9  O   UNL     1       6.300   5.025  18.316  0.00  0.00    +0.000 OA
BRANCH   9  10
ATOM     10  P   UNL     1       6.658   4.911  16.627  0.00  0.00    +0.000 P 
ATOM     11  O   UNL     1       8.037   4.213  16.935  0.00  0.00    +0.000 OA
ATOM     12  O   UNL     1       5.587   3.812  16.374  0.00  0.00    +0.000 OA
BRANCH  10  13
ATOM     13  C   UNL     1       7.037   4.791  14.841  0.00  0.00    +0.000 C 
ATOM     14  O   UNL     1       6.458   3.860  14.180  0.00  0.00    +0.000 OA
ATOM     15  O   UNL     1       7.874   5.615  14.277  0.00  0.00    +0.000 OA
ENDBRANCH  10  13
ENDBRANCH   9  10
ENDBRANCH   4   9
TORSDOF 4
ENDMDL
MODEL 9
REMARK VINA RESULT:      -6.0      2.346      5.995
REMARK  Name = 
REMARK  5 active torsions:
REMARK  status: ('A' for Active; 'I' for Inactive)
REMARK    1  A    between atoms: C_1  and  O_2
REMARK    2  A    between atoms: O_2  and  C_3
REMARK    3  A    between atoms: C_6  and  O_7
REMARK    4  A    between atoms: O_7  and  P_8
REMARK    5  A    between atoms: P_8  and  C_11
REMARK                            x       y       z     vdW  Elec       q    Type
REMARK                         _______ _______ _______ _____ _____    ______ ____
ROOT
ATOM      1  C   UNL     1       5.329   6.254  16.741  0.00  0.00    +0.000 A 
ATOM      2  C   UNL     1       5.223   4.907  16.383  0.00  0.00    +0.000 A 
ATOM      3  C   UNL     1       4.160   4.128  16.842  0.00  0.00    +0.000 A 
ATOM      4  C   UNL     1       3.170   4.693  17.648  0.00  0.00    +0.000 A 
ATOM      5  C   UNL     1       3.231   6.067  17.913  0.00  0.00    +0.000 A 
ATOM      6  C   UNL     1       4.322   6.851  17.490  0.00  0.00    +0.000 A 
ENDROOT
BRANCH   1   8
ATOM      7  C   UNL     1       7.352   7.182  17.510  0.00  0.00    +0.000 C 
ATOM      8  O   UNL     1       6.506   6.866  16.407  0.00  0.00    +0.000 OA
ENDBRANCH   1   8
BRANCH   4   9
ATOM      9  O   UNL     1       2.210   3.833  18.141  0.00  0.00    +0.000 OA
BRANCH   9  10
ATOM     10  P   UNL     1       2.210   3.239  19.766  0.00  0.00    +0.000 P 
ATOM     11  O   UNL     1       0.978   4.151  20.132  0.00  0.00    +0.000 OA
ATOM     12  O   UNL     1       1.687   1.833  19.355  0.00  0.00    +0.000 OA
BRANCH  10  13
ATOM     13  C   UNL     1       2.210   2.611  21.485  0.00  0.00    +0.000 C 
ATOM     14  O   UNL     1       1.112   2.690  22.138  0.00  0.00    +0.000 OA
ATOM     15  O   UNL     1       3.292   2.118  22.017  0.00  0.00    +0.000 OA
ENDBRANCH  10  13
ENDBRANCH   9  10
ENDBRANCH   4   9
TORSDOF 4
ENDMDL
