MODEL 1
REMARK VINA RESULT:      -6.9      0.000      0.000
REMARK  Name = 
REMARK  8 active torsions:
REMARK  status: ('A' for Active; 'I' for Inactive)
REMARK    1  A    between atoms: C_1  and  O_2
REMARK    2  A    between atoms: O_2  and  C_3
REMARK    3  A    between atoms: C_6  and  C_7
REMARK    4  A    between atoms: C_9  and  C_10
REMARK    5  A    between atoms: N_13  and  C_14
REMARK    6  A    between atoms: C_18  and  C_19
REMARK    7  A    between atoms: C_22  and  O_23
REMARK    8  A    between atoms: O_23  and  C_24
REMARK                            x       y       z     vdW  Elec       q    Type
REMARK                         _______ _______ _______ _____ _____    ______ ____
ROOT
ATOM      1  C   UNL     1      -1.365  11.198  19.624  0.00  0.00    +0.000 A 
ATOM      2  N   UNL     1      -2.023  12.122  20.435  0.00  0.00    +0.000 NA
ATOM      3  C   UNL     1      -1.404  12.290  21.587  0.00  0.00    +0.000 A 
ATOM      4  S   UNL     1       0.038  11.348  21.732  0.00  0.00    +0.000 S 
ATOM      5  C   UNL     1      -0.203  10.657  20.170  0.00  0.00    +0.000 A 
ENDROOT
BRANCH   3   6
ATOM      6  C   UNL     1      -1.823  13.146  22.674  0.00  0.00    +0.000 C 
ATOM      7  C   UNL     1      -3.013  12.898  23.242  0.00  0.00    +0.000 C 
ATOM      8  C   UNL     1      -3.614  13.658  24.380  0.00  0.00    +0.000 C 
ATOM      9  N   UNL     1      -2.825  14.731  24.963  0.00  0.00    +0.000 NA
ATOM     10  C   UNL     1      -3.534  15.990  25.110  0.00  0.00    +0.000 C 
ATOM     11  C   UNL     1      -1.430  14.855  24.570  0.00  0.00    +0.000 C 
ATOM     12  C   UNL     1      -0.995  14.289  23.214  0.00  0.00    +0.000 C 
ENDBRANCH   3   6
BRANCH   1  16
ATOM     13  C   UNL     1      -3.220  10.342  15.851  0.00  0.00    +0.000 A 
ATOM     14  C   UNL     1      -3.231   9.387  16.865  0.00  0.00    +0.000 A 
ATOM     15  C   UNL     1      -2.578   9.630  18.074  0.00  0.00    +0.000 A 
ATOM     16  C   UNL     1      -1.958  10.859  18.326  0.00  0.00    +0.000 A 
ATOM     17  C   UNL     1      -1.918  11.796  17.286  0.00  0.00    +0.000 A 
ATOM     18  C   UNL     1      -2.538  11.540  16.054  0.00  0.00    +0.000 A 
BRANCH  13  20
ATOM     19  C   UNL     1      -3.068   9.783  13.552  0.00  0.00    +0.000 C 
ATOM     20  O   UNL     1      -3.874   9.969  14.711  0.00  0.00    +0.000 OA
ENDBRANCH  13  20
ENDBRANCH   1  16
BRANCH   5  21
ATOM     21  C   UNL     1       0.767   9.665  19.673  0.00  0.00    +0.000 A 
ATOM     22  C   UNL     1       1.218   8.619  20.492  0.00  0.00    +0.000 A 
ATOM     23  C   UNL     1       1.986   7.574  19.966  0.00  0.00    +0.000 A 
ATOM     24  C   UNL     1       2.363   7.577  18.625  0.00  0.00    +0.000 A 
ATOM     25  C   UNL     1       2.011   8.660  17.823  0.00  0.00    +0.000 A 
ATOM     26  C   UNL     1       1.211   9.688  18.341  0.00  0.00    +0.000 A 
BRANCH  24  27
ATOM     27  O   UNL     1       3.087   6.492  18.217  0.00  0.00    +0.000 OA
ATOM     28  C   UNL     1       2.356   5.278  18.072  0.00  0.00    +0.000 C 
ENDBRANCH  24  27
ENDBRANCH   5  21
TORSDOF 5
ENDMDL
MODEL 2
REMARK VINA RESULT:      -6.9      3.708      6.209
REMARK  Name = 
REMARK  8 active torsions:
REMARK  status: ('A' for Active; 'I' for Inactive)
REMARK    1  A    between atoms: C_1  and  O_2
REMARK    2  A    between atoms: O_2  and  C_3
REMARK    3  A    between atoms: C_6  and  C_7
REMARK    4  A    between atoms: C_9  and  C_10
REMARK    5  A    between atoms: N_13  and  C_14
REMARK    6  A    between atoms: C_18  and  C_19
REMARK    7  A    between atoms: C_22  and  O_23
REMARK    8  A    between atoms: O_23  and  C_24
REMARK                            x       y       z     vdW  Elec       q    Type
REMARK                         _______ _______ _______ _____ _____    ______ ____
ROOT
ATOM      1  C   UNL     1      -0.073  10.878  19.059  0.00  0.00    +0.000 A 
ATOM      2  N   UNL     1      -1.443  10.643  18.940  0.00  0.00    +0.000 NA
ATOM      3  C   UNL     1      -2.137  11.762  18.979  0.00  0.00    +0.000 A 
ATOM      4  S   UNL     1      -1.151  13.174  19.133  0.00  0.00    +0.000 S 
ATOM      5  C   UNL     1       0.285  12.219  19.179  0.00  0.00    +0.000 A 
ENDROOT
BRANCH   3   6
ATOM      6  C   UNL     1      -3.576  11.888  18.914  0.00  0.00    +0.000 C 
ATOM      7  C   UNL     1      -4.199  11.383  17.837  0.00  0.00    +0.000 C 
ATOM      8  C   UNL     1      -5.673  11.404  17.591  0.00  0.00    +0.000 C 
ATOM      9  N   UNL     1      -6.519  11.973  18.627  0.00  0.00    +0.000 NA
ATOM     10  C   UNL     1      -7.478  12.954  18.150  0.00  0.00    +0.000 C 
ATOM     11  C   UNL     1      -5.923  12.276  19.918  0.00  0.00    +0.000 C 
ATOM     12  C   UNL     1      -4.415  12.539  19.988  0.00  0.00    +0.000 C 
ENDBRANCH   3   6
BRANCH   1  16
ATOM     13  C   UNL     1       2.475   7.427  19.021  0.00  0.00    +0.000 A 
ATOM     14  C   UNL     1       1.836   7.807  20.199  0.00  0.00    +0.000 A 
ATOM     15  C   UNL     1       1.054   8.962  20.239  0.00  0.00    +0.000 A 
ATOM     16  C   UNL     1       0.835   9.727  19.088  0.00  0.00    +0.000 A 
ATOM     17  C   UNL     1       1.514   9.358  17.919  0.00  0.00    +0.000 A 
ATOM     18  C   UNL     1       2.334   8.221  17.885  0.00  0.00    +0.000 A 
BRANCH  13  20
ATOM     19  C   UNL     1       3.847   5.833  17.927  0.00  0.00    +0.000 C 
ATOM     20  O   UNL     1       3.228   6.292  19.125  0.00  0.00    +0.000 OA
ENDBRANCH  13  20
ENDBRANCH   1  16
BRANCH   5  21
ATOM     21  C   UNL     1       1.586  12.896  19.335  0.00  0.00    +0.000 A 
ATOM     22  C   UNL     1       2.339  13.283  18.217  0.00  0.00    +0.000 A 
ATOM     23  C   UNL     1       3.474  14.090  18.360  0.00  0.00    +0.000 A 
ATOM     24  C   UNL     1       3.909  14.483  19.624  0.00  0.00    +0.000 A 
ATOM     25  C   UNL     1       3.232  14.020  20.750  0.00  0.00    +0.000 A 
ATOM     26  C   UNL     1       2.076  13.244  20.605  0.00  0.00    +0.000 A 
BRANCH  24  27
ATOM     27  O   UNL     1       5.011  15.292  19.639  0.00  0.00    +0.000 OA
ATOM     28  C   UNL     1       5.923  15.079  20.712  0.00  0.00    +0.000 C 
ENDBRANCH  24  27
ENDBRANCH   5  21
TORSDOF 5
ENDMDL
MODEL 3
REMARK VINA RESULT:      -6.7      3.719      6.230
REMARK  Name = 
REMARK  8 active torsions:
REMARK  status: ('A' for Active; 'I' for Inactive)
REMARK    1  A    between atoms: C_1  and  O_2
REMARK    2  A    between atoms: O_2  and  C_3
REMARK    3  A    between atoms: C_6  and  C_7
REMARK    4  A    between atoms: C_9  and  C_10
REMARK    5  A    between atoms: N_13  and  C_14
REMARK    6  A    between atoms: C_18  and  C_19
REMARK    7  A    between atoms: C_22  and  O_23
REMARK    8  A    between atoms: O_23  and  C_24
REMARK                            x       y       z     vdW  Elec       q    Type
REMARK                         _______ _______ _______ _____ _____    ______ ____
ROOT
ATOM      1  C   UNL     1       0.021  10.876  19.060  0.00  0.00    +0.000 A 
ATOM      2  N   UNL     1      -1.352  10.640  18.996  0.00  0.00    +0.000 NA
ATOM      3  C   UNL     1      -2.045  11.758  19.062  0.00  0.00    +0.000 A 
ATOM      4  S   UNL     1      -1.056  13.171  19.176  0.00  0.00    +0.000 S 
ATOM      5  C   UNL     1       0.382  12.218  19.166  0.00  0.00    +0.000 A 
ENDROOT
BRANCH   3   6
ATOM      6  C   UNL     1      -3.486  11.882  19.053  0.00  0.00    +0.000 C 
ATOM      7  C   UNL     1      -4.055  12.618  20.021  0.00  0.00    +0.000 C 
ATOM      8  C   UNL     1      -5.519  12.875  20.177  0.00  0.00    +0.000 C 
ATOM      9  N   UNL     1      -6.409  12.325  19.168  0.00  0.00    +0.000 NA
ATOM     10  C   UNL     1      -7.541  11.587  19.700  0.00  0.00    +0.000 C 
ATOM     11  C   UNL     1      -5.823  11.763  17.961  0.00  0.00    +0.000 C 
ATOM     12  C   UNL     1      -4.381  11.247  18.016  0.00  0.00    +0.000 C 
ENDBRANCH   3   6
BRANCH   1  16
ATOM     13  C   UNL     1       2.581   7.438  18.907  0.00  0.00    +0.000 A 
ATOM     14  C   UNL     1       1.880   7.731  20.074  0.00  0.00    +0.000 A 
ATOM     15  C   UNL     1       1.092   8.880  20.157  0.00  0.00    +0.000 A 
ATOM     16  C   UNL     1       0.932   9.727  19.053  0.00  0.00    +0.000 A 
ATOM     17  C   UNL     1       1.672   9.443  17.899  0.00  0.00    +0.000 A 
ATOM     18  C   UNL     1       2.497   8.312  17.825  0.00  0.00    +0.000 A 
BRANCH  13  20
ATOM     19  C   UNL     1       2.890   5.298  19.879  0.00  0.00    +0.000 C 
ATOM     20  O   UNL     1       3.333   6.298  18.968  0.00  0.00    +0.000 OA
ENDBRANCH  13  20
ENDBRANCH   1  16
BRANCH   5  21
ATOM     21  C   UNL     1       1.687  12.897  19.270  0.00  0.00    +0.000 A 
ATOM     22  C   UNL     1       2.451  13.176  18.127  0.00  0.00    +0.000 A 
ATOM     23  C   UNL     1       3.591  13.984  18.206  0.00  0.00    +0.000 A 
ATOM     24  C   UNL     1       4.021  14.486  19.432  0.00  0.00    +0.000 A 
ATOM     25  C   UNL     1       3.333  14.132  20.590  0.00  0.00    +0.000 A 
ATOM     26  C   UNL     1       2.171  13.354  20.507  0.00  0.00    +0.000 A 
BRANCH  24  27
ATOM     27  O   UNL     1       5.129  15.285  19.382  0.00  0.00    +0.000 OA
ATOM     28  C   UNL     1       4.926  16.595  18.860  0.00  0.00    +0.000 C 
ENDBRANCH  24  27
ENDBRANCH   5  21
TORSDOF 5
ENDMDL
MODEL 4
REMARK VINA RESULT:      -6.7      3.673      6.124
REMARK  Name = 
REMARK  8 active torsions:
REMARK  status: ('A' for Active; 'I' for Inactive)
REMARK    1  A    between atoms: C_1  and  O_2
REMARK    2  A    between atoms: O_2  and  C_3
REMARK    3  A    between atoms: C_6  and  C_7
REMARK    4  A    between atoms: C_9  and  C_10
REMARK    5  A    between atoms: N_13  and  C_14
REMARK    6  A    between atoms: C_18  and  C_19
REMARK    7  A    between atoms: C_22  and  O_23
REMARK    8  A    between atoms: O_23  and  C_24
REMARK                            x       y       z     vdW  Elec       q    Type
REMARK                         _______ _______ _______ _____ _____    ______ ____
ROOT
ATOM      1  C   UNL     1      -0.218  10.884  19.079  0.00  0.00    +0.000 A 
ATOM      2  N   UNL     1      -1.595  10.684  18.993  0.00  0.00    +0.000 NA
ATOM      3  C   UNL     1      -2.260  11.819  19.068  0.00  0.00    +0.000 A 
ATOM      4  S   UNL     1      -1.237  13.204  19.220  0.00  0.00    +0.000 S 
ATOM      5  C   UNL     1       0.177  12.215  19.212  0.00  0.00    +0.000 A 
ENDROOT
BRANCH   3   6
ATOM      6  C   UNL     1      -3.697  11.981  19.043  0.00  0.00    +0.000 C 
ATOM      7  C   UNL     1      -4.363  11.486  17.988  0.00  0.00    +0.000 C 
ATOM      8  C   UNL     1      -5.842  11.543  17.784  0.00  0.00    +0.000 C 
ATOM      9  N   UNL     1      -6.644  12.137  18.839  0.00  0.00    +0.000 NA
ATOM     10  C   UNL     1      -7.592  13.140  18.385  0.00  0.00    +0.000 C 
ATOM     11  C   UNL     1      -6.004  12.431  20.112  0.00  0.00    +0.000 C 
ATOM     12  C   UNL     1      -4.489  12.657  20.137  0.00  0.00    +0.000 C 
ENDBRANCH   3   6
BRANCH   1  16
ATOM     13  C   UNL     1       2.472   7.543  19.155  0.00  0.00    +0.000 A 
ATOM     14  C   UNL     1       2.241   8.223  17.962  0.00  0.00    +0.000 A 
ATOM     15  C   UNL     1       1.323   9.273  17.911  0.00  0.00    +0.000 A 
ATOM     16  C   UNL     1       0.663   9.712  19.065  0.00  0.00    +0.000 A 
ATOM     17  C   UNL     1       0.872   8.995  20.250  0.00  0.00    +0.000 A 
ATOM     18  C   UNL     1       1.764   7.913  20.297  0.00  0.00    +0.000 A 
BRANCH  13  20
ATOM     19  C   UNL     1       3.462   5.870  17.799  0.00  0.00    +0.000 C 
ATOM     20  O   UNL     1       3.375   6.522  19.061  0.00  0.00    +0.000 OA
ENDBRANCH  13  20
ENDBRANCH   1  16
BRANCH   5  21
ATOM     21  C   UNL     1       1.497  12.857  19.345  0.00  0.00    +0.000 A 
ATOM     22  C   UNL     1       2.286  13.130  18.218  0.00  0.00    +0.000 A 
ATOM     23  C   UNL     1       3.445  13.906  18.324  0.00  0.00    +0.000 A 
ATOM     24  C   UNL     1       3.869  14.383  19.563  0.00  0.00    +0.000 A 
ATOM     25  C   UNL     1       3.153  14.034  20.705  0.00  0.00    +0.000 A 
ATOM     26  C   UNL     1       1.973  13.287  20.595  0.00  0.00    +0.000 A 
BRANCH  24  27
ATOM     27  O   UNL     1       4.998  15.153  19.539  0.00  0.00    +0.000 OA
ATOM     28  C   UNL     1       5.705  15.179  18.303  0.00  0.00    +0.000 C 
ENDBRANCH  24  27
ENDBRANCH   5  21
TORSDOF 5
ENDMDL
MODEL 5
REMARK VINA RESULT:      -6.6      3.823      6.715
REMARK  Name = 
REMARK  8 active torsions:
REMARK  status: ('A' for Active; 'I' for Inactive)
REMARK    1  A    between atoms: C_1  and  O_2
REMARK    2  A    between atoms: O_2  and  C_3
REMARK    3  A    between atoms: C_6  and  C_7
REMARK    4  A    between atoms: C_9  and  C_10
REMARK    5  A    between atoms: N_13  and  C_14
REMARK    6  A    between atoms: C_18  and  C_19
REMARK    7  A    between atoms: C_22  and  O_23
REMARK    8  A    between atoms: O_23  and  C_24
REMARK                            x       y       z     vdW  Elec       q    Type
REMARK                         _______ _______ _______ _____ _____    ______ ____
ROOT
ATOM      1  C   UNL     1       1.054  11.615  19.098  0.00  0.00    +0.000 A 
ATOM      2  N   UNL     1       2.119  12.499  19.266  0.00  0.00    +0.000 NA
ATOM      3  C   UNL     1       1.739  13.754  19.138  0.00  0.00    +0.000 A 
ATOM      4  S   UNL     1       0.046  13.928  18.834  0.00  0.00    +0.000 S 
ATOM      5  C   UNL     1      -0.177  12.218  18.847  0.00  0.00    +0.000 A 
ENDROOT
BRANCH   3   6
ATOM      6  C   UNL     1       2.583  14.925  19.221  0.00  0.00    +0.000 C 
ATOM      7  C   UNL     1       3.627  15.003  18.381  0.00  0.00    +0.000 C 
ATOM      8  C   UNL     1       4.604  16.131  18.304  0.00  0.00    +0.000 C 
ATOM      9  N   UNL     1       4.384  17.272  19.176  0.00  0.00    +0.000 NA
ATOM     10  C   UNL     1       5.552  17.687  19.933  0.00  0.00    +0.000 C 
ATOM     11  C   UNL     1       3.124  17.358  19.898  0.00  0.00    +0.000 C 
ATOM     12  C   UNL     1       2.351  16.066  20.184  0.00  0.00    +0.000 C 
ENDBRANCH   3   6
BRANCH   1  16
ATOM     13  C   UNL     1       1.969   7.435  19.400  0.00  0.00    +0.000 A 
ATOM     14  C   UNL     1       2.178   8.107  18.198  0.00  0.00    +0.000 A 
ATOM     15  C   UNL     1       1.827   9.452  18.069  0.00  0.00    +0.000 A 
ATOM     16  C   UNL     1       1.323  10.174  19.157  0.00  0.00    +0.000 A 
ATOM     17  C   UNL     1       1.081   9.478  20.348  0.00  0.00    +0.000 A 
ATOM     18  C   UNL     1       1.394   8.117  20.470  0.00  0.00    +0.000 A 
BRANCH  13  20
ATOM     19  C   UNL     1       2.345   5.481  18.110  0.00  0.00    +0.000 C 
ATOM     20  O   UNL     1       2.334   6.118  19.384  0.00  0.00    +0.000 OA
ENDBRANCH  13  20
ENDBRANCH   1  16
BRANCH   5  21
ATOM     21  C   UNL     1      -1.525  11.673  18.603  0.00  0.00    +0.000 A 
ATOM     22  C   UNL     1      -2.652  12.218  19.235  0.00  0.00    +0.000 A 
ATOM     23  C   UNL     1      -3.943  11.830  18.861  0.00  0.00    +0.000 A 
ATOM     24  C   UNL     1      -4.136  10.854  17.886  0.00  0.00    +0.000 A 
ATOM     25  C   UNL     1      -3.026  10.229  17.323  0.00  0.00    +0.000 A 
ATOM     26  C   UNL     1      -1.734  10.643  17.670  0.00  0.00    +0.000 A 
BRANCH  24  27
ATOM     27  O   UNL     1      -5.440  10.578  17.583  0.00  0.00    +0.000 OA
ATOM     28  C   UNL     1      -6.348  10.590  18.681  0.00  0.00    +0.000 C 
ENDBRANCH  24  27
ENDBRANCH   5  21
TORSDOF 5
ENDMDL
MODEL 6
REMARK VINA RESULT:      -6.6      3.644      5.800
REMARK  Name = 
REMARK  8 active torsions:
REMARK  status: ('A' for Active; 'I' for Inactive)
REMARK    1  A    between atoms: C_1  and  O_2
REMARK    2  A    between atoms: O_2  and  C_3
REMARK    3  A    between atoms: C_6  and  C_7
REMARK    4  A    between atoms: C_9  and  C_10
REMARK    5  A    between atoms: N_13  and  C_14
REMARK    6  A    between atoms: C_18  and  C_19
REMARK    7  A    between atoms: C_22  and  O_23
REMARK    8  A    between atoms: O_23  and  C_24
REMARK                            x       y       z     vdW  Elec       q    Type
REMARK                         _______ _______ _______ _____ _____    ______ ____
ROOT
ATOM      1  C   UNL     1      -0.175  11.126  19.335  0.00  0.00    +0.000 A 
ATOM      2  N   UNL     1      -1.556  10.973  19.446  0.00  0.00    +0.000 NA
ATOM      3  C   UNL     1      -2.162  12.125  19.649  0.00  0.00    +0.000 A 
ATOM      4  S   UNL     1      -1.077  13.471  19.688  0.00  0.00    +0.000 S 
ATOM      5  C   UNL     1       0.283  12.438  19.446  0.00  0.00    +0.000 A 
ENDROOT
BRANCH   3   6
ATOM      6  C   UNL     1      -3.580  12.333  19.839  0.00  0.00    +0.000 C 
ATOM      7  C   UNL     1      -3.979  12.912  20.982  0.00  0.00    +0.000 C 
ATOM      8  C   UNL     1      -5.392  13.221  21.358  0.00  0.00    +0.000 C 
ATOM      9  N   UNL     1      -6.428  12.919  20.385  0.00  0.00    +0.000 NA
ATOM     10  C   UNL     1      -7.550  12.163  20.914  0.00  0.00    +0.000 C 
ATOM     11  C   UNL     1      -6.025  12.553  19.036  0.00  0.00    +0.000 C 
ATOM     12  C   UNL     1      -4.632  11.951  18.824  0.00  0.00    +0.000 C 
ENDBRANCH   3   6
BRANCH   1  16
ATOM     13  C   UNL     1       2.369   7.695  18.932  0.00  0.00    +0.000 A 
ATOM     14  C   UNL     1       2.048   8.458  17.812  0.00  0.00    +0.000 A 
ATOM     15  C   UNL     1       1.172   9.539  17.920  0.00  0.00    +0.000 A 
ATOM     16  C   UNL     1       0.652   9.926  19.160  0.00  0.00    +0.000 A 
ATOM     17  C   UNL     1       0.950   9.129  20.272  0.00  0.00    +0.000 A 
ATOM     18  C   UNL     1       1.797   8.016  20.161  0.00  0.00    +0.000 A 
BRANCH  13  20
ATOM     19  C   UNL     1       4.062   6.781  17.546  0.00  0.00    +0.000 C 
ATOM     20  O   UNL     1       3.216   6.652  18.684  0.00  0.00    +0.000 OA
ENDBRANCH  13  20
ENDBRANCH   1  16
BRANCH   5  21
ATOM     21  C   UNL     1       1.631  13.033  19.403  0.00  0.00    +0.000 A 
ATOM     22  C   UNL     1       2.283  13.260  18.182  0.00  0.00    +0.000 A 
ATOM     23  C   UNL     1       3.473  13.994  18.129  0.00  0.00    +0.000 A 
ATOM     24  C   UNL     1       4.063  14.473  19.296  0.00  0.00    +0.000 A 
ATOM     25  C   UNL     1       3.483  14.167  20.525  0.00  0.00    +0.000 A 
ATOM     26  C   UNL     1       2.273  13.463  20.575  0.00  0.00    +0.000 A 
BRANCH  24  27
ATOM     27  O   UNL     1       5.207  15.201  19.119  0.00  0.00    +0.000 OA
ATOM     28  C   UNL     1       6.019  14.819  18.013  0.00  0.00    +0.000 C 
ENDBRANCH  24  27
ENDBRANCH   5  21
TORSDOF 5
ENDMDL
MODEL 7
REMARK VINA RESULT:      -6.5      3.565      5.568
REMARK  Name = 
REMARK  8 active torsions:
REMARK  status: ('A' for Active; 'I' for Inactive)
REMARK    1  A    between atoms: C_1  and  O_2
REMARK    2  A    between atoms: O_2  and  C_3
REMARK    3  A    between atoms: C_6  and  C_7
REMARK    4  A    between atoms: C_9  and  C_10
REMARK    5  A    between atoms: N_13  and  C_14
REMARK    6  A    between atoms: C_18  and  C_19
REMARK    7  A    between atoms: C_22  and  O_23
REMARK    8  A    between atoms: O_23  and  C_24
REMARK                            x       y       z     vdW  Elec       q    Type
REMARK                         _______ _______ _______ _____ _____    ______ ____
ROOT
ATOM      1  C   UNL     1       0.201  11.813  19.106  0.00  0.00    +0.000 A 
ATOM      2  N   UNL     1      -1.031  12.467  19.072  0.00  0.00    +0.000 NA
ATOM      3  C   UNL     1      -2.027  11.625  18.884  0.00  0.00    +0.000 A 
ATOM      4  S   UNL     1      -1.518   9.978  18.765  0.00  0.00    +0.000 S 
ATOM      5  C   UNL     1       0.137  10.429  18.950  0.00  0.00    +0.000 A 
ENDROOT
BRANCH   3   6
ATOM      6  C   UNL     1      -3.429  11.960  18.767  0.00  0.00    +0.000 C 
ATOM      7  C   UNL     1      -3.993  12.643  19.775  0.00  0.00    +0.000 C 
ATOM      8  C   UNL     1      -5.418  13.090  19.837  0.00  0.00    +0.000 C 
ATOM      9  N   UNL     1      -6.262  12.809  18.688  0.00  0.00    +0.000 NA
ATOM     10  C   UNL     1      -7.532  12.184  19.010  0.00  0.00    +0.000 C 
ATOM     11  C   UNL     1      -5.632  12.324  17.470  0.00  0.00    +0.000 C 
ATOM     12  C   UNL     1      -4.286  11.599  17.577  0.00  0.00    +0.000 C 
ENDBRANCH   3   6
BRANCH   1  16
ATOM     13  C   UNL     1       3.657  14.305  19.610  0.00  0.00    +0.000 A 
ATOM     14  C   UNL     1       3.291  13.872  18.337  0.00  0.00    +0.000 A 
ATOM     15  C   UNL     1       2.205  13.011  18.167  0.00  0.00    +0.000 A 
ATOM     16  C   UNL     1       1.418  12.618  19.255  0.00  0.00    +0.000 A 
ATOM     17  C   UNL     1       1.818  13.027  20.534  0.00  0.00    +0.000 A 
ATOM     18  C   UNL     1       2.934  13.858  20.714  0.00  0.00    +0.000 A 
BRANCH  13  20
ATOM     19  C   UNL     1       5.579  15.110  18.480  0.00  0.00    +0.000 C 
ATOM     20  O   UNL     1       4.751  15.123  19.638  0.00  0.00    +0.000 OA
ENDBRANCH  13  20
ENDBRANCH   1  16
BRANCH   5  21
ATOM     21  C   UNL     1       1.171   9.379  18.911  0.00  0.00    +0.000 A 
ATOM     22  C   UNL     1       1.354   8.504  19.992  0.00  0.00    +0.000 A 
ATOM     23  C   UNL     1       2.199   7.394  19.881  0.00  0.00    +0.000 A 
ATOM     24  C   UNL     1       2.917   7.163  18.710  0.00  0.00    +0.000 A 
ATOM     25  C   UNL     1       2.826   8.080  17.666  0.00  0.00    +0.000 A 
ATOM     26  C   UNL     1       1.952   9.171  17.763  0.00  0.00    +0.000 A 
BRANCH  24  27
ATOM     27  O   UNL     1       3.687   6.034  18.708  0.00  0.00    +0.000 OA
ATOM     28  C   UNL     1       4.128   5.587  17.429  0.00  0.00    +0.000 C 
ENDBRANCH  24  27
ENDBRANCH   5  21
TORSDOF 5
ENDMDL
MODEL 8
REMARK VINA RESULT:      -6.5      4.470      6.761
REMARK  Name = 
REMARK  8 active torsions:
REMARK  status: ('A' for Active; 'I' for Inactive)
REMARK    1  A    between atoms: C_1  and  O_2
REMARK    2  A    between atoms: O_2  and  C_3
REMARK    3  A    between atoms: C_6  and  C_7
REMARK    4  A    between atoms: C_9  and  C_10
REMARK    5  A    between atoms: N_13  and  C_14
REMARK    6  A    between atoms: C_18  and  C_19
REMARK    7  A    between atoms: C_22  and  O_23
REMARK    8  A    between atoms: O_23  and  C_24
REMARK                            x       y       z     vdW  Elec       q    Type
REMARK                         _______ _______ _______ _____ _____    ______ ____
ROOT
ATOM      1  C   UNL     1       0.669  12.595  19.530  0.00  0.00    +0.000 A 
ATOM      2  N   UNL     1       1.846  13.047  18.934  0.00  0.00    +0.000 NA
ATOM      3  C   UNL     1       2.554  13.796  19.755  0.00  0.00    +0.000 A 
ATOM      4  S   UNL     1       1.834  13.968  21.317  0.00  0.00    +0.000 S 
ATOM      5  C   UNL     1       0.482  13.004  20.849  0.00  0.00    +0.000 A 
ENDROOT
BRANCH   3   6
ATOM      6  C   UNL     1       3.808  14.451  19.460  0.00  0.00    +0.000 C 
ATOM      7  C   UNL     1       4.538  14.898  20.495  0.00  0.00    +0.000 C 
ATOM      8  C   UNL     1       5.860  15.588  20.398  0.00  0.00    +0.000 C 
ATOM      9  N   UNL     1       6.439  15.748  19.075  0.00  0.00    +0.000 NA
ATOM     10  C   UNL     1       6.887  17.096  18.772  0.00  0.00    +0.000 C 
ATOM     11  C   UNL     1       5.827  15.041  17.962  0.00  0.00    +0.000 C 
ATOM     12  C   UNL     1       4.349  14.648  18.064  0.00  0.00    +0.000 C 
ENDBRANCH   3   6
BRANCH   1  16
ATOM     13  C   UNL     1      -1.908  10.214  17.060  0.00  0.00    +0.000 A 
ATOM     14  C   UNL     1      -2.208  11.555  17.289  0.00  0.00    +0.000 A 
ATOM     15  C   UNL     1      -1.412  12.324  18.139  0.00  0.00    +0.000 A 
ATOM     16  C   UNL     1      -0.259  11.790  18.727  0.00  0.00    +0.000 A 
ATOM     17  C   UNL     1       0.011  10.431  18.522  0.00  0.00    +0.000 A 
ATOM     18  C   UNL     1      -0.810   9.644  17.701  0.00  0.00    +0.000 A 
BRANCH  13  20
ATOM     19  C   UNL     1      -3.159  10.271  15.047  0.00  0.00    +0.000 C 
ATOM     20  O   UNL     1      -2.780   9.571  16.228  0.00  0.00    +0.000 OA
ENDBRANCH  13  20
ENDBRANCH   1  16
BRANCH   5  21
ATOM     21  C   UNL     1      -0.599  12.771  21.824  0.00  0.00    +0.000 A 
ATOM     22  C   UNL     1      -1.578  13.745  22.066  0.00  0.00    +0.000 A 
ATOM     23  C   UNL     1      -2.705  13.454  22.843  0.00  0.00    +0.000 A 
ATOM     24  C   UNL     1      -2.852  12.203  23.437  0.00  0.00    +0.000 A 
ATOM     25  C   UNL     1      -1.838  11.259  23.292  0.00  0.00    +0.000 A 
ATOM     26  C   UNL     1      -0.728  11.538  22.484  0.00  0.00    +0.000 A 
BRANCH  24  27
ATOM     27  O   UNL     1      -4.005  12.024  24.149  0.00  0.00    +0.000 OA
ATOM     28  C   UNL     1      -5.052  12.952  23.878  0.00  0.00    +0.000 C 
ENDBRANCH  24  27
ENDBRANCH   5  21
TORSDOF 5
ENDMDL
MODEL 9
REMARK VINA RESULT:      -6.5      0.686      1.160
REMARK  Name = 
REMARK  8 active torsions:
REMARK  status: ('A' for Active; 'I' for Inactive)
REMARK    1  A    between atoms: C_1  and  O_2
REMARK    2  A    between atoms: O_2  and  C_3
REMARK    3  A    between atoms: C_6  and  C_7
REMARK    4  A    between atoms: C_9  and  C_10
REMARK    5  A    between atoms: N_13  and  C_14
REMARK    6  A    between atoms: C_18  and  C_19
REMARK    7  A    between atoms: C_22  and  O_23
REMARK    8  A    between atoms: O_23  and  C_24
REMARK                            x       y       z     vdW  Elec       q    Type
REMARK                         _______ _______ _______ _____ _____    ______ ____
ROOT
ATOM      1  C   UNL     1      -1.168  11.233  19.615  0.00  0.00    +0.000 A 
ATOM      2  N   UNL     1      -1.742  12.219  20.418  0.00  0.00    +0.000 NA
ATOM      3  C   UNL     1      -1.057  12.406  21.528  0.00  0.00    +0.000 A 
ATOM      4  S   UNL     1       0.348  11.406  21.643  0.00  0.00    +0.000 S 
ATOM      5  C   UNL     1      -0.004  10.662  20.126  0.00  0.00    +0.000 A 
ENDROOT
BRANCH   3   6
ATOM      6  C   UNL     1      -1.381  13.325  22.597  0.00  0.00    +0.000 C 
ATOM      7  C   UNL     1      -0.619  14.422  22.729  0.00  0.00    +0.000 C 
ATOM      8  C   UNL     1      -0.798  15.491  23.758  0.00  0.00    +0.000 C 
ATOM      9  N   UNL     1      -1.925  15.367  24.667  0.00  0.00    +0.000 NA
ATOM     10  C   UNL     1      -1.587  15.523  26.071  0.00  0.00    +0.000 C 
ATOM     11  C   UNL     1      -2.930  14.353  24.388  0.00  0.00    +0.000 C 
ATOM     12  C   UNL     1      -2.529  13.129  23.558  0.00  0.00    +0.000 C 
ENDBRANCH   3   6
BRANCH   1  16
ATOM     13  C   UNL     1      -3.253  10.306  15.982  0.00  0.00    +0.000 A 
ATOM     14  C   UNL     1      -3.239   9.388  17.030  0.00  0.00    +0.000 A 
ATOM     15  C   UNL     1      -2.514   9.652  18.193  0.00  0.00    +0.000 A 
ATOM     16  C   UNL     1      -1.841  10.868  18.365  0.00  0.00    +0.000 A 
ATOM     17  C   UNL     1      -1.829  11.766  17.290  0.00  0.00    +0.000 A 
ATOM     18  C   UNL     1      -2.523  11.487  16.103  0.00  0.00    +0.000 A 
BRANCH  13  20
ATOM     19  C   UNL     1      -3.309   9.951  13.639  0.00  0.00    +0.000 C 
ATOM     20  O   UNL     1      -3.981   9.915  14.894  0.00  0.00    +0.000 OA
ENDBRANCH  13  20
ENDBRANCH   1  16
BRANCH   5  21
ATOM     21  C   UNL     1       0.895   9.607  19.625  0.00  0.00    +0.000 A 
ATOM     22  C   UNL     1       1.279   8.534  20.443  0.00  0.00    +0.000 A 
ATOM     23  C   UNL     1       1.972   7.440  19.914  0.00  0.00    +0.000 A 
ATOM     24  C   UNL     1       2.341   7.416  18.571  0.00  0.00    +0.000 A 
ATOM     25  C   UNL     1       2.058   8.519  17.770  0.00  0.00    +0.000 A 
ATOM     26  C   UNL     1       1.333   9.599  18.291  0.00  0.00    +0.000 A 
BRANCH  24  27
ATOM     27  O   UNL     1       2.989   6.284  18.161  0.00  0.00    +0.000 OA
ATOM     28  C   UNL     1       4.043   5.832  19.005  0.00  0.00    +0.000 C 
ENDBRANCH  24  27
ENDBRANCH   5  21
TORSDOF 5
ENDMDL
