MODEL 1
REMARK VINA RESULT:      -7.5      0.000      0.000
REMARK  Name = 
REMARK  5 active torsions:
REMARK  status: ('A' for Active; 'I' for Inactive)
REMARK    1  A    between atoms: C_1  and  C_2
REMARK    2  A    between atoms: C_2  and  C_3
REMARK    3  A    between atoms: C_14  and  C_15
REMARK    4  A    between atoms: N_17  and  C_18
REMARK    5  A    between atoms: C_19  and  C_20
REMARK                            x       y       z     vdW  Elec       q    Type
REMARK                         _______ _______ _______ _____ _____    ______ ____
ROOT
ATOM      1  C   UNL     1       5.864   4.678  15.901  0.00  0.00    +0.000 A 
ATOM      2  C   UNL     1       6.731   5.741  16.139  0.00  0.00    +0.000 A 
ATOM      3  C   UNL     1       6.367   6.683  17.087  0.00  0.00    +0.000 A 
ATOM      4  N   UNL     1       5.216   6.640  17.783  0.00  0.00    +0.000 NA
ATOM      5  C   UNL     1       4.358   5.625  17.546  0.00  0.00    +0.000 A 
ATOM      6  N   UNL     1       3.121   5.559  18.225  0.00  0.00    +0.000 N 
ATOM      7  C   UNL     1       2.552   6.636  18.827  0.00  0.00    +0.000 A 
ATOM      8  N   UNL     1       1.917   6.563  19.981  0.00  0.00    +0.000 NA
ATOM      9  C   UNL     1       1.452   7.816  20.361  0.00  0.00    +0.000 A 
ATOM     10  C   UNL     1       0.771   8.139  21.555  0.00  0.00    +0.000 A 
ATOM     11  C   UNL     1       0.366   9.464  21.802  0.00  0.00    +0.000 A 
ATOM     12  C   UNL     1       0.629  10.464  20.863  0.00  0.00    +0.000 A 
ATOM     13  C   UNL     1       1.291  10.158  19.665  0.00  0.00    +0.000 A 
ATOM     14  C   UNL     1       1.690   8.835  19.441  0.00  0.00    +0.000 A 
ATOM     15  S   UNL     1       2.482   8.189  18.073  0.00  0.00    +0.000 S 
ATOM     16  C   UNL     1       4.661   4.625  16.617  0.00  0.00    +0.000 A 
ATOM     17  H   UNL     1       3.061   4.705  18.766  0.00  0.00    +0.000 HD
ENDROOT
BRANCH  12  18
ATOM     18  C   UNL     1       0.154  11.863  21.034  0.00  0.00    +0.000 C 
ATOM     19  O   UNL     1       0.322  12.407  22.120  0.00  0.00    +0.000 OA
ATOM     20  N   UNL     1      -0.519  12.418  19.953  0.00  0.00    +0.000 N 
ATOM     21  H   UNL     1      -1.050  11.750  19.403  0.00  0.00    +0.000 HD
BRANCH  20  22
ATOM     22  C   UNL     1      -1.103  13.712  20.059  0.00  0.00    +0.000 A 
ATOM     23  C   UNL     1      -0.420  14.879  19.660  0.00  0.00    +0.000 A 
ATOM     24  C   UNL     1       0.894  14.869  18.923  0.00  0.00    +0.000 C 
ATOM     25  C   UNL     1      -1.004  16.133  19.915  0.00  0.00    +0.000 A 
ATOM     26  C   UNL     1      -2.262  16.235  20.508  0.00  0.00    +0.000 A 
ATOM     27  C   UNL     1      -2.970  15.081  20.827  0.00  0.00    +0.000 A 
ATOM     28  C   UNL     1      -2.401  13.827  20.590  0.00  0.00    +0.000 A 
ATOM     29 CL   UNL     1      -3.312  12.421  21.029  0.00  0.00    +0.000 Cl
ENDBRANCH  20  22
ENDBRANCH  12  18
BRANCH   1  31
ATOM     30  C   UNL     1       5.689   3.987  13.483  0.00  0.00    +0.000 C 
ATOM     31  C   UNL     1       6.205   3.633  14.870  0.00  0.00    +0.000 C 
ENDBRANCH   1  31
TORSDOF 3
ENDMDL
MODEL 2
REMARK VINA RESULT:      -7.5      1.635      2.008
REMARK  Name = 
REMARK  5 active torsions:
REMARK  status: ('A' for Active; 'I' for Inactive)
REMARK    1  A    between atoms: C_1  and  C_2
REMARK    2  A    between atoms: C_2  and  C_3
REMARK    3  A    between atoms: C_14  and  C_15
REMARK    4  A    between atoms: N_17  and  C_18
REMARK    5  A    between atoms: C_19  and  C_20
REMARK                            x       y       z     vdW  Elec       q    Type
REMARK                         _______ _______ _______ _____ _____    ______ ____
ROOT
ATOM      1  C   UNL     1       5.731   4.708  15.988  0.00  0.00    +0.000 A 
ATOM      2  C   UNL     1       6.522   5.854  16.008  0.00  0.00    +0.000 A 
ATOM      3  C   UNL     1       6.159   6.886  16.857  0.00  0.00    +0.000 A 
ATOM      4  N   UNL     1       5.076   6.854  17.655  0.00  0.00    +0.000 NA
ATOM      5  C   UNL     1       4.289   5.757  17.629  0.00  0.00    +0.000 A 
ATOM      6  N   UNL     1       3.121   5.694  18.421  0.00  0.00    +0.000 N 
ATOM      7  C   UNL     1       2.515   6.798  18.930  0.00  0.00    +0.000 A 
ATOM      8  N   UNL     1       1.984   6.835  20.137  0.00  0.00    +0.000 NA
ATOM      9  C   UNL     1       1.448   8.091  20.394  0.00  0.00    +0.000 A 
ATOM     10  C   UNL     1       0.841   8.523  21.594  0.00  0.00    +0.000 A 
ATOM     11  C   UNL     1       0.348   9.836  21.706  0.00  0.00    +0.000 A 
ATOM     12  C   UNL     1       0.450  10.717  20.626  0.00  0.00    +0.000 A 
ATOM     13  C   UNL     1       1.035  10.301  19.422  0.00  0.00    +0.000 A 
ATOM     14  C   UNL     1       1.524   8.992  19.334  0.00  0.00    +0.000 A 
ATOM     15  S   UNL     1       2.255   8.226  17.992  0.00  0.00    +0.000 S 
ATOM     16  C   UNL     1       4.598   4.665  16.812  0.00  0.00    +0.000 A 
ATOM     17  H   UNL     1       3.178   4.919  19.071  0.00  0.00    +0.000 HD
ENDROOT
BRANCH  12  18
ATOM     18  C   UNL     1      -0.126  12.088  20.659  0.00  0.00    +0.000 C 
ATOM     19  O   UNL     1      -1.168  12.297  20.048  0.00  0.00    +0.000 OA
ATOM     20  N   UNL     1       0.618  13.049  21.331  0.00  0.00    +0.000 N 
ATOM     21  H   UNL     1       1.622  12.906  21.288  0.00  0.00    +0.000 HD
BRANCH  20  22
ATOM     22  C   UNL     1       0.202  14.410  21.328  0.00  0.00    +0.000 A 
ATOM     23  C   UNL     1      -0.695  14.923  22.287  0.00  0.00    +0.000 A 
ATOM     24  C   UNL     1      -1.153  14.157  23.499  0.00  0.00    +0.000 C 
ATOM     25  C   UNL     1      -1.165  16.242  22.145  0.00  0.00    +0.000 A 
ATOM     26  C   UNL     1      -0.721  17.057  21.105  0.00  0.00    +0.000 A 
ATOM     27  C   UNL     1       0.226  16.577  20.207  0.00  0.00    +0.000 A 
ATOM     28  C   UNL     1       0.696  15.266  20.326  0.00  0.00    +0.000 A 
ATOM     29 CL   UNL     1       1.855  14.706  19.167  0.00  0.00    +0.000 Cl
ENDBRANCH  20  22
ENDBRANCH  12  18
BRANCH   1  31
ATOM     30  C   UNL     1       6.243   3.996  13.624  0.00  0.00    +0.000 C 
ATOM     31  C   UNL     1       6.074   3.561  15.072  0.00  0.00    +0.000 C 
ENDBRANCH   1  31
TORSDOF 3
ENDMDL
MODEL 3
REMARK VINA RESULT:      -7.5      1.662      2.139
REMARK  Name = 
REMARK  5 active torsions:
REMARK  status: ('A' for Active; 'I' for Inactive)
REMARK    1  A    between atoms: C_1  and  C_2
REMARK    2  A    between atoms: C_2  and  C_3
REMARK    3  A    between atoms: C_14  and  C_15
REMARK    4  A    between atoms: N_17  and  C_18
REMARK    5  A    between atoms: C_19  and  C_20
REMARK                            x       y       z     vdW  Elec       q    Type
REMARK                         _______ _______ _______ _____ _____    ______ ____
ROOT
ATOM      1  C   UNL     1       5.901   4.737  16.112  0.00  0.00    +0.000 A 
ATOM      2  C   UNL     1       6.620   5.929  16.152  0.00  0.00    +0.000 A 
ATOM      3  C   UNL     1       6.198   6.920  17.022  0.00  0.00    +0.000 A 
ATOM      4  N   UNL     1       5.122   6.805  17.824  0.00  0.00    +0.000 NA
ATOM      5  C   UNL     1       4.406   5.662  17.779  0.00  0.00    +0.000 A 
ATOM      6  N   UNL     1       3.248   5.511  18.575  0.00  0.00    +0.000 N 
ATOM      7  C   UNL     1       2.577   6.565  19.108  0.00  0.00    +0.000 A 
ATOM      8  N   UNL     1       2.051   6.546  20.318  0.00  0.00    +0.000 NA
ATOM      9  C   UNL     1       1.439   7.760  20.602  0.00  0.00    +0.000 A 
ATOM     10  C   UNL     1       0.813   8.130  21.813  0.00  0.00    +0.000 A 
ATOM     11  C   UNL     1       0.240   9.407  21.952  0.00  0.00    +0.000 A 
ATOM     12  C   UNL     1       0.281  10.313  20.890  0.00  0.00    +0.000 A 
ATOM     13  C   UNL     1       0.885   9.958  19.675  0.00  0.00    +0.000 A 
ATOM     14  C   UNL     1       1.454   8.684  19.559  0.00  0.00    +0.000 A 
ATOM     15  S   UNL     1       2.223   7.992  18.200  0.00  0.00    +0.000 S 
ATOM     16  C   UNL     1       4.778   4.608  16.940  0.00  0.00    +0.000 A 
ATOM     17  H   UNL     1       3.356   4.728  19.209  0.00  0.00    +0.000 HD
ENDROOT
BRANCH  12  18
ATOM     18  C   UNL     1      -0.379  11.645  20.953  0.00  0.00    +0.000 C 
ATOM     19  O   UNL     1      -0.787  12.142  19.909  0.00  0.00    +0.000 OA
ATOM     20  N   UNL     1      -0.411  12.255  22.200  0.00  0.00    +0.000 N 
ATOM     21  H   UNL     1       0.385  12.038  22.792  0.00  0.00    +0.000 HD
BRANCH  20  22
ATOM     22  C   UNL     1      -0.928  13.574  22.341  0.00  0.00    +0.000 A 
ATOM     23  C   UNL     1      -2.248  13.822  22.767  0.00  0.00    +0.000 A 
ATOM     24  C   UNL     1      -3.175  12.755  23.287  0.00  0.00    +0.000 C 
ATOM     25  C   UNL     1      -2.732  15.143  22.756  0.00  0.00    +0.000 A 
ATOM     26  C   UNL     1      -1.914  16.207  22.380  0.00  0.00    +0.000 A 
ATOM     27  C   UNL     1      -0.586  15.970  22.037  0.00  0.00    +0.000 A 
ATOM     28  C   UNL     1      -0.092  14.663  22.032  0.00  0.00    +0.000 A 
ATOM     29 CL   UNL     1       1.560  14.418  21.574  0.00  0.00    +0.000 Cl
ENDBRANCH  20  22
ENDBRANCH  12  18
BRANCH   1  31
ATOM     30  C   UNL     1       6.124   4.007  13.710  0.00  0.00    +0.000 C 
ATOM     31  C   UNL     1       6.309   3.632  15.173  0.00  0.00    +0.000 C 
ENDBRANCH   1  31
TORSDOF 3
ENDMDL
MODEL 4
REMARK VINA RESULT:      -7.5      1.420      1.429
REMARK  Name = 
REMARK  5 active torsions:
REMARK  status: ('A' for Active; 'I' for Inactive)
REMARK    1  A    between atoms: C_1  and  C_2
REMARK    2  A    between atoms: C_2  and  C_3
REMARK    3  A    between atoms: C_14  and  C_15
REMARK    4  A    between atoms: N_17  and  C_18
REMARK    5  A    between atoms: C_19  and  C_20
REMARK                            x       y       z     vdW  Elec       q    Type
REMARK                         _______ _______ _______ _____ _____    ______ ____
ROOT
ATOM      1  C   UNL     1       5.683   4.724  16.108  0.00  0.00    +0.000 A 
ATOM      2  C   UNL     1       6.443   5.891  16.106  0.00  0.00    +0.000 A 
ATOM      3  C   UNL     1       6.076   6.912  16.966  0.00  0.00    +0.000 A 
ATOM      4  N   UNL     1       5.018   6.850  17.795  0.00  0.00    +0.000 NA
ATOM      5  C   UNL     1       4.261   5.732  17.791  0.00  0.00    +0.000 A 
ATOM      6  N   UNL     1       3.119   5.636  18.617  0.00  0.00    +0.000 N 
ATOM      7  C   UNL     1       2.498   6.724  19.145  0.00  0.00    +0.000 A 
ATOM      8  N   UNL     1       2.001   6.745  20.366  0.00  0.00    +0.000 NA
ATOM      9  C   UNL     1       1.438   7.986  20.640  0.00  0.00    +0.000 A 
ATOM     10  C   UNL     1       0.855   8.400  21.858  0.00  0.00    +0.000 A 
ATOM     11  C   UNL     1       0.329   9.699  21.985  0.00  0.00    +0.000 A 
ATOM     12  C   UNL     1       0.375  10.583  20.904  0.00  0.00    +0.000 A 
ATOM     13  C   UNL     1       0.936  10.183  19.683  0.00  0.00    +0.000 A 
ATOM     14  C   UNL     1       1.459   8.889  19.579  0.00  0.00    +0.000 A 
ATOM     15  S   UNL     1       2.170   8.144  18.216  0.00  0.00    +0.000 S 
ATOM     16  C   UNL     1       4.577   4.650  16.964  0.00  0.00    +0.000 A 
ATOM     17  H   UNL     1       3.216   4.863  19.264  0.00  0.00    +0.000 HD
ENDROOT
BRANCH  12  18
ATOM     18  C   UNL     1      -0.237  11.937  20.955  0.00  0.00    +0.000 C 
ATOM     19  O   UNL     1      -0.479  12.508  19.898  0.00  0.00    +0.000 OA
ATOM     20  N   UNL     1      -0.418  12.481  22.220  0.00  0.00    +0.000 N 
ATOM     21  H   UNL     1       0.280  12.197  22.901  0.00  0.00    +0.000 HD
BRANCH  20  22
ATOM     22  C   UNL     1      -0.900  13.812  22.368  0.00  0.00    +0.000 A 
ATOM     23  C   UNL     1      -0.042  14.930  22.324  0.00  0.00    +0.000 A 
ATOM     24  C   UNL     1       1.412  14.856  21.940  0.00  0.00    +0.000 C 
ATOM     25  C   UNL     1      -0.567  16.204  22.609  0.00  0.00    +0.000 A 
ATOM     26  C   UNL     1      -1.923  16.380  22.883  0.00  0.00    +0.000 A 
ATOM     27  C   UNL     1      -2.783  15.288  22.845  0.00  0.00    +0.000 A 
ATOM     28  C   UNL     1      -2.277  14.013  22.574  0.00  0.00    +0.000 A 
ATOM     29 CL   UNL     1      -3.384  12.681  22.564  0.00  0.00    +0.000 Cl
ENDBRANCH  20  22
ENDBRANCH  12  18
BRANCH   1  31
ATOM     30  C   UNL     1       6.332   4.055  13.765  0.00  0.00    +0.000 C 
ATOM     31  C   UNL     1       6.031   3.587  15.182  0.00  0.00    +0.000 C 
ENDBRANCH   1  31
TORSDOF 3
ENDMDL
MODEL 5
REMARK VINA RESULT:      -7.4      1.373      1.380
REMARK  Name = 
REMARK  5 active torsions:
REMARK  status: ('A' for Active; 'I' for Inactive)
REMARK    1  A    between atoms: C_1  and  C_2
REMARK    2  A    between atoms: C_2  and  C_3
REMARK    3  A    between atoms: C_14  and  C_15
REMARK    4  A    between atoms: N_17  and  C_18
REMARK    5  A    between atoms: C_19  and  C_20
REMARK                            x       y       z     vdW  Elec       q    Type
REMARK                         _______ _______ _______ _____ _____    ______ ____
ROOT
ATOM      1  C   UNL     1       5.595   4.748  16.018  0.00  0.00    +0.000 A 
ATOM      2  C   UNL     1       6.383   5.896  15.996  0.00  0.00    +0.000 A 
ATOM      3  C   UNL     1       6.039   6.942  16.835  0.00  0.00    +0.000 A 
ATOM      4  N   UNL     1       4.978   6.922  17.663  0.00  0.00    +0.000 NA
ATOM      5  C   UNL     1       4.195   5.822  17.678  0.00  0.00    +0.000 A 
ATOM      6  N   UNL     1       3.049   5.770  18.503  0.00  0.00    +0.000 N 
ATOM      7  C   UNL     1       2.453   6.881  19.008  0.00  0.00    +0.000 A 
ATOM      8  N   UNL     1       1.955   6.939  20.228  0.00  0.00    +0.000 NA
ATOM      9  C   UNL     1       1.421   8.197  20.477  0.00  0.00    +0.000 A 
ATOM     10  C   UNL     1       0.846   8.649  21.685  0.00  0.00    +0.000 A 
ATOM     11  C   UNL     1       0.351   9.962  21.786  0.00  0.00    +0.000 A 
ATOM     12  C   UNL     1       0.420  10.823  20.688  0.00  0.00    +0.000 A 
ATOM     13  C   UNL     1       0.974  10.387  19.476  0.00  0.00    +0.000 A 
ATOM     14  C   UNL     1       1.465   9.079  19.399  0.00  0.00    +0.000 A 
ATOM     15  S   UNL     1       2.162   8.291  18.052  0.00  0.00    +0.000 S 
ATOM     16  C   UNL     1       4.485   4.717  16.873  0.00  0.00    +0.000 A 
ATOM     17  H   UNL     1       3.126   5.007  19.164  0.00  0.00    +0.000 HD
ENDROOT
BRANCH  12  18
ATOM     18  C   UNL     1      -0.159  12.193  20.712  0.00  0.00    +0.000 C 
ATOM     19  O   UNL     1      -1.274  12.363  20.230  0.00  0.00    +0.000 OA
ATOM     20  N   UNL     1       0.656  13.195  21.222  0.00  0.00    +0.000 N 
ATOM     21  H   UNL     1       1.647  13.051  21.058  0.00  0.00    +0.000 HD
BRANCH  20  22
ATOM     22  C   UNL     1       0.230  14.553  21.191  0.00  0.00    +0.000 A 
ATOM     23  C   UNL     1       0.587  15.428  20.145  0.00  0.00    +0.000 A 
ATOM     24  C   UNL     1       1.282  14.987  18.884  0.00  0.00    +0.000 C 
ATOM     25  C   UNL     1       0.242  16.788  20.246  0.00  0.00    +0.000 A 
ATOM     26  C   UNL     1      -0.486  17.268  21.334  0.00  0.00    +0.000 A 
ATOM     27  C   UNL     1      -0.908  16.388  22.325  0.00  0.00    +0.000 A 
ATOM     28  C   UNL     1      -0.565  15.036  22.247  0.00  0.00    +0.000 A 
ATOM     29 CL   UNL     1      -1.093  13.986  23.519  0.00  0.00    +0.000 Cl
ENDBRANCH  20  22
ENDBRANCH  12  18
BRANCH   1  31
ATOM     30  C   UNL     1       6.438   4.026  13.754  0.00  0.00    +0.000 C 
ATOM     31  C   UNL     1       5.917   3.586  15.114  0.00  0.00    +0.000 C 
ENDBRANCH   1  31
TORSDOF 3
ENDMDL
MODEL 6
REMARK VINA RESULT:      -7.4      1.130      1.800
REMARK  Name = 
REMARK  5 active torsions:
REMARK  status: ('A' for Active; 'I' for Inactive)
REMARK    1  A    between atoms: C_1  and  C_2
REMARK    2  A    between atoms: C_2  and  C_3
REMARK    3  A    between atoms: C_14  and  C_15
REMARK    4  A    between atoms: N_17  and  C_18
REMARK    5  A    between atoms: C_19  and  C_20
REMARK                            x       y       z     vdW  Elec       q    Type
REMARK                         _______ _______ _______ _____ _____    ______ ____
ROOT
ATOM      1  C   UNL     1       5.866   4.790  15.828  0.00  0.00    +0.000 A 
ATOM      2  C   UNL     1       6.706   5.868  16.093  0.00  0.00    +0.000 A 
ATOM      3  C   UNL     1       6.328   6.765  17.078  0.00  0.00    +0.000 A 
ATOM      4  N   UNL     1       5.188   6.666  17.786  0.00  0.00    +0.000 NA
ATOM      5  C   UNL     1       4.355   5.636  17.523  0.00  0.00    +0.000 A 
ATOM      6  N   UNL     1       3.129   5.511  18.214  0.00  0.00    +0.000 N 
ATOM      7  C   UNL     1       2.539   6.549  18.861  0.00  0.00    +0.000 A 
ATOM      8  N   UNL     1       1.921   6.417  20.019  0.00  0.00    +0.000 NA
ATOM      9  C   UNL     1       1.425   7.643  20.448  0.00  0.00    +0.000 A 
ATOM     10  C   UNL     1       0.751   7.905  21.661  0.00  0.00    +0.000 A 
ATOM     11  C   UNL     1       0.313   9.208  21.960  0.00  0.00    +0.000 A 
ATOM     12  C   UNL     1       0.536  10.247  21.053  0.00  0.00    +0.000 A 
ATOM     13  C   UNL     1       1.190  10.003  19.838  0.00  0.00    +0.000 A 
ATOM     14  C   UNL     1       1.623   8.700  19.563  0.00  0.00    +0.000 A 
ATOM     15  S   UNL     1       2.415   8.125  18.163  0.00  0.00    +0.000 S 
ATOM     16  C   UNL     1       4.674   4.678  16.556  0.00  0.00    +0.000 A 
ATOM     17  H   UNL     1       3.101   4.637  18.725  0.00  0.00    +0.000 HD
ENDROOT
BRANCH  12  18
ATOM     18  C   UNL     1       0.023  11.625  21.279  0.00  0.00    +0.000 C 
ATOM     19  O   UNL     1       0.728  12.415  21.897  0.00  0.00    +0.000 OA
ATOM     20  N   UNL     1      -1.265  11.882  20.828  0.00  0.00    +0.000 N 
ATOM     21  H   UNL     1      -1.888  11.081  20.863  0.00  0.00    +0.000 HD
BRANCH  20  22
ATOM     22  C   UNL     1      -1.881  13.138  21.091  0.00  0.00    +0.000 A 
ATOM     23  C   UNL     1      -2.789  13.322  22.153  0.00  0.00    +0.000 A 
ATOM     24  C   UNL     1      -3.058  12.287  23.213  0.00  0.00    +0.000 C 
ATOM     25  C   UNL     1      -3.459  14.553  22.272  0.00  0.00    +0.000 A 
ATOM     26  C   UNL     1      -3.202  15.602  21.391  0.00  0.00    +0.000 A 
ATOM     27  C   UNL     1      -2.245  15.447  20.393  0.00  0.00    +0.000 A 
ATOM     28  C   UNL     1      -1.577  14.228  20.253  0.00  0.00    +0.000 A 
ATOM     29 CL   UNL     1      -0.414  14.076  18.979  0.00  0.00    +0.000 Cl
ENDBRANCH  20  22
ENDBRANCH  12  18
BRANCH   1  31
ATOM     30  C   UNL     1       6.708   4.454  13.475  0.00  0.00    +0.000 C 
ATOM     31  C   UNL     1       6.223   3.792  14.756  0.00  0.00    +0.000 C 
ENDBRANCH   1  31
TORSDOF 3
ENDMDL
MODEL 7
REMARK VINA RESULT:      -7.4      3.219     10.428
REMARK  Name = 
REMARK  5 active torsions:
REMARK  status: ('A' for Active; 'I' for Inactive)
REMARK    1  A    between atoms: C_1  and  C_2
REMARK    2  A    between atoms: C_2  and  C_3
REMARK    3  A    between atoms: C_14  and  C_15
REMARK    4  A    between atoms: N_17  and  C_18
REMARK    5  A    between atoms: C_19  and  C_20
REMARK                            x       y       z     vdW  Elec       q    Type
REMARK                         _______ _______ _______ _____ _____    ______ ____
ROOT
ATOM      1  C   UNL     1      -3.122  14.240  22.555  0.00  0.00    +0.000 A 
ATOM      2  C   UNL     1      -3.582  14.119  21.246  0.00  0.00    +0.000 A 
ATOM      3  C   UNL     1      -3.171  13.023  20.506  0.00  0.00    +0.000 A 
ATOM      4  N   UNL     1      -2.339  12.073  20.972  0.00  0.00    +0.000 NA
ATOM      5  C   UNL     1      -1.869  12.191  22.232  0.00  0.00    +0.000 A 
ATOM      6  N   UNL     1      -0.964  11.239  22.752  0.00  0.00    +0.000 N 
ATOM      7  C   UNL     1      -0.230  10.413  21.961  0.00  0.00    +0.000 A 
ATOM      8  N   UNL     1       0.008   9.151  22.265  0.00  0.00    +0.000 NA
ATOM      9  C   UNL     1       0.772   8.548  21.273  0.00  0.00    +0.000 A 
ATOM     10  C   UNL     1       1.182   7.197  21.225  0.00  0.00    +0.000 A 
ATOM     11  C   UNL     1       1.952   6.730  20.144  0.00  0.00    +0.000 A 
ATOM     12  C   UNL     1       2.321   7.602  19.117  0.00  0.00    +0.000 A 
ATOM     13  C   UNL     1       1.936   8.950  19.156  0.00  0.00    +0.000 A 
ATOM     14  C   UNL     1       1.165   9.393  20.238  0.00  0.00    +0.000 A 
ATOM     15  S   UNL     1       0.587  10.971  20.544  0.00  0.00    +0.000 S 
ATOM     16  C   UNL     1      -2.252  13.259  23.049  0.00  0.00    +0.000 A 
ATOM     17  H   UNL     1      -1.359  10.786  23.567  0.00  0.00    +0.000 HD
ENDROOT
BRANCH  12  18
ATOM     18  C   UNL     1       3.201   7.183  17.994  0.00  0.00    +0.000 C 
ATOM     19  O   UNL     1       3.020   7.689  16.892  0.00  0.00    +0.000 OA
ATOM     20  N   UNL     1       4.122   6.183  18.277  0.00  0.00    +0.000 N 
ATOM     21  H   UNL     1       3.811   5.513  18.974  0.00  0.00    +0.000 HD
BRANCH  20  22
ATOM     22  C   UNL     1       4.936   5.643  17.241  0.00  0.00    +0.000 A 
ATOM     23  C   UNL     1       6.137   6.257  16.832  0.00  0.00    +0.000 A 
ATOM     24  C   UNL     1       6.771   7.418  17.552  0.00  0.00    +0.000 C 
ATOM     25  C   UNL     1       6.821   5.742  15.715  0.00  0.00    +0.000 A 
ATOM     26  C   UNL     1       6.357   4.612  15.044  0.00  0.00    +0.000 A 
ATOM     27  C   UNL     1       5.216   3.958  15.499  0.00  0.00    +0.000 A 
ATOM     28  C   UNL     1       4.518   4.461  16.600  0.00  0.00    +0.000 A 
ATOM     29 CL   UNL     1       3.090   3.626  17.112  0.00  0.00    +0.000 Cl
ENDBRANCH  20  22
ENDBRANCH  12  18
BRANCH   1  31
ATOM     30  C   UNL     1      -3.264  15.201  24.881  0.00  0.00    +0.000 C 
ATOM     31  C   UNL     1      -3.528  15.421  23.399  0.00  0.00    +0.000 C 
ENDBRANCH   1  31
TORSDOF 3
ENDMDL
MODEL 8
REMARK VINA RESULT:      -7.2      3.163     10.547
REMARK  Name = 
REMARK  5 active torsions:
REMARK  status: ('A' for Active; 'I' for Inactive)
REMARK    1  A    between atoms: C_1  and  C_2
REMARK    2  A    between atoms: C_2  and  C_3
REMARK    3  A    between atoms: C_14  and  C_15
REMARK    4  A    between atoms: N_17  and  C_18
REMARK    5  A    between atoms: C_19  and  C_20
REMARK                            x       y       z     vdW  Elec       q    Type
REMARK                         _______ _______ _______ _____ _____    ______ ____
ROOT
ATOM      1  C   UNL     1      -2.890  14.608  22.610  0.00  0.00    +0.000 A 
ATOM      2  C   UNL     1      -2.037  14.270  23.657  0.00  0.00    +0.000 A 
ATOM      3  C   UNL     1      -0.947  13.464  23.379  0.00  0.00    +0.000 A 
ATOM      4  N   UNL     1      -0.669  12.973  22.157  0.00  0.00    +0.000 NA
ATOM      5  C   UNL     1      -1.501  13.276  21.137  0.00  0.00    +0.000 A 
ATOM      6  N   UNL     1      -1.271  12.753  19.845  0.00  0.00    +0.000 N 
ATOM      7  C   UNL     1      -0.492  11.664  19.619  0.00  0.00    +0.000 A 
ATOM      8  N   UNL     1       0.322  11.564  18.586  0.00  0.00    +0.000 NA
ATOM      9  C   UNL     1       1.000  10.351  18.616  0.00  0.00    +0.000 A 
ATOM     10  C   UNL     1       1.987   9.911  17.706  0.00  0.00    +0.000 A 
ATOM     11  C   UNL     1       2.591   8.652  17.874  0.00  0.00    +0.000 A 
ATOM     12  C   UNL     1       2.212   7.828  18.936  0.00  0.00    +0.000 A 
ATOM     13  C   UNL     1       1.224   8.243  19.840  0.00  0.00    +0.000 A 
ATOM     14  C   UNL     1       0.639   9.501  19.659  0.00  0.00    +0.000 A 
ATOM     15  S   UNL     1      -0.592  10.236  20.587  0.00  0.00    +0.000 S 
ATOM     16  C   UNL     1      -2.614  14.100  21.333  0.00  0.00    +0.000 A 
ATOM     17  H   UNL     1      -1.132  13.505  19.181  0.00  0.00    +0.000 HD
ENDROOT
BRANCH  12  18
ATOM     18  C   UNL     1       2.758   6.456  19.114  0.00  0.00    +0.000 C 
ATOM     19  O   UNL     1       3.745   6.309  19.826  0.00  0.00    +0.000 OA
ATOM     20  N   UNL     1       2.136   5.449  18.388  0.00  0.00    +0.000 N 
ATOM     21  H   UNL     1       1.762   5.750  17.493  0.00  0.00    +0.000 HD
BRANCH  20  22
ATOM     22  C   UNL     1       2.652   4.122  18.411  0.00  0.00    +0.000 A 
ATOM     23  C   UNL     1       3.679   3.700  17.543  0.00  0.00    +0.000 A 
ATOM     24  C   UNL     1       4.454   4.630  16.648  0.00  0.00    +0.000 C 
ATOM     25  C   UNL     1       4.047   2.342  17.531  0.00  0.00    +0.000 A 
ATOM     26  C   UNL     1       3.448   1.426  18.395  0.00  0.00    +0.000 A 
ATOM     27  C   UNL     1       2.492   1.859  19.308  0.00  0.00    +0.000 A 
ATOM     28  C   UNL     1       2.107   3.202  19.327  0.00  0.00    +0.000 A 
ATOM     29 CL   UNL     1       0.894   3.688  20.464  0.00  0.00    +0.000 Cl
ENDBRANCH  20  22
ENDBRANCH  12  18
BRANCH   1  31
ATOM     30  C   UNL     1      -5.129  15.378  21.744  0.00  0.00    +0.000 C 
ATOM     31  C   UNL     1      -4.100  15.472  22.860  0.00  0.00    +0.000 C 
ENDBRANCH   1  31
TORSDOF 3
ENDMDL
MODEL 9
REMARK VINA RESULT:      -7.2      3.000      4.047
REMARK  Name = 
REMARK  5 active torsions:
REMARK  status: ('A' for Active; 'I' for Inactive)
REMARK    1  A    between atoms: C_1  and  C_2
REMARK    2  A    between atoms: C_2  and  C_3
REMARK    3  A    between atoms: C_14  and  C_15
REMARK    4  A    between atoms: N_17  and  C_18
REMARK    5  A    between atoms: C_19  and  C_20
REMARK                            x       y       z     vdW  Elec       q    Type
REMARK                         _______ _______ _______ _____ _____    ______ ____
ROOT
ATOM      1  C   UNL     1       3.199   3.488  19.912  0.00  0.00    +0.000 A 
ATOM      2  C   UNL     1       1.956   3.082  20.390  0.00  0.00    +0.000 A 
ATOM      3  C   UNL     1       0.946   4.025  20.474  0.00  0.00    +0.000 A 
ATOM      4  N   UNL     1       1.099   5.319  20.134  0.00  0.00    +0.000 NA
ATOM      5  C   UNL     1       2.306   5.729  19.690  0.00  0.00    +0.000 A 
ATOM      6  N   UNL     1       2.524   7.085  19.357  0.00  0.00    +0.000 N 
ATOM      7  C   UNL     1       1.726   8.091  19.803  0.00  0.00    +0.000 A 
ATOM      8  N   UNL     1       1.386   9.123  19.056  0.00  0.00    +0.000 NA
ATOM      9  C   UNL     1       0.557   9.984  19.765  0.00  0.00    +0.000 A 
ATOM     10  C   UNL     1      -0.046  11.167  19.282  0.00  0.00    +0.000 A 
ATOM     11  C   UNL     1      -0.872  11.934  20.124  0.00  0.00    +0.000 A 
ATOM     12  C   UNL     1      -1.093  11.534  21.444  0.00  0.00    +0.000 A 
ATOM     13  C   UNL     1      -0.491  10.371  21.944  0.00  0.00    +0.000 A 
ATOM     14  C   UNL     1       0.323   9.619  21.089  0.00  0.00    +0.000 A 
ATOM     15  S   UNL     1       1.189   8.189  21.442  0.00  0.00    +0.000 S 
ATOM     16  C   UNL     1       3.371   4.833  19.560  0.00  0.00    +0.000 A 
ATOM     17  H   UNL     1       2.790   7.171  18.384  0.00  0.00    +0.000 HD
ENDROOT
BRANCH  12  18
ATOM     18  C   UNL     1      -1.889  12.348  22.401  0.00  0.00    +0.000 C 
ATOM     19  O   UNL     1      -2.361  11.792  23.386  0.00  0.00    +0.000 OA
ATOM     20  N   UNL     1      -2.095  13.676  22.052  0.00  0.00    +0.000 N 
ATOM     21  H   UNL     1      -2.153  13.842  21.052  0.00  0.00    +0.000 HD
BRANCH  20  22
ATOM     22  C   UNL     1      -2.931  14.507  22.851  0.00  0.00    +0.000 A 
ATOM     23  C   UNL     1      -2.435  15.236  23.950  0.00  0.00    +0.000 A 
ATOM     24  C   UNL     1      -0.971  15.362  24.279  0.00  0.00    +0.000 C 
ATOM     25  C   UNL     1      -3.340  15.930  24.774  0.00  0.00    +0.000 A 
ATOM     26  C   UNL     1      -4.705  15.947  24.490  0.00  0.00    +0.000 A 
ATOM     27  C   UNL     1      -5.183  15.295  23.358  0.00  0.00    +0.000 A 
ATOM     28  C   UNL     1      -4.300  14.591  22.535  0.00  0.00    +0.000 A 
ATOM     29 CL   UNL     1      -4.948  13.774  21.152  0.00  0.00    +0.000 Cl
ENDBRANCH  20  22
ENDBRANCH  12  18
BRANCH   1  31
ATOM     30  C   UNL     1       4.042   1.359  18.858  0.00  0.00    +0.000 C 
ATOM     31  C   UNL     1       4.337   2.504  19.814  0.00  0.00    +0.000 C 
ENDBRANCH   1  31
TORSDOF 3
ENDMDL
