MODEL 1
REMARK VINA RESULT:      -7.9      0.000      0.000
REMARK  Name = 
REMARK  10 active torsions:
REMARK  status: ('A' for Active; 'I' for Inactive)
REMARK    1  A    between atoms: C_1  and  C_2
REMARK    2  A    between atoms: C_2  and  O_3
REMARK    3  A    between atoms: O_3  and  C_4
REMARK    4  A    between atoms: C_8  and  C_9
REMARK    5  A    between atoms: C_11  and  C_12
REMARK    6  A    between atoms: C_12  and  N_13
REMARK    7  A    between atoms: N_13  and  C_14
REMARK    8  A    between atoms: C_14  and  C_15
REMARK    9  A    between atoms: C_15  and  C_16
REMARK   10  A    between atoms: C_16  and  N_17
REMARK                            x       y       z     vdW  Elec       q    Type
REMARK                         _______ _______ _______ _____ _____    ______ ____
ROOT
ATOM      1  C   UNL     1       7.681   4.870  17.974  0.00  0.00    +0.000 C 
ENDROOT
BRANCH   1   2
ATOM      2  N   UNL     1       6.498   4.027  18.155  0.00  0.00    +0.000 NA
ATOM      3  H   UNL     1       6.657   3.127  17.698  0.00  0.00    +0.000 HD
BRANCH   2   4
ATOM      4  C   UNL     1       5.277   4.616  17.572  0.00  0.00    +0.000 C 
BRANCH   4  12
ATOM      5  C   UNL     1       3.662   3.794  19.375  0.00  0.00    +0.000 A 
ATOM      6  C   UNL     1       2.687   4.085  20.347  0.00  0.00    +0.000 A 
ATOM      7 BR   UNL     1       2.071   2.890  21.702  0.00  0.00    +0.000 Br
ATOM      8  C   UNL     1       2.132   5.372  20.440  0.00  0.00    +0.000 A 
ATOM      9  C   UNL     1       2.564   6.402  19.608  0.00  0.00    +0.000 A 
ATOM     10  C   UNL     1       1.952   7.768  19.694  0.00  0.00    +0.000 C 
ATOM     11  C   UNL     1       3.594   6.142  18.703  0.00  0.00    +0.000 A 
ATOM     12  C   UNL     1       4.178   4.861  18.595  0.00  0.00    +0.000 A 
BRANCH   5  13
ATOM     13  O   UNL     1       4.207   2.559  19.100  0.00  0.00    +0.000 OA
BRANCH  13  15
ATOM     14  C   UNL     1       2.280   2.389  17.633  0.00  0.00    +0.000 C 
ATOM     15  C   UNL     1       3.399   1.651  18.346  0.00  0.00    +0.000 C 
ENDBRANCH  13  15
ENDBRANCH   5  13
ENDBRANCH   4  12
ENDBRANCH   2   4
ENDBRANCH   1   2
BRANCH   1  16
ATOM     16  C   UNL     1       7.383   6.248  17.373  0.00  0.00    +0.000 C 
BRANCH  16  17
ATOM     17  C   UNL     1       7.812   7.384  18.300  0.00  0.00    +0.000 C 
BRANCH  17  18
ATOM     18  N   UNL     1       8.163   8.556  17.511  0.00  0.00    +0.000 N 
ATOM     19  C   UNL     1       8.565   9.696  18.113  0.00  0.00    +0.000 A 
ATOM     20  N   UNL     1       8.348  10.917  17.689  0.00  0.00    +0.000 NA
ATOM     21  C   UNL     1       8.987  11.737  18.586  0.00  0.00    +0.000 A 
ATOM     22  C   UNL     1       9.097  13.135  18.610  0.00  0.00    +0.000 A 
ATOM     23  C   UNL     1       9.838  13.733  19.639  0.00  0.00    +0.000 A 
ATOM     24  C   UNL     1      10.446  12.957  20.630  0.00  0.00    +0.000 A 
ATOM     25  C   UNL     1      10.339  11.562  20.630  0.00  0.00    +0.000 A 
ATOM     26  C   UNL     1       9.603  10.996  19.588  0.00  0.00    +0.000 A 
ATOM     27  N   UNL     1       9.312   9.699  19.262  0.00  0.00    +0.000 N 
ATOM     28  H   UNL     1       7.503   8.746  16.759  0.00  0.00    +0.000 HD
ATOM     29  H   UNL     1       9.620   8.879  19.758  0.00  0.00    +0.000 HD
ENDBRANCH  17  18
ENDBRANCH  16  17
ENDBRANCH   1  16
TORSDOF 8
ENDMDL
MODEL 2
REMARK VINA RESULT:      -7.6      5.121      7.232
REMARK  Name = 
REMARK  10 active torsions:
REMARK  status: ('A' for Active; 'I' for Inactive)
REMARK    1  A    between atoms: C_1  and  C_2
REMARK    2  A    between atoms: C_2  and  O_3
REMARK    3  A    between atoms: O_3  and  C_4
REMARK    4  A    between atoms: C_8  and  C_9
REMARK    5  A    between atoms: C_11  and  C_12
REMARK    6  A    between atoms: C_12  and  N_13
REMARK    7  A    between atoms: N_13  and  C_14
REMARK    8  A    between atoms: C_14  and  C_15
REMARK    9  A    between atoms: C_15  and  C_16
REMARK   10  A    between atoms: C_16  and  N_17
REMARK                            x       y       z     vdW  Elec       q    Type
REMARK                         _______ _______ _______ _____ _____    ______ ____
ROOT
ATOM      1  C   UNL     1       1.496   3.411  21.076  0.00  0.00    +0.000 C 
ENDROOT
BRANCH   1   2
ATOM      2  N   UNL     1       1.077   4.696  20.512  0.00  0.00    +0.000 NA
ATOM      3  H   UNL     1       1.156   4.653  19.493  0.00  0.00    +0.000 HD
BRANCH   2   4
ATOM      4  C   UNL     1       1.904   5.826  20.978  0.00  0.00    +0.000 C 
BRANCH   4  12
ATOM      5  C   UNL     1       1.412   8.126  19.977  0.00  0.00    +0.000 A 
ATOM      6  C   UNL     1       1.688   9.104  19.004  0.00  0.00    +0.000 A 
ATOM      7 BR   UNL     1       1.101  10.919  19.049  0.00  0.00    +0.000 Br
ATOM      8  C   UNL     1       2.528   8.812  17.917  0.00  0.00    +0.000 A 
ATOM      9  C   UNL     1       3.145   7.570  17.799  0.00  0.00    +0.000 A 
ATOM     10  C   UNL     1       4.022   7.255  16.624  0.00  0.00    +0.000 C 
ATOM     11  C   UNL     1       2.947   6.627  18.808  0.00  0.00    +0.000 A 
ATOM     12  C   UNL     1       2.116   6.895  19.918  0.00  0.00    +0.000 A 
BRANCH   5  13
ATOM     13  O   UNL     1       0.527   8.236  21.028  0.00  0.00    +0.000 OA
BRANCH  13  15
ATOM     14  C   UNL     1      -0.222   9.499  22.963  0.00  0.00    +0.000 C 
ATOM     15  C   UNL     1       0.964   8.993  22.161  0.00  0.00    +0.000 C 
ENDBRANCH  13  15
ENDBRANCH   5  13
ENDBRANCH   4  12
ENDBRANCH   2   4
ENDBRANCH   1   2
BRANCH   1  16
ATOM     16  C   UNL     1       1.760   2.323  20.029  0.00  0.00    +0.000 C 
BRANCH  16  17
ATOM     17  C   UNL     1       3.246   1.985  19.913  0.00  0.00    +0.000 C 
BRANCH  17  18
ATOM     18  N   UNL     1       4.031   3.212  19.932  0.00  0.00    +0.000 N 
ATOM     19  C   UNL     1       4.745   3.588  18.849  0.00  0.00    +0.000 A 
ATOM     20  N   UNL     1       5.883   4.236  18.858  0.00  0.00    +0.000 NA
ATOM     21  C   UNL     1       6.196   4.446  17.536  0.00  0.00    +0.000 A 
ATOM     22  C   UNL     1       7.294   5.105  16.964  0.00  0.00    +0.000 A 
ATOM     23  C   UNL     1       7.365   5.202  15.567  0.00  0.00    +0.000 A 
ATOM     24  C   UNL     1       6.370   4.645  14.758  0.00  0.00    +0.000 A 
ATOM     25  C   UNL     1       5.272   3.975  15.309  0.00  0.00    +0.000 A 
ATOM     26  C   UNL     1       5.226   3.903  16.703  0.00  0.00    +0.000 A 
ATOM     27  N   UNL     1       4.316   3.359  17.569  0.00  0.00    +0.000 N 
ATOM     28  H   UNL     1       4.565   3.333  20.790  0.00  0.00    +0.000 HD
ATOM     29  H   UNL     1       3.459   2.897  17.315  0.00  0.00    +0.000 HD
ENDBRANCH  17  18
ENDBRANCH  16  17
ENDBRANCH   1  16
TORSDOF 8
ENDMDL
MODEL 3
REMARK VINA RESULT:      -7.3      3.871      9.568
REMARK  Name = 
REMARK  10 active torsions:
REMARK  status: ('A' for Active; 'I' for Inactive)
REMARK    1  A    between atoms: C_1  and  C_2
REMARK    2  A    between atoms: C_2  and  O_3
REMARK    3  A    between atoms: O_3  and  C_4
REMARK    4  A    between atoms: C_8  and  C_9
REMARK    5  A    between atoms: C_11  and  C_12
REMARK    6  A    between atoms: C_12  and  N_13
REMARK    7  A    between atoms: N_13  and  C_14
REMARK    8  A    between atoms: C_14  and  C_15
REMARK    9  A    between atoms: C_15  and  C_16
REMARK   10  A    between atoms: C_16  and  N_17
REMARK                            x       y       z     vdW  Elec       q    Type
REMARK                         _______ _______ _______ _____ _____    ______ ____
ROOT
ATOM      1  C   UNL     1       7.853   8.278  17.568  0.00  0.00    +0.000 C 
ENDROOT
BRANCH   1   2
ATOM      2  N   UNL     1       7.983   9.664  18.021  0.00  0.00    +0.000 NA
ATOM      3  H   UNL     1       8.152  10.264  17.211  0.00  0.00    +0.000 HD
BRANCH   2   4
ATOM      4  C   UNL     1       9.102   9.859  18.963  0.00  0.00    +0.000 C 
BRANCH   4  12
ATOM      5  C   UNL     1       9.426  12.229  19.863  0.00  0.00    +0.000 A 
ATOM      6  C   UNL     1      10.071  13.477  19.776  0.00  0.00    +0.000 A 
ATOM      7 BR   UNL     1      10.068  14.831  21.121  0.00  0.00    +0.000 Br
ATOM      8  C   UNL     1      10.871  13.791  18.666  0.00  0.00    +0.000 A 
ATOM      9  C   UNL     1      11.085  12.865  17.649  0.00  0.00    +0.000 A 
ATOM     10  C   UNL     1      11.920  13.213  16.453  0.00  0.00    +0.000 C 
ATOM     11  C   UNL     1      10.522  11.594  17.774  0.00  0.00    +0.000 A 
ATOM     12  C   UNL     1       9.722  11.246  18.884  0.00  0.00    +0.000 A 
BRANCH   5  13
ATOM     13  O   UNL     1       8.532  11.831  20.833  0.00  0.00    +0.000 OA
BRANCH  13  15
ATOM     14  C   UNL     1       7.957  11.694  23.189  0.00  0.00    +0.000 C 
ATOM     15  C   UNL     1       9.058  11.617  22.146  0.00  0.00    +0.000 C 
ENDBRANCH  13  15
ENDBRANCH   5  13
ENDBRANCH   4  12
ENDBRANCH   2   4
ENDBRANCH   1   2
BRANCH   1  16
ATOM     16  C   UNL     1       8.155   7.234  18.649  0.00  0.00    +0.000 C 
BRANCH  16  17
ATOM     17  C   UNL     1       7.572   5.864  18.305  0.00  0.00    +0.000 C 
BRANCH  17  18
ATOM     18  N   UNL     1       6.357   6.031  17.519  0.00  0.00    +0.000 N 
ATOM     19  C   UNL     1       5.197   5.467  17.918  0.00  0.00    +0.000 A 
ATOM     20  N   UNL     1       4.248   5.011  17.138  0.00  0.00    +0.000 NA
ATOM     21  C   UNL     1       3.249   4.589  17.983  0.00  0.00    +0.000 A 
ATOM     22  C   UNL     1       1.997   4.031  17.689  0.00  0.00    +0.000 A 
ATOM     23  C   UNL     1       1.142   3.705  18.752  0.00  0.00    +0.000 A 
ATOM     24  C   UNL     1       1.531   3.918  20.077  0.00  0.00    +0.000 A 
ATOM     25  C   UNL     1       2.781   4.464  20.391  0.00  0.00    +0.000 A 
ATOM     26  C   UNL     1       3.605   4.786  19.311  0.00  0.00    +0.000 A 
ATOM     27  N   UNL     1       4.854   5.343  19.238  0.00  0.00    +0.000 N 
ATOM     28  H   UNL     1       6.506   5.908  16.519  0.00  0.00    +0.000 HD
ATOM     29  H   UNL     1       5.415   5.644  20.017  0.00  0.00    +0.000 HD
ENDBRANCH  17  18
ENDBRANCH  16  17
ENDBRANCH   1  16
TORSDOF 8
ENDMDL
MODEL 4
REMARK VINA RESULT:      -7.3      4.607      6.651
REMARK  Name = 
REMARK  10 active torsions:
REMARK  status: ('A' for Active; 'I' for Inactive)
REMARK    1  A    between atoms: C_1  and  C_2
REMARK    2  A    between atoms: C_2  and  O_3
REMARK    3  A    between atoms: O_3  and  C_4
REMARK    4  A    between atoms: C_8  and  C_9
REMARK    5  A    between atoms: C_11  and  C_12
REMARK    6  A    between atoms: C_12  and  N_13
REMARK    7  A    between atoms: N_13  and  C_14
REMARK    8  A    between atoms: C_14  and  C_15
REMARK    9  A    between atoms: C_15  and  C_16
REMARK   10  A    between atoms: C_16  and  N_17
REMARK                            x       y       z     vdW  Elec       q    Type
REMARK                         _______ _______ _______ _____ _____    ______ ____
ROOT
ATOM      1  C   UNL     1       1.004   3.503  20.237  0.00  0.00    +0.000 C 
ENDROOT
BRANCH   1   2
ATOM      2  N   UNL     1       0.962   4.886  20.717  0.00  0.00    +0.000 NA
ATOM      3  H   UNL     1       0.337   5.428  20.116  0.00  0.00    +0.000 HD
BRANCH   2   4
ATOM      4  C   UNL     1       2.283   5.542  20.697  0.00  0.00    +0.000 C 
BRANCH   4  12
ATOM      5  C   UNL     1       1.589   7.886  19.949  0.00  0.00    +0.000 A 
ATOM      6  C   UNL     1       1.741   8.963  19.056  0.00  0.00    +0.000 A 
ATOM      7 BR   UNL     1       1.052  10.725  19.307  0.00  0.00    +0.000 Br
ATOM      8  C   UNL     1       2.522   8.826  17.897  0.00  0.00    +0.000 A 
ATOM      9  C   UNL     1       3.203   7.642  17.625  0.00  0.00    +0.000 A 
ATOM     10  C   UNL     1       4.016   7.492  16.375  0.00  0.00    +0.000 C 
ATOM     11  C   UNL     1       3.129   6.602  18.552  0.00  0.00    +0.000 A 
ATOM     12  C   UNL     1       2.360   6.714  19.731  0.00  0.00    +0.000 A 
BRANCH   5  13
ATOM     13  O   UNL     1       0.772   7.844  21.057  0.00  0.00    +0.000 OA
BRANCH  13  15
ATOM     14  C   UNL     1      -0.194   9.315  22.731  0.00  0.00    +0.000 C 
ATOM     15  C   UNL     1       1.077   8.755  22.117  0.00  0.00    +0.000 C 
ENDBRANCH  13  15
ENDBRANCH   5  13
ENDBRANCH   4  12
ENDBRANCH   2   4
ENDBRANCH   1   2
BRANCH   1  16
ATOM     16  C   UNL     1       1.706   3.329  18.886  0.00  0.00    +0.000 C 
BRANCH  16  17
ATOM     17  C   UNL     1       2.658   2.134  18.882  0.00  0.00    +0.000 C 
BRANCH  17  18
ATOM     18  N   UNL     1       3.596   2.257  17.774  0.00  0.00    +0.000 N 
ATOM     19  C   UNL     1       4.509   3.252  17.753  0.00  0.00    +0.000 A 
ATOM     20  N   UNL     1       4.972   3.857  16.687  0.00  0.00    +0.000 NA
ATOM     21  C   UNL     1       5.912   4.747  17.149  0.00  0.00    +0.000 A 
ATOM     22  C   UNL     1       6.730   5.641  16.443  0.00  0.00    +0.000 A 
ATOM     23  C   UNL     1       7.636   6.433  17.163  0.00  0.00    +0.000 A 
ATOM     24  C   UNL     1       7.715   6.346  18.556  0.00  0.00    +0.000 A 
ATOM     25  C   UNL     1       6.900   5.468  19.279  0.00  0.00    +0.000 A 
ATOM     26  C   UNL     1       6.016   4.687  18.533  0.00  0.00    +0.000 A 
ATOM     27  N   UNL     1       5.106   3.728  18.890  0.00  0.00    +0.000 N 
ATOM     28  H   UNL     1       3.158   2.135  16.863  0.00  0.00    +0.000 HD
ATOM     29  H   UNL     1       4.926   3.400  19.824  0.00  0.00    +0.000 HD
ENDBRANCH  17  18
ENDBRANCH  16  17
ENDBRANCH   1  16
TORSDOF 8
ENDMDL
MODEL 5
REMARK VINA RESULT:      -7.3      3.947      6.073
REMARK  Name = 
REMARK  10 active torsions:
REMARK  status: ('A' for Active; 'I' for Inactive)
REMARK    1  A    between atoms: C_1  and  C_2
REMARK    2  A    between atoms: C_2  and  O_3
REMARK    3  A    between atoms: O_3  and  C_4
REMARK    4  A    between atoms: C_8  and  C_9
REMARK    5  A    between atoms: C_11  and  C_12
REMARK    6  A    between atoms: C_12  and  N_13
REMARK    7  A    between atoms: N_13  and  C_14
REMARK    8  A    between atoms: C_14  and  C_15
REMARK    9  A    between atoms: C_15  and  C_16
REMARK   10  A    between atoms: C_16  and  N_17
REMARK                            x       y       z     vdW  Elec       q    Type
REMARK                         _______ _______ _______ _____ _____    ______ ____
ROOT
ATOM      1  C   UNL     1       5.905   7.033  18.103  0.00  0.00    +0.000 C 
ENDROOT
BRANCH   1   2
ATOM      2  N   UNL     1       5.066   6.466  17.045  0.00  0.00    +0.000 NA
ATOM      3  H   UNL     1       5.475   6.695  16.137  0.00  0.00    +0.000 HD
BRANCH   2   4
ATOM      4  C   UNL     1       3.687   6.992  17.061  0.00  0.00    +0.000 C 
BRANCH   4  12
ATOM      5  C   UNL     1       2.767   5.405  18.841  0.00  0.00    +0.000 A 
ATOM      6  C   UNL     1       2.135   5.220  20.085  0.00  0.00    +0.000 A 
ATOM      7 BR   UNL     1       2.039   3.579  21.054  0.00  0.00    +0.000 Br
ATOM      8  C   UNL     1       1.574   6.310  20.769  0.00  0.00    +0.000 A 
ATOM      9  C   UNL     1       1.669   7.603  20.262  0.00  0.00    +0.000 A 
ATOM     10  C   UNL     1       1.047   8.761  20.984  0.00  0.00    +0.000 C 
ATOM     11  C   UNL     1       2.373   7.805  19.074  0.00  0.00    +0.000 A 
ATOM     12  C   UNL     1       2.956   6.729  18.369  0.00  0.00    +0.000 A 
BRANCH   5  13
ATOM     13  O   UNL     1       3.260   4.419  18.013  0.00  0.00    +0.000 OA
BRANCH  13  15
ATOM     14  C   UNL     1       2.759   2.068  17.666  0.00  0.00    +0.000 C 
ATOM     15  C   UNL     1       2.307   3.504  17.464  0.00  0.00    +0.000 C 
ENDBRANCH  13  15
ENDBRANCH   5  13
ENDBRANCH   4  12
ENDBRANCH   2   4
ENDBRANCH   1   2
BRANCH   1  16
ATOM     16  C   UNL     1       6.489   5.992  19.065  0.00  0.00    +0.000 C 
BRANCH  16  17
ATOM     17  C   UNL     1       7.626   5.194  18.429  0.00  0.00    +0.000 C 
BRANCH  17  18
ATOM     18  N   UNL     1       7.079   4.063  17.692  0.00  0.00    +0.000 N 
ATOM     19  C   UNL     1       6.899   4.134  16.356  0.00  0.00    +0.000 A 
ATOM     20  N   UNL     1       5.950   3.547  15.668  0.00  0.00    +0.000 NA
ATOM     21  C   UNL     1       6.204   3.858  14.354  0.00  0.00    +0.000 A 
ATOM     22  C   UNL     1       5.517   3.480  13.191  0.00  0.00    +0.000 A 
ATOM     23  C   UNL     1       6.005   3.919  11.952  0.00  0.00    +0.000 A 
ATOM     24  C   UNL     1       7.143   4.727  11.874  0.00  0.00    +0.000 A 
ATOM     25  C   UNL     1       7.835   5.123  13.024  0.00  0.00    +0.000 A 
ATOM     26  C   UNL     1       7.331   4.662  14.241  0.00  0.00    +0.000 A 
ATOM     27  N   UNL     1       7.749   4.825  15.534  0.00  0.00    +0.000 N 
ATOM     28  H   UNL     1       6.278   3.633  18.153  0.00  0.00    +0.000 HD
ATOM     29  H   UNL     1       8.562   5.337  15.834  0.00  0.00    +0.000 HD
ENDBRANCH  17  18
ENDBRANCH  16  17
ENDBRANCH   1  16
TORSDOF 8
ENDMDL
MODEL 6
REMARK VINA RESULT:      -7.2      1.099      1.265
REMARK  Name = 
REMARK  10 active torsions:
REMARK  status: ('A' for Active; 'I' for Inactive)
REMARK    1  A    between atoms: C_1  and  C_2
REMARK    2  A    between atoms: C_2  and  O_3
REMARK    3  A    between atoms: O_3  and  C_4
REMARK    4  A    between atoms: C_8  and  C_9
REMARK    5  A    between atoms: C_11  and  C_12
REMARK    6  A    between atoms: C_12  and  N_13
REMARK    7  A    between atoms: N_13  and  C_14
REMARK    8  A    between atoms: C_14  and  C_15
REMARK    9  A    between atoms: C_15  and  C_16
REMARK   10  A    between atoms: C_16  and  N_17
REMARK                            x       y       z     vdW  Elec       q    Type
REMARK                         _______ _______ _______ _____ _____    ______ ____
ROOT
ATOM      1  C   UNL     1       6.325   5.278  17.421  0.00  0.00    +0.000 C 
ENDROOT
BRANCH   1   2
ATOM      2  N   UNL     1       5.433   6.435  17.532  0.00  0.00    +0.000 NA
ATOM      3  H   UNL     1       5.470   6.792  18.489  0.00  0.00    +0.000 HD
BRANCH   2   4
ATOM      4  C   UNL     1       4.027   6.109  17.229  0.00  0.00    +0.000 C 
BRANCH   4  12
ATOM      5  C   UNL     1       2.699   4.729  18.922  0.00  0.00    +0.000 A 
ATOM      6  C   UNL     1       1.942   4.675  20.107  0.00  0.00    +0.000 A 
ATOM      7 BR   UNL     1       1.483   3.089  21.065  0.00  0.00    +0.000 Br
ATOM      8  C   UNL     1       1.520   5.854  20.740  0.00  0.00    +0.000 A 
ATOM      9  C   UNL     1       1.878   7.104  20.243  0.00  0.00    +0.000 A 
ATOM     10  C   UNL     1       1.405   8.362  20.908  0.00  0.00    +0.000 C 
ATOM     11  C   UNL     1       2.705   7.165  19.120  0.00  0.00    +0.000 A 
ATOM     12  C   UNL     1       3.153   5.995  18.468  0.00  0.00    +0.000 A 
BRANCH   5  13
ATOM     13  O   UNL     1       3.084   3.661  18.141  0.00  0.00    +0.000 OA
BRANCH  13  15
ATOM     14  C   UNL     1       3.557   1.300  18.455  0.00  0.00    +0.000 C 
ATOM     15  C   UNL     1       3.994   2.728  18.730  0.00  0.00    +0.000 C 
ENDBRANCH  13  15
ENDBRANCH   5  13
ENDBRANCH   4  12
ENDBRANCH   2   4
ENDBRANCH   1   2
BRANCH   1  16
ATOM     16  C   UNL     1       7.647   5.429  18.182  0.00  0.00    +0.000 C 
BRANCH  16  17
ATOM     17  C   UNL     1       7.771   6.798  18.850  0.00  0.00    +0.000 C 
BRANCH  17  18
ATOM     18  N   UNL     1       7.988   7.821  17.837  0.00  0.00    +0.000 N 
ATOM     19  C   UNL     1       8.412   9.055  18.185  0.00  0.00    +0.000 A 
ATOM     20  N   UNL     1       8.102  10.180  17.588  0.00  0.00    +0.000 NA
ATOM     21  C   UNL     1       8.807  11.155  18.252  0.00  0.00    +0.000 A 
ATOM     22  C   UNL     1       8.866  12.537  18.023  0.00  0.00    +0.000 A 
ATOM     23  C   UNL     1       9.694  13.318  18.842  0.00  0.00    +0.000 A 
ATOM     24  C   UNL     1      10.437  12.736  19.873  0.00  0.00    +0.000 A 
ATOM     25  C   UNL     1      10.384  11.360  20.123  0.00  0.00    +0.000 A 
ATOM     26  C   UNL     1       9.558  10.609  19.286  0.00  0.00    +0.000 A 
ATOM     27  N   UNL     1       9.281   9.270  19.222  0.00  0.00    +0.000 N 
ATOM     28  H   UNL     1       7.241   7.866  17.146  0.00  0.00    +0.000 HD
ATOM     29  H   UNL     1       9.674   8.555  19.811  0.00  0.00    +0.000 HD
ENDBRANCH  17  18
ENDBRANCH  16  17
ENDBRANCH   1  16
TORSDOF 8
ENDMDL
MODEL 7
REMARK VINA RESULT:      -7.2      2.326      3.531
REMARK  Name = 
REMARK  10 active torsions:
REMARK  status: ('A' for Active; 'I' for Inactive)
REMARK    1  A    between atoms: C_1  and  C_2
REMARK    2  A    between atoms: C_2  and  O_3
REMARK    3  A    between atoms: O_3  and  C_4
REMARK    4  A    between atoms: C_8  and  C_9
REMARK    5  A    between atoms: C_11  and  C_12
REMARK    6  A    between atoms: C_12  and  N_13
REMARK    7  A    between atoms: N_13  and  C_14
REMARK    8  A    between atoms: C_14  and  C_15
REMARK    9  A    between atoms: C_15  and  C_16
REMARK   10  A    between atoms: C_16  and  N_17
REMARK                            x       y       z     vdW  Elec       q    Type
REMARK                         _______ _______ _______ _____ _____    ______ ____
ROOT
ATOM      1  C   UNL     1       8.205   8.331  18.049  0.00  0.00    +0.000 C 
ENDROOT
BRANCH   1   2
ATOM      2  N   UNL     1       7.134   7.994  17.109  0.00  0.00    +0.000 NA
ATOM      3  H   UNL     1       6.276   8.469  17.398  0.00  0.00    +0.000 HD
BRANCH   2   4
ATOM      4  C   UNL     1       6.849   6.547  17.055  0.00  0.00    +0.000 C 
BRANCH   4  12
ATOM      5  C   UNL     1       4.899   4.897  17.129  0.00  0.00    +0.000 A 
ATOM      6  C   UNL     1       3.563   4.621  17.475  0.00  0.00    +0.000 A 
ATOM      7 BR   UNL     1       2.766   2.888  17.549  0.00  0.00    +0.000 Br
ATOM      8  C   UNL     1       2.704   5.651  17.889  0.00  0.00    +0.000 A 
ATOM      9  C   UNL     1       3.161   6.960  18.015  0.00  0.00    +0.000 A 
ATOM     10  C   UNL     1       2.235   8.062  18.435  0.00  0.00    +0.000 C 
ATOM     11  C   UNL     1       4.508   7.225  17.761  0.00  0.00    +0.000 A 
ATOM     12  C   UNL     1       5.397   6.207  17.353  0.00  0.00    +0.000 A 
BRANCH   5  13
ATOM     13  O   UNL     1       5.814   4.010  16.605  0.00  0.00    +0.000 OA
BRANCH  13  15
ATOM     14  C   UNL     1       6.787   4.289  14.397  0.00  0.00    +0.000 C 
ATOM     15  C   UNL     1       5.668   3.677  15.222  0.00  0.00    +0.000 C 
ENDBRANCH  13  15
ENDBRANCH   5  13
ENDBRANCH   4  12
ENDBRANCH   2   4
ENDBRANCH   1   2
BRANCH   1  16
ATOM     16  C   UNL     1       8.610   9.809  18.034  0.00  0.00    +0.000 C 
BRANCH  16  17
ATOM     17  C   UNL     1       9.263  10.240  19.346  0.00  0.00    +0.000 C 
BRANCH  17  18
ATOM     18  N   UNL     1      10.473  11.001  19.066  0.00  0.00    +0.000 N 
ATOM     19  C   UNL     1      10.398  12.266  18.599  0.00  0.00    +0.000 A 
ATOM     20  N   UNL     1      11.242  12.842  17.779  0.00  0.00    +0.000 NA
ATOM     21  C   UNL     1      10.792  14.133  17.636  0.00  0.00    +0.000 A 
ATOM     22  C   UNL     1      11.323  15.193  16.888  0.00  0.00    +0.000 A 
ATOM     23  C   UNL     1      10.675  16.436  16.933  0.00  0.00    +0.000 A 
ATOM     24  C   UNL     1       9.517  16.614  17.696  0.00  0.00    +0.000 A 
ATOM     25  C   UNL     1       8.966  15.565  18.440  0.00  0.00    +0.000 A 
ATOM     26  C   UNL     1       9.639  14.343  18.382  0.00  0.00    +0.000 A 
ATOM     27  N   UNL     1       9.409  13.134  18.981  0.00  0.00    +0.000 N 
ATOM     28  H   UNL     1      11.180  10.462  18.568  0.00  0.00    +0.000 HD
ATOM     29  H   UNL     1       8.663  12.922  19.621  0.00  0.00    +0.000 HD
ENDBRANCH  17  18
ENDBRANCH  16  17
ENDBRANCH   1  16
TORSDOF 8
ENDMDL
MODEL 8
REMARK VINA RESULT:      -7.1      5.721      8.303
REMARK  Name = 
REMARK  10 active torsions:
REMARK  status: ('A' for Active; 'I' for Inactive)
REMARK    1  A    between atoms: C_1  and  C_2
REMARK    2  A    between atoms: C_2  and  O_3
REMARK    3  A    between atoms: O_3  and  C_4
REMARK    4  A    between atoms: C_8  and  C_9
REMARK    5  A    between atoms: C_11  and  C_12
REMARK    6  A    between atoms: C_12  and  N_13
REMARK    7  A    between atoms: N_13  and  C_14
REMARK    8  A    between atoms: C_14  and  C_15
REMARK    9  A    between atoms: C_15  and  C_16
REMARK   10  A    between atoms: C_16  and  N_17
REMARK                            x       y       z     vdW  Elec       q    Type
REMARK                         _______ _______ _______ _____ _____    ______ ____
ROOT
ATOM      1  C   UNL     1       1.987   7.222  20.315  0.00  0.00    +0.000 C 
ENDROOT
BRANCH   1   2
ATOM      2  N   UNL     1       1.174   8.414  20.562  0.00  0.00    +0.000 NA
ATOM      3  H   UNL     1       0.188   8.146  20.588  0.00  0.00    +0.000 HD
BRANCH   2   4
ATOM      4  C   UNL     1       1.330   9.445  19.518  0.00  0.00    +0.000 C 
BRANCH   4  12
ATOM      5  C   UNL     1      -0.577  11.058  20.059  0.00  0.00    +0.000 A 
ATOM      6  C   UNL     1      -1.752  11.720  19.654  0.00  0.00    +0.000 A 
ATOM      7 BR   UNL     1      -2.567  13.193  20.552  0.00  0.00    +0.000 Br
ATOM      8  C   UNL     1      -2.390  11.371  18.454  0.00  0.00    +0.000 A 
ATOM      9  C   UNL     1      -1.855  10.400  17.611  0.00  0.00    +0.000 A 
ATOM     10  C   UNL     1      -2.552  10.014  16.341  0.00  0.00    +0.000 C 
ATOM     11  C   UNL     1      -0.643   9.805  17.963  0.00  0.00    +0.000 A 
ATOM     12  C   UNL     1       0.027  10.143  19.159  0.00  0.00    +0.000 A 
BRANCH   5  13
ATOM     13  O   UNL     1       0.088  11.219  21.256  0.00  0.00    +0.000 OA
BRANCH  13  15
ATOM     14  C   UNL     1      -0.459   9.811  23.157  0.00  0.00    +0.000 C 
ATOM     15  C   UNL     1      -0.699  11.131  22.447  0.00  0.00    +0.000 C 
ENDBRANCH  13  15
ENDBRANCH   5  13
ENDBRANCH   4  12
ENDBRANCH   2   4
ENDBRANCH   1   2
BRANCH   1  16
ATOM     16  C   UNL     1       1.285   5.903  20.655  0.00  0.00    +0.000 C 
BRANCH  16  17
ATOM     17  C   UNL     1       2.278   4.762  20.871  0.00  0.00    +0.000 C 
BRANCH  17  18
ATOM     18  N   UNL     1       2.377   3.961  19.658  0.00  0.00    +0.000 N 
ATOM     19  C   UNL     1       3.408   4.131  18.803  0.00  0.00    +0.000 A 
ATOM     20  N   UNL     1       3.369   3.987  17.501  0.00  0.00    +0.000 NA
ATOM     21  C   UNL     1       4.655   4.203  17.069  0.00  0.00    +0.000 A 
ATOM     22  C   UNL     1       5.189   4.158  15.773  0.00  0.00    +0.000 A 
ATOM     23  C   UNL     1       6.560   4.397  15.604  0.00  0.00    +0.000 A 
ATOM     24  C   UNL     1       7.379   4.685  16.700  0.00  0.00    +0.000 A 
ATOM     25  C   UNL     1       6.863   4.744  17.999  0.00  0.00    +0.000 A 
ATOM     26  C   UNL     1       5.497   4.493  18.136  0.00  0.00    +0.000 A 
ATOM     27  N   UNL     1       4.672   4.445  19.227  0.00  0.00    +0.000 N 
ATOM     28  H   UNL     1       1.492   3.875  19.161  0.00  0.00    +0.000 HD
ATOM     29  H   UNL     1       4.948   4.582  20.185  0.00  0.00    +0.000 HD
ENDBRANCH  17  18
ENDBRANCH  16  17
ENDBRANCH   1  16
TORSDOF 8
ENDMDL
MODEL 9
REMARK VINA RESULT:      -7.1      5.181      7.116
REMARK  Name = 
REMARK  10 active torsions:
REMARK  status: ('A' for Active; 'I' for Inactive)
REMARK    1  A    between atoms: C_1  and  C_2
REMARK    2  A    between atoms: C_2  and  O_3
REMARK    3  A    between atoms: O_3  and  C_4
REMARK    4  A    between atoms: C_8  and  C_9
REMARK    5  A    between atoms: C_11  and  C_12
REMARK    6  A    between atoms: C_12  and  N_13
REMARK    7  A    between atoms: N_13  and  C_14
REMARK    8  A    between atoms: C_14  and  C_15
REMARK    9  A    between atoms: C_15  and  C_16
REMARK   10  A    between atoms: C_16  and  N_17
REMARK                            x       y       z     vdW  Elec       q    Type
REMARK                         _______ _______ _______ _____ _____    ______ ____
ROOT
ATOM      1  C   UNL     1       0.945   4.460  20.326  0.00  0.00    +0.000 C 
ENDROOT
BRANCH   1   2
ATOM      2  N   UNL     1       2.018   5.111  19.570  0.00  0.00    +0.000 NA
ATOM      3  H   UNL     1       2.750   4.425  19.374  0.00  0.00    +0.000 HD
BRANCH   2   4
ATOM      4  C   UNL     1       2.639   6.232  20.302  0.00  0.00    +0.000 C 
BRANCH   4  12
ATOM      5  C   UNL     1       1.399   8.200  19.241  0.00  0.00    +0.000 A 
ATOM      6  C   UNL     1       0.521   9.291  19.380  0.00  0.00    +0.000 A 
ATOM      7 BR   UNL     1      -0.313  10.240  17.950  0.00  0.00    +0.000 Br
ATOM      8  C   UNL     1       0.116   9.724  20.653  0.00  0.00    +0.000 A 
ATOM      9  C   UNL     1       0.531   9.060  21.804  0.00  0.00    +0.000 A 
ATOM     10  C   UNL     1       0.115   9.540  23.162  0.00  0.00    +0.000 C 
ATOM     11  C   UNL     1       1.328   7.922  21.668  0.00  0.00    +0.000 A 
ATOM     12  C   UNL     1       1.743   7.457  20.400  0.00  0.00    +0.000 A 
BRANCH   5  13
ATOM     13  O   UNL     1       1.962   7.740  18.070  0.00  0.00    +0.000 OA
BRANCH  13  15
ATOM     14  C   UNL     1       4.202   7.376  17.204  0.00  0.00    +0.000 C 
ATOM     15  C   UNL     1       3.157   8.392  17.631  0.00  0.00    +0.000 C 
ENDBRANCH  13  15
ENDBRANCH   5  13
ENDBRANCH   4  12
ENDBRANCH   2   4
ENDBRANCH   1   2
BRANCH   1  16
ATOM     16  C   UNL     1       1.384   3.199  21.078  0.00  0.00    +0.000 C 
BRANCH  16  17
ATOM     17  C   UNL     1       2.858   2.873  20.842  0.00  0.00    +0.000 C 
BRANCH  17  18
ATOM     18  N   UNL     1       3.042   2.395  19.478  0.00  0.00    +0.000 N 
ATOM     19  C   UNL     1       3.896   3.021  18.640  0.00  0.00    +0.000 A 
ATOM     20  N   UNL     1       3.763   3.138  17.342  0.00  0.00    +0.000 NA
ATOM     21  C   UNL     1       4.892   3.794  16.914  0.00  0.00    +0.000 A 
ATOM     22  C   UNL     1       5.282   4.167  15.620  0.00  0.00    +0.000 A 
ATOM     23  C   UNL     1       6.514   4.814  15.450  0.00  0.00    +0.000 A 
ATOM     24  C   UNL     1       7.334   5.095  16.547  0.00  0.00    +0.000 A 
ATOM     25  C   UNL     1       6.957   4.741  17.847  0.00  0.00    +0.000 A 
ATOM     26  C   UNL     1       5.730   4.090  17.982  0.00  0.00    +0.000 A 
ATOM     27  N   UNL     1       5.066   3.589  19.069  0.00  0.00    +0.000 N 
ATOM     28  H   UNL     1       2.166   2.164  19.012  0.00  0.00    +0.000 HD
ATOM     29  H   UNL     1       5.392   3.602  20.021  0.00  0.00    +0.000 HD
ENDBRANCH  17  18
ENDBRANCH  16  17
ENDBRANCH   1  16
TORSDOF 8
ENDMDL
