MODEL 1
REMARK VINA RESULT:      -7.9      0.000      0.000
REMARK  Name = 
REMARK  8 active torsions:
REMARK  status: ('A' for Active; 'I' for Inactive)
REMARK    1  A    between atoms: C_1  and  O_2
REMARK    2  A    between atoms: O_2  and  C_3
REMARK    3  A    between atoms: C_8  and  N_9
REMARK    4  A    between atoms: C_10  and  C_12
REMARK    5  A    between atoms: C_15  and  N_16
REMARK    6  A    between atoms: C_17  and  C_19
REMARK    7  A    between atoms: C_19  and  S_20
REMARK    8  A    between atoms: S_20  and  C_21
REMARK                            x       y       z     vdW  Elec       q    Type
REMARK                         _______ _______ _______ _____ _____    ______ ____
ROOT
ATOM      1  C   UNL     1       1.396   9.070  19.135  0.00  0.00    +0.000 A 
ATOM      2  C   UNL     1       1.620   8.047  20.057  0.00  0.00    +0.000 A 
ATOM      3  C   UNL     1       2.465   6.989  19.720  0.00  0.00    +0.000 A 
ATOM      4  C   UNL     1       3.084   6.913  18.469  0.00  0.00    +0.000 A 
ATOM      5  C   UNL     1       2.919   7.976  17.578  0.00  0.00    +0.000 A 
ATOM      6  C   UNL     1       2.061   9.037  17.901  0.00  0.00    +0.000 A 
ENDROOT
BRANCH   1   8
ATOM      7  N   UNL     1       0.481  10.951  20.444  0.00  0.00    +0.000 N 
ATOM      8  C   UNL     1       0.334  10.094  19.361  0.00  0.00    +0.000 C 
ATOM      9  O   UNL     1      -0.602  10.099  18.562  0.00  0.00    +0.000 OA
ATOM     10  H   UNL     1       1.400  11.076  20.855  0.00  0.00    +0.000 HD
BRANCH   7  16
ATOM     11  C   UNL     1      -0.866  11.818  22.314  0.00  0.00    +0.000 A 
ATOM     12  C   UNL     1      -1.829  12.727  22.787  0.00  0.00    +0.000 A 
ATOM     13  C   UNL     1      -2.497  13.587  21.916  0.00  0.00    +0.000 A 
ATOM     14  C   UNL     1      -2.210  13.550  20.559  0.00  0.00    +0.000 A 
ATOM     15  C   UNL     1      -1.234  12.679  20.081  0.00  0.00    +0.000 A 
ATOM     16  C   UNL     1      -0.528  11.826  20.943  0.00  0.00    +0.000 A 
BRANCH  11  18
ATOM     17  C   UNL     1      -0.661   9.607  23.177  0.00  0.00    +0.000 C 
ATOM     18  O   UNL     1      -0.179  10.953  23.136  0.00  0.00    +0.000 OA
ENDBRANCH  11  18
ENDBRANCH   7  16
ENDBRANCH   1   8
BRANCH   4  19
ATOM     19  N   UNL     1       3.838   5.793  18.057  0.00  0.00    +0.000 N 
ATOM     20  C   UNL     1       3.313   4.575  17.645  0.00  0.00    +0.000 C 
ATOM     21  O   UNL     1       2.112   4.349  17.489  0.00  0.00    +0.000 OA
ATOM     22  H   UNL     1       4.838   5.924  17.938  0.00  0.00    +0.000 HD
BRANCH  20  23
ATOM     23  C   UNL     1       4.319   3.514  17.230  0.00  0.00    +0.000 C 
BRANCH  23  24
ATOM     24  S   UNL     1       5.531   4.061  16.002  0.00  0.00    +0.000 S 
BRANCH  24  25
ATOM     25  C   UNL     1       6.515   5.130  17.019  0.00  0.00    +0.000 A 
ATOM     26  N   UNL     1       7.027   4.652  18.164  0.00  0.00    +0.000 NA
ATOM     27  C   UNL     1       7.739   5.520  18.907  0.00  0.00    +0.000 A 
ATOM     28  C   UNL     1       7.956   6.827  18.546  0.00  0.00    +0.000 A 
ATOM     29  C   UNL     1       7.390   7.212  17.354  0.00  0.00    +0.000 A 
ATOM     30  N   UNL     1       6.665   6.388  16.575  0.00  0.00    +0.000 NA
ENDBRANCH  24  25
ENDBRANCH  23  24
ENDBRANCH  20  23
ENDBRANCH   4  19
TORSDOF 7
ENDMDL
MODEL 2
REMARK VINA RESULT:      -7.7      5.491      8.120
REMARK  Name = 
REMARK  8 active torsions:
REMARK  status: ('A' for Active; 'I' for Inactive)
REMARK    1  A    between atoms: C_1  and  O_2
REMARK    2  A    between atoms: O_2  and  C_3
REMARK    3  A    between atoms: C_8  and  N_9
REMARK    4  A    between atoms: C_10  and  C_12
REMARK    5  A    between atoms: C_15  and  N_16
REMARK    6  A    between atoms: C_17  and  C_19
REMARK    7  A    between atoms: C_19  and  S_20
REMARK    8  A    between atoms: S_20  and  C_21
REMARK                            x       y       z     vdW  Elec       q    Type
REMARK                         _______ _______ _______ _____ _____    ______ ____
ROOT
ATOM      1  C   UNL     1       8.165   8.214  18.199  0.00  0.00    +0.000 A 
ATOM      2  C   UNL     1       8.428   7.169  19.084  0.00  0.00    +0.000 A 
ATOM      3  C   UNL     1       7.829   5.925  18.880  0.00  0.00    +0.000 A 
ATOM      4  C   UNL     1       6.950   5.700  17.817  0.00  0.00    +0.000 A 
ATOM      5  C   UNL     1       6.748   6.724  16.889  0.00  0.00    +0.000 A 
ATOM      6  C   UNL     1       7.334   7.981  17.093  0.00  0.00    +0.000 A 
ENDROOT
BRANCH   1   8
ATOM      7  N   UNL     1       9.369   9.815  19.639  0.00  0.00    +0.000 N 
ATOM      8  C   UNL     1       8.598   9.610  18.502  0.00  0.00    +0.000 C 
ATOM      9  O   UNL     1       8.233  10.480  17.714  0.00  0.00    +0.000 OA
ATOM     10  H   UNL     1       9.865   9.031  20.049  0.00  0.00    +0.000 HD
BRANCH   7  16
ATOM     11  C   UNL     1      10.702  11.886  19.649  0.00  0.00    +0.000 A 
ATOM     12  C   UNL     1      10.951  13.157  20.194  0.00  0.00    +0.000 A 
ATOM     13  C   UNL     1      10.249  13.612  21.310  0.00  0.00    +0.000 A 
ATOM     14  C   UNL     1       9.286  12.802  21.894  0.00  0.00    +0.000 A 
ATOM     15  C   UNL     1       9.005  11.553  21.343  0.00  0.00    +0.000 A 
ATOM     16  C   UNL     1       9.678  11.087  20.203  0.00  0.00    +0.000 A 
BRANCH  11  18
ATOM     17  C   UNL     1      11.837  12.369  17.610  0.00  0.00    +0.000 C 
ATOM     18  O   UNL     1      11.368  11.395  18.547  0.00  0.00    +0.000 OA
ENDBRANCH  11  18
ENDBRANCH   7  16
ENDBRANCH   1   8
BRANCH   4  19
ATOM     19  N   UNL     1       6.232   4.493  17.662  0.00  0.00    +0.000 N 
ATOM     20  C   UNL     1       4.892   4.392  17.313  0.00  0.00    +0.000 C 
ATOM     21  O   UNL     1       4.179   5.346  16.994  0.00  0.00    +0.000 OA
ATOM     22  H   UNL     1       6.763   3.629  17.691  0.00  0.00    +0.000 HD
BRANCH  20  23
ATOM     23  C   UNL     1       4.333   2.985  17.189  0.00  0.00    +0.000 C 
BRANCH  23  24
ATOM     24  S   UNL     1       2.537   2.865  17.387  0.00  0.00    +0.000 S 
BRANCH  24  25
ATOM     25  C   UNL     1       2.408   3.241  19.116  0.00  0.00    +0.000 A 
ATOM     26  N   UNL     1       2.866   2.353  20.012  0.00  0.00    +0.000 NA
ATOM     27  C   UNL     1       2.712   2.682  21.309  0.00  0.00    +0.000 A 
ATOM     28  C   UNL     1       2.131   3.853  21.730  0.00  0.00    +0.000 A 
ATOM     29  C   UNL     1       1.701   4.691  20.730  0.00  0.00    +0.000 A 
ATOM     30  N   UNL     1       1.823   4.410  19.420  0.00  0.00    +0.000 NA
ENDBRANCH  24  25
ENDBRANCH  23  24
ENDBRANCH  20  23
ENDBRANCH   4  19
TORSDOF 7
ENDMDL
MODEL 3
REMARK VINA RESULT:      -7.7      1.156      1.197
REMARK  Name = 
REMARK  8 active torsions:
REMARK  status: ('A' for Active; 'I' for Inactive)
REMARK    1  A    between atoms: C_1  and  O_2
REMARK    2  A    between atoms: O_2  and  C_3
REMARK    3  A    between atoms: C_8  and  N_9
REMARK    4  A    between atoms: C_10  and  C_12
REMARK    5  A    between atoms: C_15  and  N_16
REMARK    6  A    between atoms: C_17  and  C_19
REMARK    7  A    between atoms: C_19  and  S_20
REMARK    8  A    between atoms: S_20  and  C_21
REMARK                            x       y       z     vdW  Elec       q    Type
REMARK                         _______ _______ _______ _____ _____    ______ ____
ROOT
ATOM      1  C   UNL     1       0.937   9.604  19.375  0.00  0.00    +0.000 A 
ATOM      2  C   UNL     1       1.262   8.673  20.362  0.00  0.00    +0.000 A 
ATOM      3  C   UNL     1       2.023   7.552  20.029  0.00  0.00    +0.000 A 
ATOM      4  C   UNL     1       2.458   7.322  18.721  0.00  0.00    +0.000 A 
ATOM      5  C   UNL     1       2.198   8.293  17.751  0.00  0.00    +0.000 A 
ATOM      6  C   UNL     1       1.423   9.416  18.072  0.00  0.00    +0.000 A 
ENDROOT
BRANCH   1   8
ATOM      7  N   UNL     1       0.375  11.804  20.340  0.00  0.00    +0.000 N 
ATOM      8  C   UNL     1      -0.055  10.688  19.632  0.00  0.00    +0.000 C 
ATOM      9  O   UNL     1      -1.190  10.508  19.194  0.00  0.00    +0.000 OA
ATOM     10  H   UNL     1       1.368  12.003  20.395  0.00  0.00    +0.000 HD
BRANCH   7  16
ATOM     11  C   UNL     1      -0.860  12.790  22.228  0.00  0.00    +0.000 A 
ATOM     12  C   UNL     1      -1.658  13.830  22.736  0.00  0.00    +0.000 A 
ATOM     13  C   UNL     1      -2.125  14.850  21.908  0.00  0.00    +0.000 A 
ATOM     14  C   UNL     1      -1.799  14.844  20.558  0.00  0.00    +0.000 A 
ATOM     15  C   UNL     1      -0.981  13.837  20.048  0.00  0.00    +0.000 A 
ATOM     16  C   UNL     1      -0.475  12.818  20.870  0.00  0.00    +0.000 A 
BRANCH  11  18
ATOM     17  C   UNL     1      -1.228  10.625  23.155  0.00  0.00    +0.000 C 
ATOM     18  O   UNL     1      -0.374  11.764  23.009  0.00  0.00    +0.000 OA
ENDBRANCH  11  18
ENDBRANCH   7  16
ENDBRANCH   1   8
BRANCH   4  19
ATOM     19  N   UNL     1       3.117   6.135  18.333  0.00  0.00    +0.000 N 
ATOM     20  C   UNL     1       2.494   4.970  17.903  0.00  0.00    +0.000 C 
ATOM     21  O   UNL     1       1.282   4.857  17.710  0.00  0.00    +0.000 OA
ATOM     22  H   UNL     1       4.128   6.171  18.245  0.00  0.00    +0.000 HD
BRANCH  20  23
ATOM     23  C   UNL     1       3.408   3.819  17.520  0.00  0.00    +0.000 C 
BRANCH  23  24
ATOM     24  S   UNL     1       4.578   3.322  18.810  0.00  0.00    +0.000 S 
BRANCH  24  25
ATOM     25  C   UNL     1       5.844   4.535  18.539  0.00  0.00    +0.000 A 
ATOM     26  N   UNL     1       6.599   4.933  19.574  0.00  0.00    +0.000 NA
ATOM     27  C   UNL     1       7.522   5.877  19.310  0.00  0.00    +0.000 A 
ATOM     28  C   UNL     1       7.714   6.423  18.065  0.00  0.00    +0.000 A 
ATOM     29  C   UNL     1       6.890   5.941  17.076  0.00  0.00    +0.000 A 
ATOM     30  N   UNL     1       5.948   5.004  17.285  0.00  0.00    +0.000 NA
ENDBRANCH  24  25
ENDBRANCH  23  24
ENDBRANCH  20  23
ENDBRANCH   4  19
TORSDOF 7
ENDMDL
MODEL 4
REMARK VINA RESULT:      -7.7      1.026      2.167
REMARK  Name = 
REMARK  8 active torsions:
REMARK  status: ('A' for Active; 'I' for Inactive)
REMARK    1  A    between atoms: C_1  and  O_2
REMARK    2  A    between atoms: O_2  and  C_3
REMARK    3  A    between atoms: C_8  and  N_9
REMARK    4  A    between atoms: C_10  and  C_12
REMARK    5  A    between atoms: C_15  and  N_16
REMARK    6  A    between atoms: C_17  and  C_19
REMARK    7  A    between atoms: C_19  and  S_20
REMARK    8  A    between atoms: S_20  and  C_21
REMARK                            x       y       z     vdW  Elec       q    Type
REMARK                         _______ _______ _______ _____ _____    ______ ____
ROOT
ATOM      1  C   UNL     1       1.149   8.983  20.151  0.00  0.00    +0.000 A 
ATOM      2  C   UNL     1       1.575   9.096  18.828  0.00  0.00    +0.000 A 
ATOM      3  C   UNL     1       2.279   8.046  18.238  0.00  0.00    +0.000 A 
ATOM      4  C   UNL     1       2.590   6.882  18.946  0.00  0.00    +0.000 A 
ATOM      5  C   UNL     1       2.097   6.739  20.245  0.00  0.00    +0.000 A 
ATOM      6  C   UNL     1       1.400   7.794  20.851  0.00  0.00    +0.000 A 
ENDROOT
BRANCH   1   8
ATOM      7  N   UNL     1      -0.744  10.468  20.700  0.00  0.00    +0.000 N 
ATOM      8  C   UNL     1       0.597  10.157  20.888  0.00  0.00    +0.000 C 
ATOM      9  O   UNL     1       1.381  10.768  21.612  0.00  0.00    +0.000 OA
ATOM     10  H   UNL     1      -1.371   9.756  20.341  0.00  0.00    +0.000 HD
BRANCH   7  16
ATOM     11  C   UNL     1      -1.727  12.669  20.200  0.00  0.00    +0.000 A 
ATOM     12  C   UNL     1      -2.397  13.821  20.649  0.00  0.00    +0.000 A 
ATOM     13  C   UNL     1      -2.664  14.017  22.004  0.00  0.00    +0.000 A 
ATOM     14  C   UNL     1      -2.265  13.062  22.929  0.00  0.00    +0.000 A 
ATOM     15  C   UNL     1      -1.630  11.900  22.495  0.00  0.00    +0.000 A 
ATOM     16  C   UNL     1      -1.378  11.668  21.134  0.00  0.00    +0.000 A 
BRANCH  11  18
ATOM     17  C   UNL     1      -0.417  13.240  18.293  0.00  0.00    +0.000 C 
ATOM     18  O   UNL     1      -1.445  12.431  18.873  0.00  0.00    +0.000 OA
ENDBRANCH  11  18
ENDBRANCH   7  16
ENDBRANCH   1   8
BRANCH   4  19
ATOM     19  N   UNL     1       3.411   5.862  18.416  0.00  0.00    +0.000 N 
ATOM     20  C   UNL     1       2.959   4.708  17.789  0.00  0.00    +0.000 C 
ATOM     21  O   UNL     1       1.778   4.474  17.524  0.00  0.00    +0.000 OA
ATOM     22  H   UNL     1       4.410   6.039  18.383  0.00  0.00    +0.000 HD
BRANCH  20  23
ATOM     23  C   UNL     1       4.028   3.755  17.282  0.00  0.00    +0.000 C 
BRANCH  23  24
ATOM     24  S   UNL     1       5.094   4.435  15.986  0.00  0.00    +0.000 S 
BRANCH  24  25
ATOM     25  C   UNL     1       6.253   5.320  16.997  0.00  0.00    +0.000 A 
ATOM     26  N   UNL     1       6.878   4.671  17.992  0.00  0.00    +0.000 NA
ATOM     27  C   UNL     1       7.723   5.405  18.742  0.00  0.00    +0.000 A 
ATOM     28  C   UNL     1       7.962   6.740  18.530  0.00  0.00    +0.000 A 
ATOM     29  C   UNL     1       7.272   7.304  17.483  0.00  0.00    +0.000 A 
ATOM     30  N   UNL     1       6.412   6.621  16.706  0.00  0.00    +0.000 NA
ENDBRANCH  24  25
ENDBRANCH  23  24
ENDBRANCH  20  23
ENDBRANCH   4  19
TORSDOF 7
ENDMDL
MODEL 5
REMARK VINA RESULT:      -7.7      1.586      2.204
REMARK  Name = 
REMARK  8 active torsions:
REMARK  status: ('A' for Active; 'I' for Inactive)
REMARK    1  A    between atoms: C_1  and  O_2
REMARK    2  A    between atoms: O_2  and  C_3
REMARK    3  A    between atoms: C_8  and  N_9
REMARK    4  A    between atoms: C_10  and  C_12
REMARK    5  A    between atoms: C_15  and  N_16
REMARK    6  A    between atoms: C_17  and  C_19
REMARK    7  A    between atoms: C_19  and  S_20
REMARK    8  A    between atoms: S_20  and  C_21
REMARK                            x       y       z     vdW  Elec       q    Type
REMARK                         _______ _______ _______ _____ _____    ______ ____
ROOT
ATOM      1  C   UNL     1       0.716   9.773  19.595  0.00  0.00    +0.000 A 
ATOM      2  C   UNL     1       1.076   9.653  18.253  0.00  0.00    +0.000 A 
ATOM      3  C   UNL     1       1.824   8.551  17.836  0.00  0.00    +0.000 A 
ATOM      4  C   UNL     1       2.243   7.567  18.735  0.00  0.00    +0.000 A 
ATOM      5  C   UNL     1       1.817   7.650  20.062  0.00  0.00    +0.000 A 
ATOM      6  C   UNL     1       1.077   8.759  20.494  0.00  0.00    +0.000 A 
ENDROOT
BRANCH   1   8
ATOM      7  N   UNL     1       0.068  11.199  21.503  0.00  0.00    +0.000 N 
ATOM      8  C   UNL     1       0.118  11.034  20.124  0.00  0.00    +0.000 C 
ATOM      9  O   UNL     1      -0.290  11.840  19.289  0.00  0.00    +0.000 OA
ATOM     10  H   UNL     1       0.682  10.645  22.089  0.00  0.00    +0.000 HD
BRANCH   7  16
ATOM     11  C   UNL     1      -0.115  13.510  22.330  0.00  0.00    +0.000 A 
ATOM     12  C   UNL     1      -0.878  14.509  22.960  0.00  0.00    +0.000 A 
ATOM     13  C   UNL     1      -2.133  14.225  23.497  0.00  0.00    +0.000 A 
ATOM     14  C   UNL     1      -2.644  12.938  23.409  0.00  0.00    +0.000 A 
ATOM     15  C   UNL     1      -1.914  11.946  22.757  0.00  0.00    +0.000 A 
ATOM     16  C   UNL     1      -0.662  12.216  22.183  0.00  0.00    +0.000 A 
BRANCH  11  18
ATOM     17  C   UNL     1       1.521  15.116  21.677  0.00  0.00    +0.000 C 
ATOM     18  O   UNL     1       1.127  13.744  21.782  0.00  0.00    +0.000 OA
ENDBRANCH  11  18
ENDBRANCH   7  16
ENDBRANCH   1   8
BRANCH   4  19
ATOM     19  N   UNL     1       3.108   6.513  18.365  0.00  0.00    +0.000 N 
ATOM     20  C   UNL     1       2.707   5.252  17.942  0.00  0.00    +0.000 C 
ATOM     21  O   UNL     1       1.537   4.923  17.739  0.00  0.00    +0.000 OA
ATOM     22  H   UNL     1       4.097   6.728  18.287  0.00  0.00    +0.000 HD
BRANCH  20  23
ATOM     23  C   UNL     1       3.817   4.280  17.579  0.00  0.00    +0.000 C 
BRANCH  23  24
ATOM     24  S   UNL     1       4.912   3.837  18.951  0.00  0.00    +0.000 S 
BRANCH  24  25
ATOM     25  C   UNL     1       6.175   5.062  18.723  0.00  0.00    +0.000 A 
ATOM     26  N   UNL     1       7.117   5.211  19.666  0.00  0.00    +0.000 NA
ATOM     27  C   UNL     1       8.030   6.177  19.449  0.00  0.00    +0.000 A 
ATOM     28  C   UNL     1       8.033   6.981  18.336  0.00  0.00    +0.000 A 
ATOM     29  C   UNL     1       7.026   6.741  17.432  0.00  0.00    +0.000 A 
ATOM     30  N   UNL     1       6.085   5.794  17.601  0.00  0.00    +0.000 NA
ENDBRANCH  24  25
ENDBRANCH  23  24
ENDBRANCH  20  23
ENDBRANCH   4  19
TORSDOF 7
ENDMDL
MODEL 6
REMARK VINA RESULT:      -7.7      2.564      3.423
REMARK  Name = 
REMARK  8 active torsions:
REMARK  status: ('A' for Active; 'I' for Inactive)
REMARK    1  A    between atoms: C_1  and  O_2
REMARK    2  A    between atoms: O_2  and  C_3
REMARK    3  A    between atoms: C_8  and  N_9
REMARK    4  A    between atoms: C_10  and  C_12
REMARK    5  A    between atoms: C_15  and  N_16
REMARK    6  A    between atoms: C_17  and  C_19
REMARK    7  A    between atoms: C_19  and  S_20
REMARK    8  A    between atoms: S_20  and  C_21
REMARK                            x       y       z     vdW  Elec       q    Type
REMARK                         _______ _______ _______ _____ _____    ______ ____
ROOT
ATOM      1  C   UNL     1       1.142   9.963  19.186  0.00  0.00    +0.000 A 
ATOM      2  C   UNL     1       1.672   9.517  17.975  0.00  0.00    +0.000 A 
ATOM      3  C   UNL     1       2.249   8.248  17.900  0.00  0.00    +0.000 A 
ATOM      4  C   UNL     1       2.329   7.411  19.017  0.00  0.00    +0.000 A 
ATOM      5  C   UNL     1       1.729   7.828  20.207  0.00  0.00    +0.000 A 
ATOM      6  C   UNL     1       1.159   9.106  20.296  0.00  0.00    +0.000 A 
ENDROOT
BRANCH   1   8
ATOM      7  N   UNL     1       1.099  12.299  18.393  0.00  0.00    +0.000 N 
ATOM      8  C   UNL     1       0.725  11.383  19.369  0.00  0.00    +0.000 C 
ATOM      9  O   UNL     1       0.077  11.638  20.382  0.00  0.00    +0.000 OA
ATOM     10  H   UNL     1       1.357  11.962  17.472  0.00  0.00    +0.000 HD
BRANCH   7  16
ATOM     11  C   UNL     1       2.148  14.523  18.511  0.00  0.00    +0.000 A 
ATOM     12  C   UNL     1       2.009  15.921  18.576  0.00  0.00    +0.000 A 
ATOM     13  C   UNL     1       0.754  16.514  18.704  0.00  0.00    +0.000 A 
ATOM     14  C   UNL     1      -0.381  15.717  18.767  0.00  0.00    +0.000 A 
ATOM     15  C   UNL     1      -0.261  14.332  18.669  0.00  0.00    +0.000 A 
ATOM     16  C   UNL     1       0.990  13.715  18.510  0.00  0.00    +0.000 A 
BRANCH  11  18
ATOM     17  C   UNL     1       4.500  14.746  18.198  0.00  0.00    +0.000 C 
ATOM     18  O   UNL     1       3.366  13.893  18.382  0.00  0.00    +0.000 OA
ENDBRANCH  11  18
ENDBRANCH   7  16
ENDBRANCH   1   8
BRANCH   4  19
ATOM     19  N   UNL     1       3.020   6.180  19.001  0.00  0.00    +0.000 N 
ATOM     20  C   UNL     1       2.575   5.014  18.392  0.00  0.00    +0.000 C 
ATOM     21  O   UNL     1       1.560   4.932  17.698  0.00  0.00    +0.000 OA
ATOM     22  H   UNL     1       3.970   6.175  19.358  0.00  0.00    +0.000 HD
BRANCH  20  23
ATOM     23  C   UNL     1       3.496   3.809  18.490  0.00  0.00    +0.000 C 
BRANCH  23  24
ATOM     24  S   UNL     1       4.670   3.643  17.122  0.00  0.00    +0.000 S 
BRANCH  24  25
ATOM     25  C   UNL     1       5.892   4.820  17.642  0.00  0.00    +0.000 A 
ATOM     26  N   UNL     1       6.308   5.754  16.773  0.00  0.00    +0.000 NA
ATOM     27  C   UNL     1       7.258   6.599  17.218  0.00  0.00    +0.000 A 
ATOM     28  C   UNL     1       7.792   6.544  18.482  0.00  0.00    +0.000 A 
ATOM     29  C   UNL     1       7.291   5.551  19.290  0.00  0.00    +0.000 A 
ATOM     30  N   UNL     1       6.348   4.677  18.896  0.00  0.00    +0.000 NA
ENDBRANCH  24  25
ENDBRANCH  23  24
ENDBRANCH  20  23
ENDBRANCH   4  19
TORSDOF 7
ENDMDL
MODEL 7
REMARK VINA RESULT:      -7.6      3.420     10.447
REMARK  Name = 
REMARK  8 active torsions:
REMARK  status: ('A' for Active; 'I' for Inactive)
REMARK    1  A    between atoms: C_1  and  O_2
REMARK    2  A    between atoms: O_2  and  C_3
REMARK    3  A    between atoms: C_8  and  N_9
REMARK    4  A    between atoms: C_10  and  C_12
REMARK    5  A    between atoms: C_15  and  N_16
REMARK    6  A    between atoms: C_17  and  C_19
REMARK    7  A    between atoms: C_19  and  S_20
REMARK    8  A    between atoms: S_20  and  C_21
REMARK                            x       y       z     vdW  Elec       q    Type
REMARK                         _______ _______ _______ _____ _____    ______ ____
ROOT
ATOM      1  C   UNL     1       2.379   7.714  19.016  0.00  0.00    +0.000 A 
ATOM      2  C   UNL     1       1.934   8.891  18.412  0.00  0.00    +0.000 A 
ATOM      3  C   UNL     1       1.092   9.752  19.117  0.00  0.00    +0.000 A 
ATOM      4  C   UNL     1       0.662   9.458  20.414  0.00  0.00    +0.000 A 
ATOM      5  C   UNL     1       1.169   8.320  21.044  0.00  0.00    +0.000 A 
ATOM      6  C   UNL     1       2.004   7.442  20.340  0.00  0.00    +0.000 A 
ENDROOT
BRANCH   1   8
ATOM      7  N   UNL     1       4.452   6.825  18.015  0.00  0.00    +0.000 N 
ATOM      8  C   UNL     1       3.088   6.664  18.230  0.00  0.00    +0.000 C 
ATOM      9  O   UNL     1       2.404   5.725  17.826  0.00  0.00    +0.000 OA
ATOM     10  H   UNL     1       4.977   7.445  18.622  0.00  0.00    +0.000 HD
BRANCH   7  16
ATOM     11  C   UNL     1       6.315   5.274  17.584  0.00  0.00    +0.000 A 
ATOM     12  C   UNL     1       7.042   4.485  16.675  0.00  0.00    +0.000 A 
ATOM     13  C   UNL     1       6.758   4.513  15.310  0.00  0.00    +0.000 A 
ATOM     14  C   UNL     1       5.740   5.329  14.835  0.00  0.00    +0.000 A 
ATOM     15  C   UNL     1       4.989   6.090  15.729  0.00  0.00    +0.000 A 
ATOM     16  C   UNL     1       5.238   6.056  17.110  0.00  0.00    +0.000 A 
BRANCH  11  18
ATOM     17  C   UNL     1       7.834   5.778  19.350  0.00  0.00    +0.000 C 
ATOM     18  O   UNL     1       6.557   5.278  18.940  0.00  0.00    +0.000 OA
ENDBRANCH  11  18
ENDBRANCH   7  16
ENDBRANCH   1   8
BRANCH   4  19
ATOM     19  N   UNL     1      -0.290  10.245  21.099  0.00  0.00    +0.000 N 
ATOM     20  C   UNL     1      -0.382  10.381  22.478  0.00  0.00    +0.000 C 
ATOM     21  O   UNL     1       0.424   9.908  23.281  0.00  0.00    +0.000 OA
ATOM     22  H   UNL     1      -0.879  10.855  20.540  0.00  0.00    +0.000 HD
BRANCH  20  23
ATOM     23  C   UNL     1      -1.480  11.296  22.993  0.00  0.00    +0.000 C 
BRANCH  23  24
ATOM     24  S   UNL     1      -2.218  12.372  21.738  0.00  0.00    +0.000 S 
BRANCH  24  25
ATOM     25  C   UNL     1      -3.765  12.726  22.529  0.00  0.00    +0.000 A 
ATOM     26  N   UNL     1      -4.669  13.482  21.887  0.00  0.00    +0.000 NA
ATOM     27  C   UNL     1      -5.811  13.740  22.553  0.00  0.00    +0.000 A 
ATOM     28  C   UNL     1      -6.076  13.270  23.815  0.00  0.00    +0.000 A 
ATOM     29  C   UNL     1      -5.084  12.502  24.379  0.00  0.00    +0.000 A 
ATOM     30  N   UNL     1      -3.922  12.219  23.763  0.00  0.00    +0.000 NA
ENDBRANCH  24  25
ENDBRANCH  23  24
ENDBRANCH  20  23
ENDBRANCH   4  19
TORSDOF 7
ENDMDL
MODEL 8
REMARK VINA RESULT:      -7.6      1.400      2.369
REMARK  Name = 
REMARK  8 active torsions:
REMARK  status: ('A' for Active; 'I' for Inactive)
REMARK    1  A    between atoms: C_1  and  O_2
REMARK    2  A    between atoms: O_2  and  C_3
REMARK    3  A    between atoms: C_8  and  N_9
REMARK    4  A    between atoms: C_10  and  C_12
REMARK    5  A    between atoms: C_15  and  N_16
REMARK    6  A    between atoms: C_17  and  C_19
REMARK    7  A    between atoms: C_19  and  S_20
REMARK    8  A    between atoms: S_20  and  C_21
REMARK                            x       y       z     vdW  Elec       q    Type
REMARK                         _______ _______ _______ _____ _____    ______ ____
ROOT
ATOM      1  C   UNL     1       1.196   9.141  19.827  0.00  0.00    +0.000 A 
ATOM      2  C   UNL     1       1.624   9.085  18.500  0.00  0.00    +0.000 A 
ATOM      3  C   UNL     1       2.336   7.972  18.051  0.00  0.00    +0.000 A 
ATOM      4  C   UNL     1       2.653   6.911  18.904  0.00  0.00    +0.000 A 
ATOM      5  C   UNL     1       2.158   6.934  20.210  0.00  0.00    +0.000 A 
ATOM      6  C   UNL     1       1.453   8.053  20.674  0.00  0.00    +0.000 A 
ENDROOT
BRANCH   1   8
ATOM      7  N   UNL     1      -0.189  11.170  19.597  0.00  0.00    +0.000 N 
ATOM      8  C   UNL     1       0.636  10.397  20.405  0.00  0.00    +0.000 C 
ATOM      9  O   UNL     1       0.952  10.655  21.565  0.00  0.00    +0.000 OA
ATOM     10  H   UNL     1      -0.630  10.744  18.789  0.00  0.00    +0.000 HD
BRANCH   7  16
ATOM     11  C   UNL     1       0.163  13.605  19.518  0.00  0.00    +0.000 A 
ATOM     12  C   UNL     1      -0.313  14.902  19.778  0.00  0.00    +0.000 A 
ATOM     13  C   UNL     1      -1.514  15.105  20.458  0.00  0.00    +0.000 A 
ATOM     14  C   UNL     1      -2.257  14.012  20.884  0.00  0.00    +0.000 A 
ATOM     15  C   UNL     1      -1.813  12.721  20.602  0.00  0.00    +0.000 A 
ATOM     16  C   UNL     1      -0.623  12.494  19.894  0.00  0.00    +0.000 A 
BRANCH  11  18
ATOM     17  C   UNL     1       2.125  14.503  18.506  0.00  0.00    +0.000 C 
ATOM     18  O   UNL     1       1.341  13.357  18.848  0.00  0.00    +0.000 OA
ENDBRANCH  11  18
ENDBRANCH   7  16
ENDBRANCH   1   8
BRANCH   4  19
ATOM     19  N   UNL     1       3.481   5.836  18.511  0.00  0.00    +0.000 N 
ATOM     20  C   UNL     1       3.045   4.660  17.916  0.00  0.00    +0.000 C 
ATOM     21  O   UNL     1       1.885   4.444  17.561  0.00  0.00    +0.000 OA
ATOM     22  H   UNL     1       4.484   5.981  18.557  0.00  0.00    +0.000 HD
BRANCH  20  23
ATOM     23  C   UNL     1       4.121   3.645  17.564  0.00  0.00    +0.000 C 
BRANCH  23  24
ATOM     24  S   UNL     1       5.239   4.160  16.236  0.00  0.00    +0.000 S 
BRANCH  24  25
ATOM     25  C   UNL     1       6.338   5.196  17.166  0.00  0.00    +0.000 A 
ATOM     26  N   UNL     1       6.805   4.759  18.346  0.00  0.00    +0.000 NA
ATOM     27  C   UNL     1       7.611   5.603  19.018  0.00  0.00    +0.000 A 
ATOM     28  C   UNL     1       7.963   6.846  18.553  0.00  0.00    +0.000 A 
ATOM     29  C   UNL     1       7.433   7.192  17.332  0.00  0.00    +0.000 A 
ATOM     30  N   UNL     1       6.619   6.391  16.622  0.00  0.00    +0.000 NA
ENDBRANCH  24  25
ENDBRANCH  23  24
ENDBRANCH  20  23
ENDBRANCH   4  19
TORSDOF 7
ENDMDL
MODEL 9
REMARK VINA RESULT:      -7.6      1.481      1.947
REMARK  Name = 
REMARK  8 active torsions:
REMARK  status: ('A' for Active; 'I' for Inactive)
REMARK    1  A    between atoms: C_1  and  O_2
REMARK    2  A    between atoms: O_2  and  C_3
REMARK    3  A    between atoms: C_8  and  N_9
REMARK    4  A    between atoms: C_10  and  C_12
REMARK    5  A    between atoms: C_15  and  N_16
REMARK    6  A    between atoms: C_17  and  C_19
REMARK    7  A    between atoms: C_19  and  S_20
REMARK    8  A    between atoms: S_20  and  C_21
REMARK                            x       y       z     vdW  Elec       q    Type
REMARK                         _______ _______ _______ _____ _____    ______ ____
ROOT
ATOM      1  C   UNL     1       0.768   9.666  19.746  0.00  0.00    +0.000 A 
ATOM      2  C   UNL     1       1.218   8.644  20.582  0.00  0.00    +0.000 A 
ATOM      3  C   UNL     1       2.009   7.622  20.056  0.00  0.00    +0.000 A 
ATOM      4  C   UNL     1       2.350   7.580  18.702  0.00  0.00    +0.000 A 
ATOM      5  C   UNL     1       1.963   8.644  17.884  0.00  0.00    +0.000 A 
ATOM      6  C   UNL     1       1.158   9.669  18.399  0.00  0.00    +0.000 A 
ENDROOT
BRANCH   1   8
ATOM      7  N   UNL     1       0.002  11.348  21.382  0.00  0.00    +0.000 N 
ATOM      8  C   UNL     1      -0.256  10.647  20.209  0.00  0.00    +0.000 C 
ATOM      9  O   UNL     1      -1.262  10.761  19.511  0.00  0.00    +0.000 OA
ATOM     10  H   UNL     1       0.957  11.416  21.717  0.00  0.00    +0.000 HD
BRANCH   7  16
ATOM     11  C   UNL     1      -0.917  13.552  21.980  0.00  0.00    +0.000 A 
ATOM     12  C   UNL     1      -1.895  14.311  22.648  0.00  0.00    +0.000 A 
ATOM     13  C   UNL     1      -2.848  13.700  23.462  0.00  0.00    +0.000 A 
ATOM     14  C   UNL     1      -2.836  12.321  23.620  0.00  0.00    +0.000 A 
ATOM     15  C   UNL     1      -1.894  11.554  22.937  0.00  0.00    +0.000 A 
ATOM     16  C   UNL     1      -0.945  12.144  22.088  0.00  0.00    +0.000 A 
BRANCH  11  18
ATOM     17  C   UNL     1       1.112  14.792  21.823  0.00  0.00    +0.000 C 
ATOM     18  O   UNL     1       0.041  14.111  21.163  0.00  0.00    +0.000 OA
ENDBRANCH  11  18
ENDBRANCH   7  16
ENDBRANCH   1   8
BRANCH   4  19
ATOM     19  N   UNL     1       3.037   6.492  18.120  0.00  0.00    +0.000 N 
ATOM     20  C   UNL     1       2.577   5.183  18.066  0.00  0.00    +0.000 C 
ATOM     21  O   UNL     1       1.458   4.821  18.434  0.00  0.00    +0.000 OA
ATOM     22  H   UNL     1       3.880   6.703  17.594  0.00  0.00    +0.000 HD
BRANCH  20  23
ATOM     23  C   UNL     1       3.483   4.179  17.375  0.00  0.00    +0.000 C 
BRANCH  23  24
ATOM     24  S   UNL     1       4.760   3.457  18.436  0.00  0.00    +0.000 S 
BRANCH  24  25
ATOM     25  C   UNL     1       5.980   4.741  18.338  0.00  0.00    +0.000 A 
ATOM     26  N   UNL     1       6.862   4.880  19.340  0.00  0.00    +0.000 NA
ATOM     27  C   UNL     1       7.744   5.892  19.221  0.00  0.00    +0.000 A 
ATOM     28  C   UNL     1       7.775   6.749  18.148  0.00  0.00    +0.000 A 
ATOM     29  C   UNL     1       6.830   6.513  17.177  0.00  0.00    +0.000 A 
ATOM     30  N   UNL     1       5.923   5.522  17.248  0.00  0.00    +0.000 NA
ENDBRANCH  24  25
ENDBRANCH  23  24
ENDBRANCH  20  23
ENDBRANCH   4  19
TORSDOF 7
ENDMDL
