MODEL 1
REMARK VINA RESULT:      -6.7      0.000      0.000
REMARK  Name = 
REMARK  6 active torsions:
REMARK  status: ('A' for Active; 'I' for Inactive)
REMARK    1  A    between atoms: C_1  and  O_2
REMARK    2  A    between atoms: O_2  and  C_3
REMARK    3  A    between atoms: C_3  and  C_4
REMARK    4  A    between atoms: C_4  and  C_5
REMARK    5  A    between atoms: C_5  and  N_6
REMARK    6  A    between atoms: C_11  and  C_12
REMARK                            x       y       z     vdW  Elec       q    Type
REMARK                         _______ _______ _______ _____ _____    ______ ____
ROOT
ATOM      1  N   UNL     1       1.833   5.144  20.088  0.00  0.00    +0.000 N 
ATOM      2  C   UNL     1       2.703   5.787  19.215  0.00  0.00    +0.000 A 
ATOM      3  N   UNL     1       2.248   6.912  18.656  0.00  0.00    +0.000 NA
ATOM      4  C   UNL     1       3.080   7.551  17.811  0.00  0.00    +0.000 A 
ATOM      5  C   UNL     1       4.341   7.114  17.520  0.00  0.00    +0.000 A 
ATOM      6  C   UNL     1       4.719   5.940  18.123  0.00  0.00    +0.000 A 
ATOM      7  N   UNL     1       3.919   5.284  18.991  0.00  0.00    +0.000 NA
ATOM      8  H   UNL     1       1.183   5.862  20.396  0.00  0.00    +0.000 HD
ENDROOT
BRANCH   6   9
ATOM      9  C   UNL     1       5.982   5.296  17.821  0.00  0.00    +0.000 A 
ATOM     10  C   UNL     1       6.397   4.785  16.657  0.00  0.00    +0.000 A 
ATOM     11  N   UNL     1       7.683   4.297  16.682  0.00  0.00    +0.000 N 
ATOM     12  N   UNL     1       8.054   4.311  18.020  0.00  0.00    +0.000 N 
ATOM     13  C   UNL     1       7.133   5.068  18.739  0.00  0.00    +0.000 A 
ATOM     14  O   UNL     1       7.246   5.455  19.884  0.00  0.00    +0.000 OA
ATOM     15  H   UNL     1       7.802   3.414  16.186  0.00  0.00    +0.000 HD
ATOM     16  H   UNL     1       9.013   4.180  18.319  0.00  0.00    +0.000 HD
ENDBRANCH   6   9
BRANCH   1  17
ATOM     17  C   UNL     1       2.501   4.416  21.151  0.00  0.00    +0.000 C 
BRANCH  17  18
ATOM     18  C   UNL     1       1.839   3.055  21.340  0.00  0.00    +0.000 C 
BRANCH  18  19
ATOM     19  C   UNL     1       1.165   2.593  20.055  0.00  0.00    +0.000 C 
BRANCH  19  21
ATOM     20  C   UNL     1       2.188   2.358  17.945  0.00  0.00    +0.000 C 
ATOM     21  O   UNL     1       2.111   1.861  19.276  0.00  0.00    +0.000 OA
ENDBRANCH  19  21
ENDBRANCH  18  19
ENDBRANCH  17  18
ENDBRANCH   1  17
TORSDOF 5
ENDMDL
MODEL 2
REMARK VINA RESULT:      -6.5      1.487      2.103
REMARK  Name = 
REMARK  6 active torsions:
REMARK  status: ('A' for Active; 'I' for Inactive)
REMARK    1  A    between atoms: C_1  and  O_2
REMARK    2  A    between atoms: O_2  and  C_3
REMARK    3  A    between atoms: C_3  and  C_4
REMARK    4  A    between atoms: C_4  and  C_5
REMARK    5  A    between atoms: C_5  and  N_6
REMARK    6  A    between atoms: C_11  and  C_12
REMARK                            x       y       z     vdW  Elec       q    Type
REMARK                         _______ _______ _______ _____ _____    ______ ____
ROOT
ATOM      1  N   UNL     1       1.439   3.720  18.001  0.00  0.00    +0.000 N 
ATOM      2  C   UNL     1       2.353   4.757  17.862  0.00  0.00    +0.000 A 
ATOM      3  N   UNL     1       1.944   5.959  18.280  0.00  0.00    +0.000 NA
ATOM      4  C   UNL     1       2.820   6.975  18.157  0.00  0.00    +0.000 A 
ATOM      5  C   UNL     1       4.079   6.830  17.648  0.00  0.00    +0.000 A 
ATOM      6  C   UNL     1       4.408   5.565  17.225  0.00  0.00    +0.000 A 
ATOM      7  N   UNL     1       3.564   4.519  17.351  0.00  0.00    +0.000 NA
ATOM      8  H   UNL     1       0.797   4.023  18.728  0.00  0.00    +0.000 HD
ENDROOT
BRANCH   6   9
ATOM      9  C   UNL     1       5.665   5.284  16.559  0.00  0.00    +0.000 A 
ATOM     10  C   UNL     1       5.993   5.496  15.281  0.00  0.00    +0.000 A 
ATOM     11  N   UNL     1       7.296   5.177  14.973  0.00  0.00    +0.000 N 
ATOM     12  N   UNL     1       7.786   4.518  16.094  0.00  0.00    +0.000 N 
ATOM     13  C   UNL     1       6.903   4.705  17.153  0.00  0.00    +0.000 A 
ATOM     14  O   UNL     1       7.102   4.443  18.321  0.00  0.00    +0.000 OA
ATOM     15  H   UNL     1       7.407   4.698  14.079  0.00  0.00    +0.000 HD
ATOM     16  H   UNL     1       8.772   4.331  16.224  0.00  0.00    +0.000 HD
ENDBRANCH   6   9
BRANCH   1  17
ATOM     17  C   UNL     1       2.053   2.423  18.220  0.00  0.00    +0.000 C 
BRANCH  17  18
ATOM     18  C   UNL     1       1.934   2.036  19.690  0.00  0.00    +0.000 C 
BRANCH  18  19
ATOM     19  C   UNL     1       3.168   2.468  20.471  0.00  0.00    +0.000 C 
BRANCH  19  21
ATOM     20  C   UNL     1       1.403   2.770  22.002  0.00  0.00    +0.000 C 
ATOM     21  O   UNL     1       2.810   2.639  21.841  0.00  0.00    +0.000 OA
ENDBRANCH  19  21
ENDBRANCH  18  19
ENDBRANCH  17  18
ENDBRANCH   1  17
TORSDOF 5
ENDMDL
MODEL 3
REMARK VINA RESULT:      -6.4      3.653      6.153
REMARK  Name = 
REMARK  6 active torsions:
REMARK  status: ('A' for Active; 'I' for Inactive)
REMARK    1  A    between atoms: C_1  and  O_2
REMARK    2  A    between atoms: O_2  and  C_3
REMARK    3  A    between atoms: C_3  and  C_4
REMARK    4  A    between atoms: C_4  and  C_5
REMARK    5  A    between atoms: C_5  and  N_6
REMARK    6  A    between atoms: C_11  and  C_12
REMARK                            x       y       z     vdW  Elec       q    Type
REMARK                         _______ _______ _______ _____ _____    ______ ____
ROOT
ATOM      1  N   UNL     1       6.917   4.273  14.452  0.00  0.00    +0.000 N 
ATOM      2  C   UNL     1       6.531   4.442  15.776  0.00  0.00    +0.000 A 
ATOM      3  N   UNL     1       7.282   5.274  16.504  0.00  0.00    +0.000 NA
ATOM      4  C   UNL     1       6.919   5.454  17.789  0.00  0.00    +0.000 A 
ATOM      5  C   UNL     1       5.837   4.848  18.360  0.00  0.00    +0.000 A 
ATOM      6  C   UNL     1       5.133   3.995  17.545  0.00  0.00    +0.000 A 
ATOM      7  N   UNL     1       5.456   3.806  16.247  0.00  0.00    +0.000 NA
ATOM      8  H   UNL     1       7.464   5.099  14.224  0.00  0.00    +0.000 HD
ENDROOT
BRANCH   6   9
ATOM      9  C   UNL     1       4.032   3.195  18.043  0.00  0.00    +0.000 A 
ATOM     10  C   UNL     1       2.851   2.954  17.464  0.00  0.00    +0.000 A 
ATOM     11  N   UNL     1       2.041   2.095  18.171  0.00  0.00    +0.000 N 
ATOM     12  N   UNL     1       2.669   1.928  19.399  0.00  0.00    +0.000 N 
ATOM     13  C   UNL     1       3.965   2.428  19.319  0.00  0.00    +0.000 A 
ATOM     14  O   UNL     1       4.855   2.274  20.129  0.00  0.00    +0.000 OA
ATOM     15  H   UNL     1       1.060   2.373  18.195  0.00  0.00    +0.000 HD
ATOM     16  H   UNL     1       2.396   1.205  20.053  0.00  0.00    +0.000 HD
ENDBRANCH   6   9
BRANCH   1  17
ATOM     17  C   UNL     1       5.814   3.992  13.552  0.00  0.00    +0.000 C 
BRANCH  17  18
ATOM     18  C   UNL     1       6.338   3.323  12.285  0.00  0.00    +0.000 C 
BRANCH  18  19
ATOM     19  C   UNL     1       5.214   2.623  11.532  0.00  0.00    +0.000 C 
BRANCH  19  21
ATOM     20  C   UNL     1       3.309   3.398  10.380  0.00  0.00    +0.000 C 
ATOM     21  O   UNL     1       4.041   3.433  11.600  0.00  0.00    +0.000 OA
ENDBRANCH  19  21
ENDBRANCH  18  19
ENDBRANCH  17  18
ENDBRANCH   1  17
TORSDOF 5
ENDMDL
MODEL 4
REMARK VINA RESULT:      -6.4      3.573      6.342
REMARK  Name = 
REMARK  6 active torsions:
REMARK  status: ('A' for Active; 'I' for Inactive)
REMARK    1  A    between atoms: C_1  and  O_2
REMARK    2  A    between atoms: O_2  and  C_3
REMARK    3  A    between atoms: C_3  and  C_4
REMARK    4  A    between atoms: C_4  and  C_5
REMARK    5  A    between atoms: C_5  and  N_6
REMARK    6  A    between atoms: C_11  and  C_12
REMARK                            x       y       z     vdW  Elec       q    Type
REMARK                         _______ _______ _______ _____ _____    ______ ____
ROOT
ATOM      1  N   UNL     1       7.001   4.345  14.796  0.00  0.00    +0.000 N 
ATOM      2  C   UNL     1       6.525   4.406  16.100  0.00  0.00    +0.000 A 
ATOM      3  N   UNL     1       7.315   5.023  16.985  0.00  0.00    +0.000 NA
ATOM      4  C   UNL     1       6.867   5.095  18.253  0.00  0.00    +0.000 A 
ATOM      5  C   UNL     1       5.665   4.589  18.659  0.00  0.00    +0.000 A 
ATOM      6  C   UNL     1       4.927   3.956  17.689  0.00  0.00    +0.000 A 
ATOM      7  N   UNL     1       5.335   3.882  16.404  0.00  0.00    +0.000 NA
ATOM      8  H   UNL     1       7.674   5.103  14.720  0.00  0.00    +0.000 HD
ENDROOT
BRANCH   6   9
ATOM      9  C   UNL     1       3.686   3.272  17.996  0.00  0.00    +0.000 A 
ATOM     10  C   UNL     1       3.501   1.983  18.298  0.00  0.00    +0.000 A 
ATOM     11  N   UNL     1       2.199   1.657  18.604  0.00  0.00    +0.000 N 
ATOM     12  N   UNL     1       1.453   2.782  18.276  0.00  0.00    +0.000 N 
ATOM     13  C   UNL     1       2.316   3.854  18.067  0.00  0.00    +0.000 A 
ATOM     14  O   UNL     1       2.010   5.023  17.959  0.00  0.00    +0.000 OA
ATOM     15  H   UNL     1       1.887   0.772  18.204  0.00  0.00    +0.000 HD
ATOM     16  H   UNL     1       0.491   2.898  18.565  0.00  0.00    +0.000 HD
ENDBRANCH   6   9
BRANCH   1  17
ATOM     17  C   UNL     1       5.955   4.342  13.790  0.00  0.00    +0.000 C 
BRANCH  17  18
ATOM     18  C   UNL     1       6.415   3.555  12.568  0.00  0.00    +0.000 C 
BRANCH  18  19
ATOM     19  C   UNL     1       5.225   2.997  11.798  0.00  0.00    +0.000 C 
BRANCH  19  21
ATOM     20  C   UNL     1       6.910   1.535  11.039  0.00  0.00    +0.000 C 
ATOM     21  O   UNL     1       5.534   1.671  11.371  0.00  0.00    +0.000 OA
ENDBRANCH  19  21
ENDBRANCH  18  19
ENDBRANCH  17  18
ENDBRANCH   1  17
TORSDOF 5
ENDMDL
MODEL 5
REMARK VINA RESULT:      -6.3      3.152      6.015
REMARK  Name = 
REMARK  6 active torsions:
REMARK  status: ('A' for Active; 'I' for Inactive)
REMARK    1  A    between atoms: C_1  and  O_2
REMARK    2  A    between atoms: O_2  and  C_3
REMARK    3  A    between atoms: C_3  and  C_4
REMARK    4  A    between atoms: C_4  and  C_5
REMARK    5  A    between atoms: C_5  and  N_6
REMARK    6  A    between atoms: C_11  and  C_12
REMARK                            x       y       z     vdW  Elec       q    Type
REMARK                         _______ _______ _______ _____ _____    ______ ____
ROOT
ATOM      1  N   UNL     1       7.416   4.798  15.581  0.00  0.00    +0.000 N 
ATOM      2  C   UNL     1       6.719   4.872  16.781  0.00  0.00    +0.000 A 
ATOM      3  N   UNL     1       7.401   5.348  17.827  0.00  0.00    +0.000 NA
ATOM      4  C   UNL     1       6.740   5.432  18.997  0.00  0.00    +0.000 A 
ATOM      5  C   UNL     1       5.432   5.071  19.152  0.00  0.00    +0.000 A 
ATOM      6  C   UNL     1       4.814   4.575  18.031  0.00  0.00    +0.000 A 
ATOM      7  N   UNL     1       5.439   4.496  16.836  0.00  0.00    +0.000 NA
ATOM      8  H   UNL     1       8.177   5.465  15.671  0.00  0.00    +0.000 HD
ENDROOT
BRANCH   6   9
ATOM      9  C   UNL     1       3.464   4.046  18.071  0.00  0.00    +0.000 A 
ATOM     10  C   UNL     1       2.308   4.717  18.056  0.00  0.00    +0.000 A 
ATOM     11  N   UNL     1       1.190   3.914  18.039  0.00  0.00    +0.000 N 
ATOM     12  N   UNL     1       1.661   2.627  18.264  0.00  0.00    +0.000 N 
ATOM     13  C   UNL     1       3.045   2.617  18.117  0.00  0.00    +0.000 A 
ATOM     14  O   UNL     1       3.762   1.640  18.048  0.00  0.00    +0.000 OA
ATOM     15  H   UNL     1       0.437   4.237  18.647  0.00  0.00    +0.000 HD
ATOM     16  H   UNL     1       1.086   1.807  18.121  0.00  0.00    +0.000 HD
ENDBRANCH   6   9
BRANCH   1  17
ATOM     17  C   UNL     1       6.580   4.968  14.407  0.00  0.00    +0.000 C 
BRANCH  17  18
ATOM     18  C   UNL     1       6.208   3.603  13.835  0.00  0.00    +0.000 C 
BRANCH  18  19
ATOM     19  C   UNL     1       6.376   3.582  12.321  0.00  0.00    +0.000 C 
BRANCH  19  21
ATOM     20  C   UNL     1       4.256   3.199  11.366  0.00  0.00    +0.000 C 
ATOM     21  O   UNL     1       5.485   2.611  11.773  0.00  0.00    +0.000 OA
ENDBRANCH  19  21
ENDBRANCH  18  19
ENDBRANCH  17  18
ENDBRANCH   1  17
TORSDOF 5
ENDMDL
MODEL 6
REMARK VINA RESULT:      -6.3      3.033      6.442
REMARK  Name = 
REMARK  6 active torsions:
REMARK  status: ('A' for Active; 'I' for Inactive)
REMARK    1  A    between atoms: C_1  and  O_2
REMARK    2  A    between atoms: O_2  and  C_3
REMARK    3  A    between atoms: C_3  and  C_4
REMARK    4  A    between atoms: C_4  and  C_5
REMARK    5  A    between atoms: C_5  and  N_6
REMARK    6  A    between atoms: C_11  and  C_12
REMARK                            x       y       z     vdW  Elec       q    Type
REMARK                         _______ _______ _______ _____ _____    ______ ____
ROOT
ATOM      1  N   UNL     1       7.624   6.916  16.776  0.00  0.00    +0.000 N 
ATOM      2  C   UNL     1       6.918   5.801  16.340  0.00  0.00    +0.000 A 
ATOM      3  N   UNL     1       7.266   5.317  15.144  0.00  0.00    +0.000 NA
ATOM      4  C   UNL     1       6.596   4.233  14.709  0.00  0.00    +0.000 A 
ATOM      5  C   UNL     1       5.610   3.617  15.426  0.00  0.00    +0.000 A 
ATOM      6  C   UNL     1       5.304   4.192  16.635  0.00  0.00    +0.000 A 
ATOM      7  N   UNL     1       5.969   5.267  17.112  0.00  0.00    +0.000 NA
ATOM      8  H   UNL     1       8.498   6.900  16.258  0.00  0.00    +0.000 HD
ENDROOT
BRANCH   6   9
ATOM      9  C   UNL     1       4.204   3.718  17.452  0.00  0.00    +0.000 A 
ATOM     10  C   UNL     1       2.930   3.521  17.098  0.00  0.00    +0.000 A 
ATOM     11  N   UNL     1       2.141   3.000  18.098  0.00  0.00    +0.000 N 
ATOM     12  N   UNL     1       2.922   3.053  19.245  0.00  0.00    +0.000 N 
ATOM     13  C   UNL     1       4.241   3.316  18.887  0.00  0.00    +0.000 A 
ATOM     14  O   UNL     1       5.218   3.238  19.602  0.00  0.00    +0.000 OA
ATOM     15  H   UNL     1       1.214   3.420  18.157  0.00  0.00    +0.000 HD
ATOM     16  H   UNL     1       2.668   2.568  20.096  0.00  0.00    +0.000 HD
ENDBRANCH   6   9
BRANCH   1  17
ATOM     17  C   UNL     1       7.759   6.998  18.218  0.00  0.00    +0.000 C 
BRANCH  17  18
ATOM     18  C   UNL     1       8.559   8.242  18.593  0.00  0.00    +0.000 C 
BRANCH  18  19
ATOM     19  C   UNL     1       8.094   9.451  17.793  0.00  0.00    +0.000 C 
BRANCH  19  21
ATOM     20  C   UNL     1       9.358  10.441  19.518  0.00  0.00    +0.000 C 
ATOM     21  O   UNL     1       8.853  10.590  18.196  0.00  0.00    +0.000 OA
ENDBRANCH  19  21
ENDBRANCH  18  19
ENDBRANCH  17  18
ENDBRANCH   1  17
TORSDOF 5
ENDMDL
MODEL 7
REMARK VINA RESULT:      -6.3      3.792      6.059
REMARK  Name = 
REMARK  6 active torsions:
REMARK  status: ('A' for Active; 'I' for Inactive)
REMARK    1  A    between atoms: C_1  and  O_2
REMARK    2  A    between atoms: O_2  and  C_3
REMARK    3  A    between atoms: C_3  and  C_4
REMARK    4  A    between atoms: C_4  and  C_5
REMARK    5  A    between atoms: C_5  and  N_6
REMARK    6  A    between atoms: C_11  and  C_12
REMARK                            x       y       z     vdW  Elec       q    Type
REMARK                         _______ _______ _______ _____ _____    ______ ____
ROOT
ATOM      1  N   UNL     1       6.624   5.103  14.464  0.00  0.00    +0.000 N 
ATOM      2  C   UNL     1       5.727   5.361  15.494  0.00  0.00    +0.000 A 
ATOM      3  N   UNL     1       5.563   6.646  15.820  0.00  0.00    +0.000 NA
ATOM      4  C   UNL     1       4.693   6.915  16.812  0.00  0.00    +0.000 A 
ATOM      5  C   UNL     1       3.981   5.955  17.474  0.00  0.00    +0.000 A 
ATOM      6  C   UNL     1       4.226   4.660  17.087  0.00  0.00    +0.000 A 
ATOM      7  N   UNL     1       5.076   4.355  16.082  0.00  0.00    +0.000 NA
ATOM      8  H   UNL     1       6.683   5.969  13.936  0.00  0.00    +0.000 HD
ENDROOT
BRANCH   6   9
ATOM      9  C   UNL     1       3.632   3.530  17.774  0.00  0.00    +0.000 A 
ATOM     10  C   UNL     1       2.554   2.820  17.428  0.00  0.00    +0.000 A 
ATOM     11  N   UNL     1       2.284   1.761  18.264  0.00  0.00    +0.000 N 
ATOM     12  N   UNL     1       3.138   1.923  19.347  0.00  0.00    +0.000 N 
ATOM     13  C   UNL     1       4.101   2.877  19.029  0.00  0.00    +0.000 A 
ATOM     14  O   UNL     1       5.111   3.126  19.653  0.00  0.00    +0.000 OA
ATOM     15  H   UNL     1       1.294   1.642  18.478  0.00  0.00    +0.000 HD
ATOM     16  H   UNL     1       3.291   1.192  20.031  0.00  0.00    +0.000 HD
ENDBRANCH   6   9
BRANCH   1  17
ATOM     17  C   UNL     1       6.298   3.923  13.685  0.00  0.00    +0.000 C 
BRANCH  17  18
ATOM     18  C   UNL     1       6.778   4.103  12.248  0.00  0.00    +0.000 C 
BRANCH  18  19
ATOM     19  C   UNL     1       7.053   2.756  11.592  0.00  0.00    +0.000 C 
BRANCH  19  21
ATOM     20  C   UNL     1       6.060   0.682  11.077  0.00  0.00    +0.000 C 
ATOM     21  O   UNL     1       5.845   1.998  11.573  0.00  0.00    +0.000 OA
ENDBRANCH  19  21
ENDBRANCH  18  19
ENDBRANCH  17  18
ENDBRANCH   1  17
TORSDOF 5
ENDMDL
MODEL 8
REMARK VINA RESULT:      -6.2      3.304      5.946
REMARK  Name = 
REMARK  6 active torsions:
REMARK  status: ('A' for Active; 'I' for Inactive)
REMARK    1  A    between atoms: C_1  and  O_2
REMARK    2  A    between atoms: O_2  and  C_3
REMARK    3  A    between atoms: C_3  and  C_4
REMARK    4  A    between atoms: C_4  and  C_5
REMARK    5  A    between atoms: C_5  and  N_6
REMARK    6  A    between atoms: C_11  and  C_12
REMARK                            x       y       z     vdW  Elec       q    Type
REMARK                         _______ _______ _______ _____ _____    ______ ____
ROOT
ATOM      1  N   UNL     1       7.362   4.933  15.339  0.00  0.00    +0.000 N 
ATOM      2  C   UNL     1       6.907   4.992  16.651  0.00  0.00    +0.000 A 
ATOM      3  N   UNL     1       7.683   5.659  17.512  0.00  0.00    +0.000 NA
ATOM      4  C   UNL     1       7.255   5.731  18.786  0.00  0.00    +0.000 A 
ATOM      5  C   UNL     1       6.085   5.177  19.223  0.00  0.00    +0.000 A 
ATOM      6  C   UNL     1       5.360   4.495  18.276  0.00  0.00    +0.000 A 
ATOM      7  N   UNL     1       5.749   4.419  16.985  0.00  0.00    +0.000 NA
ATOM      8  H   UNL     1       7.998   5.720  15.240  0.00  0.00    +0.000 HD
ENDROOT
BRANCH   6   9
ATOM      9  C   UNL     1       4.158   3.759  18.616  0.00  0.00    +0.000 A 
ATOM     10  C   UNL     1       2.928   3.897  18.111  0.00  0.00    +0.000 A 
ATOM     11  N   UNL     1       2.012   2.996  18.603  0.00  0.00    +0.000 N 
ATOM     12  N   UNL     1       2.655   2.358  19.656  0.00  0.00    +0.000 N 
ATOM     13  C   UNL     1       4.015   2.651  19.603  0.00  0.00    +0.000 A 
ATOM     14  O   UNL     1       4.900   2.116  20.238  0.00  0.00    +0.000 OA
ATOM     15  H   UNL     1       1.098   3.400  18.806  0.00  0.00    +0.000 HD
ATOM     16  H   UNL     1       2.289   1.518  20.086  0.00  0.00    +0.000 HD
ENDBRANCH   6   9
BRANCH   1  17
ATOM     17  C   UNL     1       6.300   4.865  14.353  0.00  0.00    +0.000 C 
BRANCH  17  18
ATOM     18  C   UNL     1       6.228   3.460  13.766  0.00  0.00    +0.000 C 
BRANCH  18  19
ATOM     19  C   UNL     1       6.277   3.501  12.244  0.00  0.00    +0.000 C 
BRANCH  19  21
ATOM     20  C   UNL     1       6.213   1.374  11.233  0.00  0.00    +0.000 C 
ATOM     21  O   UNL     1       5.445   2.464  11.728  0.00  0.00    +0.000 OA
ENDBRANCH  19  21
ENDBRANCH  18  19
ENDBRANCH  17  18
ENDBRANCH   1  17
TORSDOF 5
ENDMDL
MODEL 9
REMARK VINA RESULT:      -6.2      1.867      2.348
REMARK  Name = 
REMARK  6 active torsions:
REMARK  status: ('A' for Active; 'I' for Inactive)
REMARK    1  A    between atoms: C_1  and  O_2
REMARK    2  A    between atoms: O_2  and  C_3
REMARK    3  A    between atoms: C_3  and  C_4
REMARK    4  A    between atoms: C_4  and  C_5
REMARK    5  A    between atoms: C_5  and  N_6
REMARK    6  A    between atoms: C_11  and  C_12
REMARK                            x       y       z     vdW  Elec       q    Type
REMARK                         _______ _______ _______ _____ _____    ______ ____
ROOT
ATOM      1  N   UNL     1       1.611   4.056  18.042  0.00  0.00    +0.000 N 
ATOM      2  C   UNL     1       2.569   5.028  17.778  0.00  0.00    +0.000 A 
ATOM      3  N   UNL     1       2.352   6.229  18.321  0.00  0.00    +0.000 NA
ATOM      4  C   UNL     1       3.273   7.182  18.079  0.00  0.00    +0.000 A 
ATOM      5  C   UNL     1       4.396   6.973  17.331  0.00  0.00    +0.000 A 
ATOM      6  C   UNL     1       4.530   5.715  16.796  0.00  0.00    +0.000 A 
ATOM      7  N   UNL     1       3.637   4.730  17.034  0.00  0.00    +0.000 NA
ATOM      8  H   UNL     1       1.145   4.363  18.892  0.00  0.00    +0.000 HD
ENDROOT
BRANCH   6   9
ATOM      9  C   UNL     1       5.610   5.380  15.888  0.00  0.00    +0.000 A 
ATOM     10  C   UNL     1       5.560   4.642  14.775  0.00  0.00    +0.000 A 
ATOM     11  N   UNL     1       6.756   4.564  14.096  0.00  0.00    +0.000 N 
ATOM     12  N   UNL     1       7.696   5.130  14.947  0.00  0.00    +0.000 N 
ATOM     13  C   UNL     1       7.037   5.800  15.974  0.00  0.00    +0.000 A 
ATOM     14  O   UNL     1       7.529   6.565  16.776  0.00  0.00    +0.000 OA
ATOM     15  H   UNL     1       6.969   3.635  13.735  0.00  0.00    +0.000 HD
ATOM     16  H   UNL     1       8.628   5.376  14.638  0.00  0.00    +0.000 HD
ENDBRANCH   6   9
BRANCH   1  17
ATOM     17  C   UNL     1       2.141   2.706  18.079  0.00  0.00    +0.000 C 
BRANCH  17  18
ATOM     18  C   UNL     1       1.691   2.008  19.359  0.00  0.00    +0.000 C 
BRANCH  18  19
ATOM     19  C   UNL     1       0.730   2.887  20.150  0.00  0.00    +0.000 C 
BRANCH  19  21
ATOM     20  C   UNL     1       2.508   2.761  21.692  0.00  0.00    +0.000 C 
ATOM     21  O   UNL     1       1.462   3.569  21.167  0.00  0.00    +0.000 OA
ENDBRANCH  19  21
ENDBRANCH  18  19
ENDBRANCH  17  18
ENDBRANCH   1  17
TORSDOF 5
ENDMDL
