MODEL 1
REMARK VINA RESULT:      -8.5      0.000      0.000
REMARK  Name = 
REMARK  4 active torsions:
REMARK  status: ('A' for Active; 'I' for Inactive)
REMARK    1  A    between atoms: C_2  and  C_3
REMARK    2  A    between atoms: C_3  and  N_4
REMARK    3  A    between atoms: C_5  and  C_7
REMARK    4  A    between atoms: N_17  and  C_18
REMARK                            x       y       z     vdW  Elec       q    Type
REMARK                         _______ _______ _______ _____ _____    ______ ____
ROOT
ATOM      1  N   UNL     1       7.247   6.521  17.484  0.00  0.00    +0.000 N 
ATOM      2  C   UNL     1       7.207   5.157  17.304  0.00  0.00    +0.000 C 
ATOM      3  O   UNL     1       7.790   4.388  18.067  0.00  0.00    +0.000 OA
ATOM      4  H   UNL     1       6.882   7.128  16.752  0.00  0.00    +0.000 HD
ENDROOT
BRANCH   2   5
ATOM      5  C   UNL     1       6.291   4.672  16.169  0.00  0.00    +0.000 C 
ATOM      6  C   UNL     1       5.393   5.796  15.659  0.00  0.00    +0.000 C 
ATOM      7  O   UNL     1       4.395   6.168  16.618  0.00  0.00    +0.000 OA
ATOM      8  C   UNL     1       3.832   5.079  17.226  0.00  0.00    +0.000 A 
ATOM      9  C   UNL     1       2.673   5.306  17.966  0.00  0.00    +0.000 A 
ATOM     10  C   UNL     1       2.036   4.242  18.606  0.00  0.00    +0.000 A 
ATOM     11  C   UNL     1       2.558   2.951  18.503  0.00  0.00    +0.000 A 
ATOM     12  C   UNL     1       3.725   2.727  17.773  0.00  0.00    +0.000 A 
ATOM     13  C   UNL     1       4.370   3.794  17.150  0.00  0.00    +0.000 A 
ATOM     14  O   UNL     1       5.536   3.501  16.494  0.00  0.00    +0.000 OA
ENDBRANCH   2   5
BRANCH   1  15
ATOM     15  C   UNL     1       8.108   7.103  18.494  0.00  0.00    +0.000 C 
BRANCH  15  17
ATOM     16  O   UNL     1       7.559   9.238  17.520  0.00  0.00    +0.000 OA
ATOM     17  C   UNL     1       8.233   8.622  18.341  0.00  0.00    +0.000 C 
ATOM     18  N   UNL     1       9.196   9.169  19.186  0.00  0.00    +0.000 N 
ATOM     19  H   UNL     1       9.812   8.520  19.659  0.00  0.00    +0.000 HD
BRANCH  18  20
ATOM     20  C   UNL     1       9.507  10.543  19.315  0.00  0.00    +0.000 A 
ATOM     21  C   UNL     1       9.455  11.226  20.537  0.00  0.00    +0.000 A 
ATOM     22  C   UNL     1       9.722  12.599  20.602  0.00  0.00    +0.000 A 
ATOM     23  C   UNL     1      10.050  13.290  19.444  0.00  0.00    +0.000 A 
ATOM     24  F   UNL     1      10.274  14.609  19.503  0.00  0.00    +0.000 F 
ATOM     25  C   UNL     1      10.145  12.614  18.235  0.00  0.00    +0.000 A 
ATOM     26  F   UNL     1      10.468  13.279  17.116  0.00  0.00    +0.000 F 
ATOM     27  C   UNL     1       9.888  11.244  18.164  0.00  0.00    +0.000 A 
ENDBRANCH  18  20
ENDBRANCH  15  17
ENDBRANCH   1  15
TORSDOF 4
ENDMDL
MODEL 2
REMARK VINA RESULT:      -8.5      0.653      1.403
REMARK  Name = 
REMARK  4 active torsions:
REMARK  status: ('A' for Active; 'I' for Inactive)
REMARK    1  A    between atoms: C_2  and  C_3
REMARK    2  A    between atoms: C_3  and  N_4
REMARK    3  A    between atoms: C_5  and  C_7
REMARK    4  A    between atoms: N_17  and  C_18
REMARK                            x       y       z     vdW  Elec       q    Type
REMARK                         _______ _______ _______ _____ _____    ______ ____
ROOT
ATOM      1  N   UNL     1       7.235   6.571  17.496  0.00  0.00    +0.000 N 
ATOM      2  C   UNL     1       7.185   5.211  17.287  0.00  0.00    +0.000 C 
ATOM      3  O   UNL     1       7.775   4.423  18.024  0.00  0.00    +0.000 OA
ATOM      4  H   UNL     1       6.862   7.194  16.782  0.00  0.00    +0.000 HD
ENDROOT
BRANCH   2   5
ATOM      5  C   UNL     1       6.248   4.754  16.157  0.00  0.00    +0.000 C 
ATOM      6  C   UNL     1       5.349   5.894  15.684  0.00  0.00    +0.000 C 
ATOM      7  O   UNL     1       4.368   6.251  16.666  0.00  0.00    +0.000 OA
ATOM      8  C   UNL     1       3.808   5.152  17.260  0.00  0.00    +0.000 A 
ATOM      9  C   UNL     1       2.662   5.370  18.021  0.00  0.00    +0.000 A 
ATOM     10  C   UNL     1       2.028   4.296  18.649  0.00  0.00    +0.000 A 
ATOM     11  C   UNL     1       2.541   3.006  18.511  0.00  0.00    +0.000 A 
ATOM     12  C   UNL     1       3.696   2.790  17.758  0.00  0.00    +0.000 A 
ATOM     13  C   UNL     1       4.338   3.866  17.148  0.00  0.00    +0.000 A 
ATOM     14  O   UNL     1       5.492   3.581  16.468  0.00  0.00    +0.000 OA
ENDBRANCH   2   5
BRANCH   1  15
ATOM     15  C   UNL     1       8.114   7.126  18.504  0.00  0.00    +0.000 C 
BRANCH  15  17
ATOM     16  O   UNL     1       7.617   9.277  17.537  0.00  0.00    +0.000 OA
ATOM     17  C   UNL     1       8.267   8.644  18.365  0.00  0.00    +0.000 C 
ATOM     18  N   UNL     1       9.225   9.169  19.229  0.00  0.00    +0.000 N 
ATOM     19  H   UNL     1       9.822   8.507  19.707  0.00  0.00    +0.000 HD
BRANCH  18  20
ATOM     20  C   UNL     1       9.557  10.536  19.373  0.00  0.00    +0.000 A 
ATOM     21  C   UNL     1       9.990  11.333  18.305  0.00  0.00    +0.000 A 
ATOM     22  C   UNL     1      10.357  12.668  18.511  0.00  0.00    +0.000 A 
ATOM     23  C   UNL     1      10.283  13.212  19.785  0.00  0.00    +0.000 A 
ATOM     24  F   UNL     1      10.664  14.480  19.985  0.00  0.00    +0.000 F 
ATOM     25  C   UNL     1       9.815  12.444  20.842  0.00  0.00    +0.000 A 
ATOM     26  F   UNL     1       9.737  12.969  22.073  0.00  0.00    +0.000 F 
ATOM     27  C   UNL     1       9.441  11.114  20.644  0.00  0.00    +0.000 A 
ENDBRANCH  18  20
ENDBRANCH  15  17
ENDBRANCH   1  15
TORSDOF 4
ENDMDL
MODEL 3
REMARK VINA RESULT:      -8.2      1.223      1.404
REMARK  Name = 
REMARK  4 active torsions:
REMARK  status: ('A' for Active; 'I' for Inactive)
REMARK    1  A    between atoms: C_2  and  C_3
REMARK    2  A    between atoms: C_3  and  N_4
REMARK    3  A    between atoms: C_5  and  C_7
REMARK    4  A    between atoms: N_17  and  C_18
REMARK                            x       y       z     vdW  Elec       q    Type
REMARK                         _______ _______ _______ _____ _____    ______ ____
ROOT
ATOM      1  N   UNL     1       7.044   6.477  17.911  0.00  0.00    +0.000 N 
ATOM      2  C   UNL     1       6.517   5.295  18.380  0.00  0.00    +0.000 C 
ATOM      3  O   UNL     1       6.902   4.789  19.433  0.00  0.00    +0.000 OA
ATOM      4  H   UNL     1       6.810   6.784  16.968  0.00  0.00    +0.000 HD
ENDROOT
BRANCH   2   5
ATOM      5  C   UNL     1       5.342   4.731  17.564  0.00  0.00    +0.000 C 
ATOM      6  C   UNL     1       4.474   5.849  16.991  0.00  0.00    +0.000 C 
ATOM      7  O   UNL     1       3.737   6.536  18.011  0.00  0.00    +0.000 OA
ATOM      8  C   UNL     1       3.207   5.675  18.934  0.00  0.00    +0.000 A 
ATOM      9  C   UNL     1       2.254   6.201  19.804  0.00  0.00    +0.000 A 
ATOM     10  C   UNL     1       1.661   5.381  20.766  0.00  0.00    +0.000 A 
ATOM     11  C   UNL     1       2.021   4.035  20.854  0.00  0.00    +0.000 A 
ATOM     12  C   UNL     1       2.984   3.513  19.991  0.00  0.00    +0.000 A 
ATOM     13  C   UNL     1       3.589   4.337  19.044  0.00  0.00    +0.000 A 
ATOM     14  O   UNL     1       4.560   3.763  18.267  0.00  0.00    +0.000 OA
ENDBRANCH   2   5
BRANCH   1  15
ATOM     15  C   UNL     1       8.182   7.085  18.570  0.00  0.00    +0.000 C 
BRANCH  15  17
ATOM     16  O   UNL     1       7.514   9.148  17.518  0.00  0.00    +0.000 OA
ATOM     17  C   UNL     1       8.242   8.599  18.341  0.00  0.00    +0.000 C 
ATOM     18  N   UNL     1       9.212   9.222  19.121  0.00  0.00    +0.000 N 
ATOM     19  H   UNL     1       9.870   8.621  19.600  0.00  0.00    +0.000 HD
BRANCH  18  20
ATOM     20  C   UNL     1       9.473  10.611  19.173  0.00  0.00    +0.000 A 
ATOM     21  C   UNL     1       9.320  11.374  20.338  0.00  0.00    +0.000 A 
ATOM     22  C   UNL     1       9.541  12.756  20.323  0.00  0.00    +0.000 A 
ATOM     23  C   UNL     1       9.925  13.378  19.143  0.00  0.00    +0.000 A 
ATOM     24  F   UNL     1      10.105  14.705  19.124  0.00  0.00    +0.000 F 
ATOM     25  C   UNL     1      10.120  12.625  17.994  0.00  0.00    +0.000 A 
ATOM     26  F   UNL     1      10.497  13.222  16.854  0.00  0.00    +0.000 F 
ATOM     27  C   UNL     1       9.909  11.245  18.002  0.00  0.00    +0.000 A 
ENDBRANCH  18  20
ENDBRANCH  15  17
ENDBRANCH   1  15
TORSDOF 4
ENDMDL
MODEL 4
REMARK VINA RESULT:      -8.1      5.880      7.022
REMARK  Name = 
REMARK  4 active torsions:
REMARK  status: ('A' for Active; 'I' for Inactive)
REMARK    1  A    between atoms: C_2  and  C_3
REMARK    2  A    between atoms: C_3  and  N_4
REMARK    3  A    between atoms: C_5  and  C_7
REMARK    4  A    between atoms: N_17  and  C_18
REMARK                            x       y       z     vdW  Elec       q    Type
REMARK                         _______ _______ _______ _____ _____    ______ ____
ROOT
ATOM      1  N   UNL     1       3.741   6.068  17.495  0.00  0.00    +0.000 N 
ATOM      2  C   UNL     1       4.780   5.377  18.077  0.00  0.00    +0.000 C 
ATOM      3  O   UNL     1       5.650   5.950  18.731  0.00  0.00    +0.000 OA
ATOM      4  H   UNL     1       3.130   5.583  16.840  0.00  0.00    +0.000 HD
ENDROOT
BRANCH   2   5
ATOM      5  C   UNL     1       4.700   3.847  17.954  0.00  0.00    +0.000 C 
ATOM      6  C   UNL     1       3.545   3.419  17.051  0.00  0.00    +0.000 C 
ATOM      7  O   UNL     1       2.268   3.669  17.653  0.00  0.00    +0.000 OA
ATOM      8  C   UNL     1       2.248   3.332  18.980  0.00  0.00    +0.000 A 
ATOM      9  C   UNL     1       0.997   3.274  19.591  0.00  0.00    +0.000 A 
ATOM     10  C   UNL     1       0.896   2.927  20.939  0.00  0.00    +0.000 A 
ATOM     11  C   UNL     1       2.046   2.635  21.673  0.00  0.00    +0.000 A 
ATOM     12  C   UNL     1       3.299   2.705  21.064  0.00  0.00    +0.000 A 
ATOM     13  C   UNL     1       3.400   3.070  19.723  0.00  0.00    +0.000 A 
ATOM     14  O   UNL     1       4.667   3.165  19.211  0.00  0.00    +0.000 OA
ENDBRANCH   2   5
BRANCH   1  15
ATOM     15  C   UNL     1       3.726   7.517  17.506  0.00  0.00    +0.000 C 
BRANCH  15  17
ATOM     16  O   UNL     1       2.190   7.530  19.364  0.00  0.00    +0.000 OA
ATOM     17  C   UNL     1       2.560   8.076  18.327  0.00  0.00    +0.000 C 
ATOM     18  N   UNL     1       1.982   9.200  17.742  0.00  0.00    +0.000 N 
ATOM     19  H   UNL     1       2.257   9.414  16.792  0.00  0.00    +0.000 HD
BRANCH  18  20
ATOM     20  C   UNL     1       0.925   9.969  18.282  0.00  0.00    +0.000 A 
ATOM     21  C   UNL     1       1.129  11.020  19.186  0.00  0.00    +0.000 A 
ATOM     22  C   UNL     1       0.044  11.716  19.732  0.00  0.00    +0.000 A 
ATOM     23  C   UNL     1      -1.249  11.368  19.368  0.00  0.00    +0.000 A 
ATOM     24  F   UNL     1      -2.286  12.014  19.915  0.00  0.00    +0.000 F 
ATOM     25  C   UNL     1      -1.460  10.356  18.441  0.00  0.00    +0.000 A 
ATOM     26  F   UNL     1      -2.709  10.022  18.082  0.00  0.00    +0.000 F 
ATOM     27  C   UNL     1      -0.383   9.662  17.887  0.00  0.00    +0.000 A 
ENDBRANCH  18  20
ENDBRANCH  15  17
ENDBRANCH   1  15
TORSDOF 4
ENDMDL
MODEL 5
REMARK VINA RESULT:      -8.1      1.517      2.166
REMARK  Name = 
REMARK  4 active torsions:
REMARK  status: ('A' for Active; 'I' for Inactive)
REMARK    1  A    between atoms: C_2  and  C_3
REMARK    2  A    between atoms: C_3  and  N_4
REMARK    3  A    between atoms: C_5  and  C_7
REMARK    4  A    between atoms: N_17  and  C_18
REMARK                            x       y       z     vdW  Elec       q    Type
REMARK                         _______ _______ _______ _____ _____    ______ ____
ROOT
ATOM      1  N   UNL     1       6.781   6.364  17.740  0.00  0.00    +0.000 N 
ATOM      2  C   UNL     1       5.931   5.527  18.427  0.00  0.00    +0.000 C 
ATOM      3  O   UNL     1       6.094   5.280  19.621  0.00  0.00    +0.000 OA
ATOM      4  H   UNL     1       6.703   6.424  16.726  0.00  0.00    +0.000 HD
ENDROOT
BRANCH   2   5
ATOM      5  C   UNL     1       4.712   5.033  17.631  0.00  0.00    +0.000 C 
ATOM      6  C   UNL     1       3.588   6.066  17.635  0.00  0.00    +0.000 C 
ATOM      7  O   UNL     1       2.981   6.199  18.927  0.00  0.00    +0.000 OA
ATOM      8  C   UNL     1       2.786   4.988  19.533  0.00  0.00    +0.000 A 
ATOM      9  C   UNL     1       1.963   4.977  20.658  0.00  0.00    +0.000 A 
ATOM     10  C   UNL     1       1.708   3.777  21.324  0.00  0.00    +0.000 A 
ATOM     11  C   UNL     1       2.275   2.589  20.861  0.00  0.00    +0.000 A 
ATOM     12  C   UNL     1       3.108   2.601  19.742  0.00  0.00    +0.000 A 
ATOM     13  C   UNL     1       3.376   3.804  19.090  0.00  0.00    +0.000 A 
ATOM     14  O   UNL     1       4.243   3.742  18.031  0.00  0.00    +0.000 OA
ENDBRANCH   2   5
BRANCH   1  15
ATOM     15  C   UNL     1       7.988   6.861  18.368  0.00  0.00    +0.000 C 
BRANCH  15  17
ATOM     16  O   UNL     1       7.608   8.960  17.247  0.00  0.00    +0.000 OA
ATOM     17  C   UNL     1       8.163   8.369  18.170  0.00  0.00    +0.000 C 
ATOM     18  N   UNL     1       9.027   8.937  19.103  0.00  0.00    +0.000 N 
ATOM     19  H   UNL     1       9.567   8.300  19.674  0.00  0.00    +0.000 HD
BRANCH  18  20
ATOM     20  C   UNL     1       9.350  10.310  19.212  0.00  0.00    +0.000 A 
ATOM     21  C   UNL     1       9.625  11.120  18.103  0.00  0.00    +0.000 A 
ATOM     22  C   UNL     1       9.991  12.461  18.268  0.00  0.00    +0.000 A 
ATOM     23  C   UNL     1      10.075  12.997  19.545  0.00  0.00    +0.000 A 
ATOM     24  F   UNL     1      10.457  14.271  19.703  0.00  0.00    +0.000 F 
ATOM     25  C   UNL     1       9.765  12.214  20.649  0.00  0.00    +0.000 A 
ATOM     26  F   UNL     1       9.839  12.732  21.884  0.00  0.00    +0.000 F 
ATOM     27  C   UNL     1       9.391  10.879  20.492  0.00  0.00    +0.000 A 
ENDBRANCH  18  20
ENDBRANCH  15  17
ENDBRANCH   1  15
TORSDOF 4
ENDMDL
MODEL 6
REMARK VINA RESULT:      -8.1      6.190      7.887
REMARK  Name = 
REMARK  4 active torsions:
REMARK  status: ('A' for Active; 'I' for Inactive)
REMARK    1  A    between atoms: C_2  and  C_3
REMARK    2  A    between atoms: C_3  and  N_4
REMARK    3  A    between atoms: C_5  and  C_7
REMARK    4  A    between atoms: N_17  and  C_18
REMARK                            x       y       z     vdW  Elec       q    Type
REMARK                         _______ _______ _______ _____ _____    ______ ____
ROOT
ATOM      1  N   UNL     1       3.268   7.316  18.343  0.00  0.00    +0.000 N 
ATOM      2  C   UNL     1       4.222   6.553  17.708  0.00  0.00    +0.000 C 
ATOM      3  O   UNL     1       4.641   6.843  16.589  0.00  0.00    +0.000 OA
ATOM      4  H   UNL     1       2.839   6.962  19.197  0.00  0.00    +0.000 HD
ENDROOT
BRANCH   2   5
ATOM      5  C   UNL     1       4.805   5.403  18.545  0.00  0.00    +0.000 C 
ATOM      6  C   UNL     1       4.940   4.125  17.719  0.00  0.00    +0.000 C 
ATOM      7  O   UNL     1       3.665   3.554  17.398  0.00  0.00    +0.000 OA
ATOM      8  C   UNL     1       2.804   3.582  18.461  0.00  0.00    +0.000 A 
ATOM      9  C   UNL     1       1.646   2.815  18.348  0.00  0.00    +0.000 A 
ATOM     10  C   UNL     1       0.724   2.786  19.396  0.00  0.00    +0.000 A 
ATOM     11  C   UNL     1       0.965   3.522  20.558  0.00  0.00    +0.000 A 
ATOM     12  C   UNL     1       2.118   4.299  20.665  0.00  0.00    +0.000 A 
ATOM     13  C   UNL     1       3.027   4.342  19.610  0.00  0.00    +0.000 A 
ATOM     14  O   UNL     1       4.109   5.167  19.771  0.00  0.00    +0.000 OA
ENDBRANCH   2   5
BRANCH   1  15
ATOM     15  C   UNL     1       2.613   8.402  17.643  0.00  0.00    +0.000 C 
BRANCH  15  17
ATOM     16  O   UNL     1       1.369   8.793  19.670  0.00  0.00    +0.000 OA
ATOM     17  C   UNL     1       1.480   9.021  18.468  0.00  0.00    +0.000 C 
ATOM     18  N   UNL     1       0.618   9.799  17.699  0.00  0.00    +0.000 N 
ATOM     19  H   UNL     1       0.715   9.732  16.694  0.00  0.00    +0.000 HD
BRANCH  18  20
ATOM     20  C   UNL     1      -0.487  10.539  18.178  0.00  0.00    +0.000 A 
ATOM     21  C   UNL     1      -0.363  11.588  19.099  0.00  0.00    +0.000 A 
ATOM     22  C   UNL     1      -1.495  12.255  19.583  0.00  0.00    +0.000 A 
ATOM     23  C   UNL     1      -2.755  11.879  19.139  0.00  0.00    +0.000 A 
ATOM     24  F   UNL     1      -3.838  12.497  19.627  0.00  0.00    +0.000 F 
ATOM     25  C   UNL     1      -2.886  10.869  18.196  0.00  0.00    +0.000 A 
ATOM     26  F   UNL     1      -4.103  10.508  17.761  0.00  0.00    +0.000 F 
ATOM     27  C   UNL     1      -1.762  10.204  17.703  0.00  0.00    +0.000 A 
ENDBRANCH  18  20
ENDBRANCH  15  17
ENDBRANCH   1  15
TORSDOF 4
ENDMDL
MODEL 7
REMARK VINA RESULT:      -8.0      5.679      7.018
REMARK  Name = 
REMARK  4 active torsions:
REMARK  status: ('A' for Active; 'I' for Inactive)
REMARK    1  A    between atoms: C_2  and  C_3
REMARK    2  A    between atoms: C_3  and  N_4
REMARK    3  A    between atoms: C_5  and  C_7
REMARK    4  A    between atoms: N_17  and  C_18
REMARK                            x       y       z     vdW  Elec       q    Type
REMARK                         _______ _______ _______ _____ _____    ______ ____
ROOT
ATOM      1  N   UNL     1       5.126   4.798  18.784  0.00  0.00    +0.000 N 
ATOM      2  C   UNL     1       4.542   3.663  19.302  0.00  0.00    +0.000 C 
ATOM      3  O   UNL     1       5.198   2.821  19.913  0.00  0.00    +0.000 OA
ATOM      4  H   UNL     1       4.584   5.391  18.159  0.00  0.00    +0.000 HD
ENDROOT
BRANCH   2   5
ATOM      5  C   UNL     1       3.012   3.593  19.167  0.00  0.00    +0.000 C 
ATOM      6  C   UNL     1       2.561   3.928  17.748  0.00  0.00    +0.000 C 
ATOM      7  O   UNL     1       2.757   5.312  17.431  0.00  0.00    +0.000 OA
ATOM      8  C   UNL     1       2.397   6.134  18.465  0.00  0.00    +0.000 A 
ATOM      9  C   UNL     1       2.286   7.492  18.174  0.00  0.00    +0.000 A 
ATOM     10  C   UNL     1       1.913   8.391  19.174  0.00  0.00    +0.000 A 
ATOM     11  C   UNL     1       1.648   7.929  20.464  0.00  0.00    +0.000 A 
ATOM     12  C   UNL     1       1.771   6.571  20.758  0.00  0.00    +0.000 A 
ATOM     13  C   UNL     1       2.162   5.677  19.762  0.00  0.00    +0.000 A 
ATOM     14  O   UNL     1       2.308   4.369  20.141  0.00  0.00    +0.000 OA
ENDBRANCH   2   5
BRANCH   1  15
ATOM     15  C   UNL     1       6.565   4.960  18.812  0.00  0.00    +0.000 C 
BRANCH  15  17
ATOM     16  O   UNL     1       8.326   4.123  17.395  0.00  0.00    +0.000 OA
ATOM     17  C   UNL     1       7.210   4.632  17.462  0.00  0.00    +0.000 C 
ATOM     18  N   UNL     1       6.417   5.012  16.382  0.00  0.00    +0.000 N 
ATOM     19  H   UNL     1       5.620   5.601  16.584  0.00  0.00    +0.000 HD
BRANCH  18  20
ATOM     20  C   UNL     1       6.713   4.798  15.015  0.00  0.00    +0.000 A 
ATOM     21  C   UNL     1       7.699   5.516  14.326  0.00  0.00    +0.000 A 
ATOM     22  C   UNL     1       7.917   5.303  12.960  0.00  0.00    +0.000 A 
ATOM     23  C   UNL     1       7.154   4.364  12.281  0.00  0.00    +0.000 A 
ATOM     24  F   UNL     1       7.343   4.184  10.968  0.00  0.00    +0.000 F 
ATOM     25  C   UNL     1       6.203   3.617  12.964  0.00  0.00    +0.000 A 
ATOM     26  F   UNL     1       5.468   2.705  12.311  0.00  0.00    +0.000 F 
ATOM     27  C   UNL     1       5.985   3.819  14.327  0.00  0.00    +0.000 A 
ENDBRANCH  18  20
ENDBRANCH  15  17
ENDBRANCH   1  15
TORSDOF 4
ENDMDL
MODEL 8
REMARK VINA RESULT:      -8.0      1.789      2.667
REMARK  Name = 
REMARK  4 active torsions:
REMARK  status: ('A' for Active; 'I' for Inactive)
REMARK    1  A    between atoms: C_2  and  C_3
REMARK    2  A    between atoms: C_3  and  N_4
REMARK    3  A    between atoms: C_5  and  C_7
REMARK    4  A    between atoms: N_17  and  C_18
REMARK                            x       y       z     vdW  Elec       q    Type
REMARK                         _______ _______ _______ _____ _____    ______ ____
ROOT
ATOM      1  N   UNL     1       6.719   6.125  18.033  0.00  0.00    +0.000 N 
ATOM      2  C   UNL     1       6.077   5.271  18.901  0.00  0.00    +0.000 C 
ATOM      3  O   UNL     1       6.510   5.055  20.032  0.00  0.00    +0.000 OA
ATOM      4  H   UNL     1       6.418   6.161  17.061  0.00  0.00    +0.000 HD
ENDROOT
BRANCH   2   5
ATOM      5  C   UNL     1       4.734   4.715  18.401  0.00  0.00    +0.000 C 
ATOM      6  C   UNL     1       4.433   5.181  16.979  0.00  0.00    +0.000 C 
ATOM      7  O   UNL     1       4.139   6.583  16.920  0.00  0.00    +0.000 OA
ATOM      8  C   UNL     1       3.327   6.983  17.948  0.00  0.00    +0.000 A 
ATOM      9  C   UNL     1       2.759   8.251  17.838  0.00  0.00    +0.000 A 
ATOM     10  C   UNL     1       1.912   8.725  18.841  0.00  0.00    +0.000 A 
ATOM     11  C   UNL     1       1.631   7.927  19.952  0.00  0.00    +0.000 A 
ATOM     12  C   UNL     1       2.210   6.663  20.067  0.00  0.00    +0.000 A 
ATOM     13  C   UNL     1       3.071   6.199  19.073  0.00  0.00    +0.000 A 
ATOM     14  O   UNL     1       3.637   4.970  19.283  0.00  0.00    +0.000 OA
ENDBRANCH   2   5
BRANCH   1  15
ATOM     15  C   UNL     1       8.014   6.680  18.373  0.00  0.00    +0.000 C 
BRANCH  15  17
ATOM     16  O   UNL     1       7.362   8.756  17.335  0.00  0.00    +0.000 OA
ATOM     17  C   UNL     1       8.061   8.199  18.178  0.00  0.00    +0.000 C 
ATOM     18  N   UNL     1       8.987   8.819  19.014  0.00  0.00    +0.000 N 
ATOM     19  H   UNL     1       9.632   8.217  19.509  0.00  0.00    +0.000 HD
BRANCH  18  20
ATOM     20  C   UNL     1       9.225  10.210  19.106  0.00  0.00    +0.000 A 
ATOM     21  C   UNL     1       9.366  11.036  17.984  0.00  0.00    +0.000 A 
ATOM     22  C   UNL     1       9.654  12.398  18.129  0.00  0.00    +0.000 A 
ATOM     23  C   UNL     1       9.792  12.939  19.399  0.00  0.00    +0.000 A 
ATOM     24  F   UNL     1      10.098  14.236  19.535  0.00  0.00    +0.000 F 
ATOM     25  C   UNL     1       9.612  12.138  20.518  0.00  0.00    +0.000 A 
ATOM     26  F   UNL     1       9.739  12.660  21.747  0.00  0.00    +0.000 F 
ATOM     27  C   UNL     1       9.318  10.781  20.382  0.00  0.00    +0.000 A 
ENDBRANCH  18  20
ENDBRANCH  15  17
ENDBRANCH   1  15
TORSDOF 4
ENDMDL
MODEL 9
REMARK VINA RESULT:      -8.0      5.912      7.153
REMARK  Name = 
REMARK  4 active torsions:
REMARK  status: ('A' for Active; 'I' for Inactive)
REMARK    1  A    between atoms: C_2  and  C_3
REMARK    2  A    between atoms: C_3  and  N_4
REMARK    3  A    between atoms: C_5  and  C_7
REMARK    4  A    between atoms: N_17  and  C_18
REMARK                            x       y       z     vdW  Elec       q    Type
REMARK                         _______ _______ _______ _____ _____    ______ ____
ROOT
ATOM      1  N   UNL     1       3.228   7.184  18.183  0.00  0.00    +0.000 N 
ATOM      2  C   UNL     1       4.240   6.480  17.569  0.00  0.00    +0.000 C 
ATOM      3  O   UNL     1       4.678   6.808  16.468  0.00  0.00    +0.000 OA
ATOM      4  H   UNL     1       2.792   6.797  19.017  0.00  0.00    +0.000 HD
ENDROOT
BRANCH   2   5
ATOM      5  C   UNL     1       4.853   5.348  18.408  0.00  0.00    +0.000 C 
ATOM      6  C   UNL     1       4.921   4.043  17.618  0.00  0.00    +0.000 C 
ATOM      7  O   UNL     1       3.622   3.482  17.389  0.00  0.00    +0.000 OA
ATOM      8  C   UNL     1       2.824   3.558  18.498  0.00  0.00    +0.000 A 
ATOM      9  C   UNL     1       1.650   2.807  18.477  0.00  0.00    +0.000 A 
ATOM     10  C   UNL     1       0.791   2.825  19.576  0.00  0.00    +0.000 A 
ATOM     11  C   UNL     1       1.108   3.594  20.697  0.00  0.00    +0.000 A 
ATOM     12  C   UNL     1       2.276   4.356  20.713  0.00  0.00    +0.000 A 
ATOM     13  C   UNL     1       3.124   4.351  19.607  0.00  0.00    +0.000 A 
ATOM     14  O   UNL     1       4.225   5.162  19.680  0.00  0.00    +0.000 OA
ENDBRANCH   2   5
BRANCH   1  15
ATOM     15  C   UNL     1       2.541   8.247  17.478  0.00  0.00    +0.000 C 
BRANCH  15  17
ATOM     16  O   UNL     1       1.890  10.458  18.183  0.00  0.00    +0.000 OA
ATOM     17  C   UNL     1       1.899   9.256  18.435  0.00  0.00    +0.000 C 
ATOM     18  N   UNL     1       1.395   8.657  19.587  0.00  0.00    +0.000 N 
ATOM     19  H   UNL     1       1.653   7.693  19.752  0.00  0.00    +0.000 HD
BRANCH  18  20
ATOM     20  C   UNL     1       0.702   9.312  20.631  0.00  0.00    +0.000 A 
ATOM     21  C   UNL     1       0.888   9.000  21.985  0.00  0.00    +0.000 A 
ATOM     22  C   UNL     1       0.139   9.642  22.977  0.00  0.00    +0.000 A 
ATOM     23  C   UNL     1      -0.794  10.605  22.618  0.00  0.00    +0.000 A 
ATOM     24  F   UNL     1      -1.532  11.195  23.567  0.00  0.00    +0.000 F 
ATOM     25  C   UNL     1      -0.957  10.951  21.284  0.00  0.00    +0.000 A 
ATOM     26  F   UNL     1      -1.853  11.886  20.936  0.00  0.00    +0.000 F 
ATOM     27  C   UNL     1      -0.208  10.321  20.289  0.00  0.00    +0.000 A 
ENDBRANCH  18  20
ENDBRANCH  15  17
ENDBRANCH   1  15
TORSDOF 4
ENDMDL
