MODEL 1
REMARK VINA RESULT:      -8.1      0.000      0.000
REMARK  Name = 
REMARK  15 active torsions:
REMARK  status: ('A' for Active; 'I' for Inactive)
REMARK    1  A    between atoms: C_1  and  C_2
REMARK    2  A    between atoms: C_2  and  O_3
REMARK    3  A    between atoms: O_3  and  C_4
REMARK    4  A    between atoms: C_4  and  C_6
REMARK    5  A    between atoms: C_7  and  C_8
REMARK    6  A    between atoms: C_10  and  C_11
REMARK    7  A    between atoms: C_11  and  N_12
REMARK    8  A    between atoms: N_12  and  C_13
REMARK    9  A    between atoms: N_12  and  C_19
REMARK   10  A    between atoms: C_13  and  C_14
REMARK   11  A    between atoms: C_14  and  O_16
REMARK   12  A    between atoms: O_16  and  C_17
REMARK   13  A    between atoms: C_17  and  C_18
REMARK   14  A    between atoms: C_19  and  C_20
REMARK   15  A    between atoms: C_27  and  C_28
REMARK                            x       y       z     vdW  Elec       q    Type
REMARK                         _______ _______ _______ _____ _____    ______ ____
ROOT
ATOM      1  C   UNL     1       5.643   4.799  16.007  0.00  0.00    +0.000 A 
ATOM      2  C   UNL     1       4.794   4.321  17.011  0.00  0.00    +0.000 A 
ATOM      3  C   UNL     1       4.935   4.749  18.339  0.00  0.00    +0.000 A 
ATOM      4  C   UNL     1       5.987   5.615  18.673  0.00  0.00    +0.000 A 
ATOM      5  C   UNL     1       6.793   6.162  17.670  0.00  0.00    +0.000 A 
ATOM      6  C   UNL     1       6.619   5.742  16.344  0.00  0.00    +0.000 A 
ENDROOT
BRANCH   5   7
ATOM      7  C   UNL     1       7.770   7.257  17.919  0.00  0.00    +0.000 C 
ATOM      8  N   UNL     1       8.499   7.225  19.074  0.00  0.00    +0.000 N 
ATOM      9  O   UNL     1       7.889   8.202  17.147  0.00  0.00    +0.000 OA
ATOM     10  H   UNL     1       8.332   6.582  19.830  0.00  0.00    +0.000 HD
ATOM     11  H   UNL     1       9.048   8.053  19.276  0.00  0.00    +0.000 HD
ENDBRANCH   5   7
BRANCH   1  13
ATOM     12  C   UNL     1       6.364   3.842  13.841  0.00  0.00    +0.000 C 
ATOM     13  C   UNL     1       5.409   4.371  14.625  0.00  0.00    +0.000 C 
BRANCH  12  14
ATOM     14  C   UNL     1       6.003   3.347  12.500  0.00  0.00    +0.000 C 
ATOM     15  O   UNL     1       6.777   2.875  11.688  0.00  0.00    +0.000 OA
BRANCH  14  16
ATOM     16  O   UNL     1       4.692   3.627  12.310  0.00  0.00    +0.000 OA
BRANCH  16  18
ATOM     17  C   UNL     1       3.385   3.897  10.335  0.00  0.00    +0.000 C 
ATOM     18  C   UNL     1       4.066   2.894  11.248  0.00  0.00    +0.000 C 
ENDBRANCH  16  18
ENDBRANCH  14  16
ENDBRANCH  12  14
ENDBRANCH   1  13
BRANCH   3  19
ATOM     19  C   UNL     1       3.886   4.384  19.372  0.00  0.00    +0.000 C 
BRANCH  19  20
ATOM     20  N   UNL     1       2.777   5.367  19.425  0.00  0.00    +0.000 NA
BRANCH  20  21
ATOM     21  C   UNL     1       1.777   5.060  20.482  0.00  0.00    +0.000 C 
BRANCH  21  22
ATOM     22  C   UNL     1       1.273   3.621  20.478  0.00  0.00    +0.000 C 
ATOM     23  O   UNL     1       1.326   2.856  21.433  0.00  0.00    +0.000 OA
BRANCH  22  24
ATOM     24  O   UNL     1       0.716   3.319  19.270  0.00  0.00    +0.000 OA
BRANCH  24  25
ATOM     25  C   UNL     1       0.958   1.987  18.794  0.00  0.00    +0.000 C 
ATOM     26  C   UNL     1       2.157   1.976  17.865  0.00  0.00    +0.000 C 
ENDBRANCH  24  25
ENDBRANCH  22  24
ENDBRANCH  21  22
ENDBRANCH  20  21
BRANCH  20  27
ATOM     27  C   UNL     1       3.267   6.755  19.567  0.00  0.00    +0.000 C 
BRANCH  27  28
ATOM     28  C   UNL     1       2.199   7.794  19.296  0.00  0.00    +0.000 A 
ATOM     29  C   UNL     1       1.945   8.240  17.991  0.00  0.00    +0.000 A 
ATOM     30  C   UNL     1       1.087   9.319  17.772  0.00  0.00    +0.000 A 
ATOM     31  C   UNL     1       0.456   9.940  18.849  0.00  0.00    +0.000 A 
ATOM     32  C   UNL     1       0.647   9.457  20.142  0.00  0.00    +0.000 A 
ATOM     33  C   UNL     1       1.511   8.385  20.366  0.00  0.00    +0.000 A 
ENDBRANCH  27  28
ENDBRANCH  20  27
ENDBRANCH  19  20
ENDBRANCH   3  19
TORSDOF 13
ENDMDL
MODEL 2
REMARK VINA RESULT:      -8.0      2.433      5.393
REMARK  Name = 
REMARK  15 active torsions:
REMARK  status: ('A' for Active; 'I' for Inactive)
REMARK    1  A    between atoms: C_1  and  C_2
REMARK    2  A    between atoms: C_2  and  O_3
REMARK    3  A    between atoms: O_3  and  C_4
REMARK    4  A    between atoms: C_4  and  C_6
REMARK    5  A    between atoms: C_7  and  C_8
REMARK    6  A    between atoms: C_10  and  C_11
REMARK    7  A    between atoms: C_11  and  N_12
REMARK    8  A    between atoms: N_12  and  C_13
REMARK    9  A    between atoms: N_12  and  C_19
REMARK   10  A    between atoms: C_13  and  C_14
REMARK   11  A    between atoms: C_14  and  O_16
REMARK   12  A    between atoms: O_16  and  C_17
REMARK   13  A    between atoms: C_17  and  C_18
REMARK   14  A    between atoms: C_19  and  C_20
REMARK   15  A    between atoms: C_27  and  C_28
REMARK                            x       y       z     vdW  Elec       q    Type
REMARK                         _______ _______ _______ _____ _____    ______ ____
ROOT
ATOM      1  C   UNL     1       7.107   6.896  17.537  0.00  0.00    +0.000 A 
ATOM      2  C   UNL     1       6.045   6.365  18.276  0.00  0.00    +0.000 A 
ATOM      3  C   UNL     1       5.219   5.367  17.738  0.00  0.00    +0.000 A 
ATOM      4  C   UNL     1       5.422   4.949  16.414  0.00  0.00    +0.000 A 
ATOM      5  C   UNL     1       6.526   5.412  15.691  0.00  0.00    +0.000 A 
ATOM      6  C   UNL     1       7.355   6.390  16.257  0.00  0.00    +0.000 A 
ENDROOT
BRANCH   5   7
ATOM      7  C   UNL     1       6.934   4.843  14.377  0.00  0.00    +0.000 C 
ATOM      8  N   UNL     1       6.359   3.673  13.970  0.00  0.00    +0.000 N 
ATOM      9  O   UNL     1       7.805   5.368  13.692  0.00  0.00    +0.000 OA
ATOM     10  H   UNL     1       5.772   3.099  14.553  0.00  0.00    +0.000 HD
ATOM     11  H   UNL     1       6.759   3.244  13.144  0.00  0.00    +0.000 HD
ENDBRANCH   5   7
BRANCH   1  13
ATOM     12  C   UNL     1       8.082   9.160  17.754  0.00  0.00    +0.000 C 
ATOM     13  C   UNL     1       7.980   7.887  18.172  0.00  0.00    +0.000 C 
BRANCH  12  14
ATOM     14  C   UNL     1       8.909  10.108  18.524  0.00  0.00    +0.000 C 
ATOM     15  O   UNL     1       9.391   9.897  19.621  0.00  0.00    +0.000 OA
BRANCH  14  16
ATOM     16  O   UNL     1       8.922  11.275  17.838  0.00  0.00    +0.000 OA
BRANCH  16  18
ATOM     17  C   UNL     1      10.035  13.371  18.069  0.00  0.00    +0.000 C 
ATOM     18  C   UNL     1      10.208  11.901  17.736  0.00  0.00    +0.000 C 
ENDBRANCH  16  18
ENDBRANCH  14  16
ENDBRANCH  12  14
ENDBRANCH   1  13
BRANCH   3  19
ATOM     19  C   UNL     1       4.206   4.659  18.618  0.00  0.00    +0.000 C 
BRANCH  19  20
ATOM     20  N   UNL     1       2.883   5.328  18.608  0.00  0.00    +0.000 NA
BRANCH  20  21
ATOM     21  C   UNL     1       1.750   4.375  18.461  0.00  0.00    +0.000 C 
BRANCH  21  22
ATOM     22  C   UNL     1       1.402   3.606  19.730  0.00  0.00    +0.000 C 
ATOM     23  O   UNL     1       0.536   3.932  20.532  0.00  0.00    +0.000 OA
BRANCH  22  24
ATOM     24  O   UNL     1       2.164   2.479  19.824  0.00  0.00    +0.000 OA
BRANCH  24  25
ATOM     25  C   UNL     1       2.224   1.673  18.639  0.00  0.00    +0.000 C 
ATOM     26  C   UNL     1       3.664   1.318  18.323  0.00  0.00    +0.000 C 
ENDBRANCH  24  25
ENDBRANCH  22  24
ENDBRANCH  21  22
ENDBRANCH  20  21
BRANCH  20  27
ATOM     27  C   UNL     1       2.682   6.187  19.795  0.00  0.00    +0.000 C 
BRANCH  27  28
ATOM     28  C   UNL     1       2.184   7.574  19.448  0.00  0.00    +0.000 A 
ATOM     29  C   UNL     1       1.433   8.320  20.368  0.00  0.00    +0.000 A 
ATOM     30  C   UNL     1       0.831   9.517  19.978  0.00  0.00    +0.000 A 
ATOM     31  C   UNL     1       0.999   9.993  18.678  0.00  0.00    +0.000 A 
ATOM     32  C   UNL     1       1.803   9.296  17.779  0.00  0.00    +0.000 A 
ATOM     33  C   UNL     1       2.398   8.094  18.162  0.00  0.00    +0.000 A 
ENDBRANCH  27  28
ENDBRANCH  20  27
ENDBRANCH  19  20
ENDBRANCH   3  19
TORSDOF 13
ENDMDL
MODEL 3
REMARK VINA RESULT:      -7.7      2.529      8.510
REMARK  Name = 
REMARK  15 active torsions:
REMARK  status: ('A' for Active; 'I' for Inactive)
REMARK    1  A    between atoms: C_1  and  C_2
REMARK    2  A    between atoms: C_2  and  O_3
REMARK    3  A    between atoms: O_3  and  C_4
REMARK    4  A    between atoms: C_4  and  C_6
REMARK    5  A    between atoms: C_7  and  C_8
REMARK    6  A    between atoms: C_10  and  C_11
REMARK    7  A    between atoms: C_11  and  N_12
REMARK    8  A    between atoms: N_12  and  C_13
REMARK    9  A    between atoms: N_12  and  C_19
REMARK   10  A    between atoms: C_13  and  C_14
REMARK   11  A    between atoms: C_14  and  O_16
REMARK   12  A    between atoms: O_16  and  C_17
REMARK   13  A    between atoms: C_17  and  C_18
REMARK   14  A    between atoms: C_19  and  C_20
REMARK   15  A    between atoms: C_27  and  C_28
REMARK                            x       y       z     vdW  Elec       q    Type
REMARK                         _______ _______ _______ _____ _____    ______ ____
ROOT
ATOM      1  C   UNL     1       2.253   6.765  19.867  0.00  0.00    +0.000 A 
ATOM      2  C   UNL     1       3.034   6.653  18.712  0.00  0.00    +0.000 A 
ATOM      3  C   UNL     1       3.441   5.400  18.235  0.00  0.00    +0.000 A 
ATOM      4  C   UNL     1       3.116   4.247  18.968  0.00  0.00    +0.000 A 
ATOM      5  C   UNL     1       2.271   4.336  20.078  0.00  0.00    +0.000 A 
ATOM      6  C   UNL     1       1.853   5.597  20.524  0.00  0.00    +0.000 A 
ENDROOT
BRANCH   5   7
ATOM      7  C   UNL     1       1.700   3.143  20.761  0.00  0.00    +0.000 C 
ATOM      8  N   UNL     1       2.146   2.838  22.016  0.00  0.00    +0.000 N 
ATOM      9  O   UNL     1       0.891   2.409  20.204  0.00  0.00    +0.000 OA
ATOM     10  H   UNL     1       2.928   3.288  22.462  0.00  0.00    +0.000 HD
ATOM     11  H   UNL     1       1.842   1.947  22.392  0.00  0.00    +0.000 HD
ENDBRANCH   5   7
BRANCH   1  13
ATOM     12  C   UNL     1       1.024   8.309  21.360  0.00  0.00    +0.000 C 
ATOM     13  C   UNL     1       1.799   8.094  20.283  0.00  0.00    +0.000 C 
BRANCH  12  14
ATOM     14  C   UNL     1       0.706   9.694  21.756  0.00  0.00    +0.000 C 
ATOM     15  O   UNL     1       0.628  10.103  22.900  0.00  0.00    +0.000 OA
BRANCH  14  16
ATOM     16  O   UNL     1       0.407  10.374  20.624  0.00  0.00    +0.000 OA
BRANCH  16  18
ATOM     17  C   UNL     1       1.409  11.909  19.100  0.00  0.00    +0.000 C 
ATOM     18  C   UNL     1       0.980  11.685  20.539  0.00  0.00    +0.000 C 
ENDBRANCH  16  18
ENDBRANCH  14  16
ENDBRANCH  12  14
ENDBRANCH   1  13
BRANCH   3  19
ATOM     19  C   UNL     1       4.109   5.280  16.878  0.00  0.00    +0.000 C 
BRANCH  19  20
ATOM     20  N   UNL     1       5.588   5.240  16.977  0.00  0.00    +0.000 NA
BRANCH  20  21
ATOM     21  C   UNL     1       6.081   5.354  18.376  0.00  0.00    +0.000 C 
BRANCH  21  22
ATOM     22  C   UNL     1       7.565   5.681  18.498  0.00  0.00    +0.000 C 
ATOM     23  O   UNL     1       8.330   5.180  19.313  0.00  0.00    +0.000 OA
BRANCH  22  24
ATOM     24  O   UNL     1       7.931   6.582  17.542  0.00  0.00    +0.000 OA
BRANCH  24  25
ATOM     25  C   UNL     1       7.303   7.869  17.633  0.00  0.00    +0.000 C 
ATOM     26  C   UNL     1       8.316   8.914  18.060  0.00  0.00    +0.000 C 
ENDBRANCH  24  25
ENDBRANCH  22  24
ENDBRANCH  21  22
ENDBRANCH  20  21
BRANCH  20  27
ATOM     27  C   UNL     1       6.159   4.040  16.327  0.00  0.00    +0.000 C 
BRANCH  27  28
ATOM     28  C   UNL     1       6.378   4.218  14.839  0.00  0.00    +0.000 A 
ATOM     29  C   UNL     1       5.654   3.458  13.910  0.00  0.00    +0.000 A 
ATOM     30  C   UNL     1       5.986   3.501  12.555  0.00  0.00    +0.000 A 
ATOM     31  C   UNL     1       7.022   4.323  12.115  0.00  0.00    +0.000 A 
ATOM     32  C   UNL     1       7.701   5.135  13.021  0.00  0.00    +0.000 A 
ATOM     33  C   UNL     1       7.377   5.088  14.378  0.00  0.00    +0.000 A 
ENDBRANCH  27  28
ENDBRANCH  20  27
ENDBRANCH  19  20
ENDBRANCH   3  19
TORSDOF 13
ENDMDL
MODEL 4
REMARK VINA RESULT:      -7.6      2.381      5.340
REMARK  Name = 
REMARK  15 active torsions:
REMARK  status: ('A' for Active; 'I' for Inactive)
REMARK    1  A    between atoms: C_1  and  C_2
REMARK    2  A    between atoms: C_2  and  O_3
REMARK    3  A    between atoms: O_3  and  C_4
REMARK    4  A    between atoms: C_4  and  C_6
REMARK    5  A    between atoms: C_7  and  C_8
REMARK    6  A    between atoms: C_10  and  C_11
REMARK    7  A    between atoms: C_11  and  N_12
REMARK    8  A    between atoms: N_12  and  C_13
REMARK    9  A    between atoms: N_12  and  C_19
REMARK   10  A    between atoms: C_13  and  C_14
REMARK   11  A    between atoms: C_14  and  O_16
REMARK   12  A    between atoms: O_16  and  C_17
REMARK   13  A    between atoms: C_17  and  C_18
REMARK   14  A    between atoms: C_19  and  C_20
REMARK   15  A    between atoms: C_27  and  C_28
REMARK                            x       y       z     vdW  Elec       q    Type
REMARK                         _______ _______ _______ _____ _____    ______ ____
ROOT
ATOM      1  C   UNL     1       6.491   7.165  17.116  0.00  0.00    +0.000 A 
ATOM      2  C   UNL     1       5.447   6.549  17.812  0.00  0.00    +0.000 A 
ATOM      3  C   UNL     1       4.852   5.375  17.330  0.00  0.00    +0.000 A 
ATOM      4  C   UNL     1       5.267   4.853  16.094  0.00  0.00    +0.000 A 
ATOM      5  C   UNL     1       6.361   5.411  15.427  0.00  0.00    +0.000 A 
ATOM      6  C   UNL     1       6.959   6.570  15.940  0.00  0.00    +0.000 A 
ENDROOT
BRANCH   5   7
ATOM      7  C   UNL     1       6.999   4.777  14.241  0.00  0.00    +0.000 C 
ATOM      8  N   UNL     1       6.499   3.587  13.793  0.00  0.00    +0.000 N 
ATOM      9  O   UNL     1       7.986   5.267  13.703  0.00  0.00    +0.000 OA
ATOM     10  H   UNL     1       5.809   3.044  14.286  0.00  0.00    +0.000 HD
ATOM     11  H   UNL     1       7.041   3.118  13.077  0.00  0.00    +0.000 HD
ENDBRANCH   5   7
BRANCH   1  13
ATOM     12  C   UNL     1       8.359   8.351  18.225  0.00  0.00    +0.000 C 
ATOM     13  C   UNL     1       7.122   8.352  17.699  0.00  0.00    +0.000 C 
BRANCH  12  14
ATOM     14  C   UNL     1       8.945   9.621  18.693  0.00  0.00    +0.000 C 
ATOM     15  O   UNL     1       9.290   9.863  19.835  0.00  0.00    +0.000 OA
BRANCH  14  16
ATOM     16  O   UNL     1       8.911  10.484  17.651  0.00  0.00    +0.000 OA
BRANCH  16  18
ATOM     17  C   UNL     1       8.576  12.843  17.725  0.00  0.00    +0.000 C 
ATOM     18  C   UNL     1       9.592  11.726  17.873  0.00  0.00    +0.000 C 
ENDBRANCH  16  18
ENDBRANCH  14  16
ENDBRANCH  12  14
ENDBRANCH   1  13
BRANCH   3  19
ATOM     19  C   UNL     1       3.867   4.609  18.192  0.00  0.00    +0.000 C 
BRANCH  19  20
ATOM     20  N   UNL     1       2.543   5.272  18.264  0.00  0.00    +0.000 NA
BRANCH  20  21
ATOM     21  C   UNL     1       1.418   4.370  17.899  0.00  0.00    +0.000 C 
BRANCH  21  22
ATOM     22  C   UNL     1       1.677   2.893  18.176  0.00  0.00    +0.000 C 
ATOM     23  O   UNL     1       2.282   2.134  17.430  0.00  0.00    +0.000 OA
BRANCH  22  24
ATOM     24  O   UNL     1       1.175   2.546  19.396  0.00  0.00    +0.000 OA
BRANCH  24  25
ATOM     25  C   UNL     1       2.150   2.307  20.421  0.00  0.00    +0.000 C 
ATOM     26  C   UNL     1       1.619   2.771  21.763  0.00  0.00    +0.000 C 
ENDBRANCH  24  25
ENDBRANCH  22  24
ENDBRANCH  21  22
ENDBRANCH  20  21
BRANCH  20  27
ATOM     27  C   UNL     1       2.298   5.891  19.585  0.00  0.00    +0.000 C 
BRANCH  27  28
ATOM     28  C   UNL     1       1.981   7.369  19.501  0.00  0.00    +0.000 A 
ATOM     29  C   UNL     1       1.427   8.049  20.595  0.00  0.00    +0.000 A 
ATOM     30  C   UNL     1       0.977   9.362  20.452  0.00  0.00    +0.000 A 
ATOM     31  C   UNL     1       1.103  10.014  19.226  0.00  0.00    +0.000 A 
ATOM     32  C   UNL     1       1.718   9.371  18.154  0.00  0.00    +0.000 A 
ATOM     33  C   UNL     1       2.160   8.055  18.291  0.00  0.00    +0.000 A 
ENDBRANCH  27  28
ENDBRANCH  20  27
ENDBRANCH  19  20
ENDBRANCH   3  19
TORSDOF 13
ENDMDL
MODEL 5
REMARK VINA RESULT:      -7.5      2.486      8.209
REMARK  Name = 
REMARK  15 active torsions:
REMARK  status: ('A' for Active; 'I' for Inactive)
REMARK    1  A    between atoms: C_1  and  C_2
REMARK    2  A    between atoms: C_2  and  O_3
REMARK    3  A    between atoms: O_3  and  C_4
REMARK    4  A    between atoms: C_4  and  C_6
REMARK    5  A    between atoms: C_7  and  C_8
REMARK    6  A    between atoms: C_10  and  C_11
REMARK    7  A    between atoms: C_11  and  N_12
REMARK    8  A    between atoms: N_12  and  C_13
REMARK    9  A    between atoms: N_12  and  C_19
REMARK   10  A    between atoms: C_13  and  C_14
REMARK   11  A    between atoms: C_14  and  O_16
REMARK   12  A    between atoms: O_16  and  C_17
REMARK   13  A    between atoms: C_17  and  C_18
REMARK   14  A    between atoms: C_19  and  C_20
REMARK   15  A    between atoms: C_27  and  C_28
REMARK                            x       y       z     vdW  Elec       q    Type
REMARK                         _______ _______ _______ _____ _____    ______ ____
ROOT
ATOM      1  C   UNL     1       2.467   6.123  19.774  0.00  0.00    +0.000 A 
ATOM      2  C   UNL     1       3.012   5.823  18.522  0.00  0.00    +0.000 A 
ATOM      3  C   UNL     1       3.460   4.528  18.222  0.00  0.00    +0.000 A 
ATOM      4  C   UNL     1       3.421   3.541  19.219  0.00  0.00    +0.000 A 
ATOM      5  C   UNL     1       2.807   3.805  20.446  0.00  0.00    +0.000 A 
ATOM      6  C   UNL     1       2.342   5.099  20.717  0.00  0.00    +0.000 A 
ENDROOT
BRANCH   5   7
ATOM      7  C   UNL     1       2.524   2.749  21.457  0.00  0.00    +0.000 C 
ATOM      8  N   UNL     1       1.252   2.640  21.943  0.00  0.00    +0.000 N 
ATOM      9  O   UNL     1       3.410   2.024  21.896  0.00  0.00    +0.000 OA
ATOM     10  H   UNL     1       0.519   3.307  21.762  0.00  0.00    +0.000 HD
ATOM     11  H   UNL     1       1.127   2.010  22.726  0.00  0.00    +0.000 HD
ENDBRANCH   5   7
BRANCH   1  13
ATOM     12  C   UNL     1       0.987   7.755  20.902  0.00  0.00    +0.000 C 
ATOM     13  C   UNL     1       1.953   7.475  20.011  0.00  0.00    +0.000 C 
BRANCH  12  14
ATOM     14  C   UNL     1       0.612   9.161  21.142  0.00  0.00    +0.000 C 
ATOM     15  O   UNL     1       1.238  10.134  20.767  0.00  0.00    +0.000 OA
BRANCH  14  16
ATOM     16  O   UNL     1      -0.476   9.152  21.949  0.00  0.00    +0.000 OA
BRANCH  16  18
ATOM     17  C   UNL     1      -1.265  11.135  23.009  0.00  0.00    +0.000 C 
ATOM     18  C   UNL     1      -0.349   9.933  23.144  0.00  0.00    +0.000 C 
ENDBRANCH  16  18
ENDBRANCH  14  16
ENDBRANCH  12  14
ENDBRANCH   1  13
BRANCH   3  19
ATOM     19  C   UNL     1       3.856   4.168  16.803  0.00  0.00    +0.000 C 
BRANCH  19  20
ATOM     20  N   UNL     1       5.303   4.373  16.550  0.00  0.00    +0.000 NA
BRANCH  20  21
ATOM     21  C   UNL     1       5.844   3.471  15.499  0.00  0.00    +0.000 C 
BRANCH  21  22
ATOM     22  C   UNL     1       6.023   4.125  14.134  0.00  0.00    +0.000 C 
ATOM     23  O   UNL     1       7.019   4.742  13.776  0.00  0.00    +0.000 OA
BRANCH  22  24
ATOM     24  O   UNL     1       4.932   3.890  13.351  0.00  0.00    +0.000 OA
BRANCH  24  25
ATOM     25  C   UNL     1       5.208   3.641  11.965  0.00  0.00    +0.000 C 
ATOM     26  C   UNL     1       5.786   2.249  11.791  0.00  0.00    +0.000 C 
ENDBRANCH  24  25
ENDBRANCH  22  24
ENDBRANCH  21  22
ENDBRANCH  20  21
BRANCH  20  27
ATOM     27  C   UNL     1       5.620   5.782  16.232  0.00  0.00    +0.000 C 
BRANCH  27  28
ATOM     28  C   UNL     1       6.701   6.364  17.118  0.00  0.00    +0.000 A 
ATOM     29  C   UNL     1       7.211   5.635  18.203  0.00  0.00    +0.000 A 
ATOM     30  C   UNL     1       8.075   6.244  19.115  0.00  0.00    +0.000 A 
ATOM     31  C   UNL     1       8.459   7.572  18.934  0.00  0.00    +0.000 A 
ATOM     32  C   UNL     1       8.015   8.281  17.820  0.00  0.00    +0.000 A 
ATOM     33  C   UNL     1       7.144   7.679  16.912  0.00  0.00    +0.000 A 
ENDBRANCH  27  28
ENDBRANCH  20  27
ENDBRANCH  19  20
ENDBRANCH   3  19
TORSDOF 13
ENDMDL
MODEL 6
REMARK VINA RESULT:      -7.5      1.084      1.636
REMARK  Name = 
REMARK  15 active torsions:
REMARK  status: ('A' for Active; 'I' for Inactive)
REMARK    1  A    between atoms: C_1  and  C_2
REMARK    2  A    between atoms: C_2  and  O_3
REMARK    3  A    between atoms: O_3  and  C_4
REMARK    4  A    between atoms: C_4  and  C_6
REMARK    5  A    between atoms: C_7  and  C_8
REMARK    6  A    between atoms: C_10  and  C_11
REMARK    7  A    between atoms: C_11  and  N_12
REMARK    8  A    between atoms: N_12  and  C_13
REMARK    9  A    between atoms: N_12  and  C_19
REMARK   10  A    between atoms: C_13  and  C_14
REMARK   11  A    between atoms: C_14  and  O_16
REMARK   12  A    between atoms: O_16  and  C_17
REMARK   13  A    between atoms: C_17  and  C_18
REMARK   14  A    between atoms: C_19  and  C_20
REMARK   15  A    between atoms: C_27  and  C_28
REMARK                            x       y       z     vdW  Elec       q    Type
REMARK                         _______ _______ _______ _____ _____    ______ ____
ROOT
ATOM      1  C   UNL     1       6.075   4.490  16.170  0.00  0.00    +0.000 A 
ATOM      2  C   UNL     1       5.181   4.090  17.169  0.00  0.00    +0.000 A 
ATOM      3  C   UNL     1       5.149   4.741  18.411  0.00  0.00    +0.000 A 
ATOM      4  C   UNL     1       6.076   5.762  18.675  0.00  0.00    +0.000 A 
ATOM      5  C   UNL     1       6.919   6.225  17.661  0.00  0.00    +0.000 A 
ATOM      6  C   UNL     1       6.918   5.578  16.417  0.00  0.00    +0.000 A 
ENDROOT
BRANCH   5   7
ATOM      7  C   UNL     1       7.758   7.448  17.796  0.00  0.00    +0.000 C 
ATOM      8  N   UNL     1       8.536   7.581  18.912  0.00  0.00    +0.000 N 
ATOM      9  O   UNL     1       7.720   8.349  16.966  0.00  0.00    +0.000 OA
ATOM     10  H   UNL     1       8.486   6.971  19.711  0.00  0.00    +0.000 HD
ATOM     11  H   UNL     1       8.982   8.482  19.038  0.00  0.00    +0.000 HD
ENDBRANCH   5   7
BRANCH   1  13
ATOM     12  C   UNL     1       6.208   4.456  13.699  0.00  0.00    +0.000 C 
ATOM     13  C   UNL     1       6.020   3.820  14.868  0.00  0.00    +0.000 C 
BRANCH  12  14
ATOM     14  C   UNL     1       6.236   3.674  12.449  0.00  0.00    +0.000 C 
ATOM     15  O   UNL     1       7.090   2.863  12.141  0.00  0.00    +0.000 OA
BRANCH  14  16
ATOM     16  O   UNL     1       5.215   4.116  11.678  0.00  0.00    +0.000 OA
BRANCH  16  18
ATOM     17  C   UNL     1       3.356   3.535  10.303  0.00  0.00    +0.000 C 
ATOM     18  C   UNL     1       4.093   3.228  11.594  0.00  0.00    +0.000 C 
ENDBRANCH  16  18
ENDBRANCH  14  16
ENDBRANCH  12  14
ENDBRANCH   1  13
BRANCH   3  19
ATOM     19  C   UNL     1       4.044   4.434  19.404  0.00  0.00    +0.000 C 
BRANCH  19  20
ATOM     20  N   UNL     1       2.784   5.148  19.086  0.00  0.00    +0.000 NA
BRANCH  20  21
ATOM     21  C   UNL     1       1.638   4.230  18.847  0.00  0.00    +0.000 C 
BRANCH  21  22
ATOM     22  C   UNL     1       1.985   2.983  18.042  0.00  0.00    +0.000 C 
ATOM     23  O   UNL     1       2.025   2.925  16.820  0.00  0.00    +0.000 OA
BRANCH  22  24
ATOM     24  O   UNL     1       2.285   1.948  18.879  0.00  0.00    +0.000 OA
BRANCH  24  25
ATOM     25  C   UNL     1       3.437   1.174  18.516  0.00  0.00    +0.000 C 
ATOM     26  C   UNL     1       4.470   1.227  19.625  0.00  0.00    +0.000 C 
ENDBRANCH  24  25
ENDBRANCH  22  24
ENDBRANCH  21  22
ENDBRANCH  20  21
BRANCH  20  27
ATOM     27  C   UNL     1       2.434   6.151  20.115  0.00  0.00    +0.000 C 
BRANCH  27  28
ATOM     28  C   UNL     1       2.144   7.520  19.538  0.00  0.00    +0.000 A 
ATOM     29  C   UNL     1       1.426   8.474  20.274  0.00  0.00    +0.000 A 
ATOM     30  C   UNL     1       1.012   9.662  19.671  0.00  0.00    +0.000 A 
ATOM     31  C   UNL     1       1.337   9.920  18.340  0.00  0.00    +0.000 A 
ATOM     32  C   UNL     1       2.112   9.011  17.622  0.00  0.00    +0.000 A 
ATOM     33  C   UNL     1       2.519   7.818  18.219  0.00  0.00    +0.000 A 
ENDBRANCH  27  28
ENDBRANCH  20  27
ENDBRANCH  19  20
ENDBRANCH   3  19
TORSDOF 13
ENDMDL
MODEL 7
REMARK VINA RESULT:      -7.4      2.545      8.368
REMARK  Name = 
REMARK  15 active torsions:
REMARK  status: ('A' for Active; 'I' for Inactive)
REMARK    1  A    between atoms: C_1  and  C_2
REMARK    2  A    between atoms: C_2  and  O_3
REMARK    3  A    between atoms: O_3  and  C_4
REMARK    4  A    between atoms: C_4  and  C_6
REMARK    5  A    between atoms: C_7  and  C_8
REMARK    6  A    between atoms: C_10  and  C_11
REMARK    7  A    between atoms: C_11  and  N_12
REMARK    8  A    between atoms: N_12  and  C_13
REMARK    9  A    between atoms: N_12  and  C_19
REMARK   10  A    between atoms: C_13  and  C_14
REMARK   11  A    between atoms: C_14  and  O_16
REMARK   12  A    between atoms: O_16  and  C_17
REMARK   13  A    between atoms: C_17  and  C_18
REMARK   14  A    between atoms: C_19  and  C_20
REMARK   15  A    between atoms: C_27  and  C_28
REMARK                            x       y       z     vdW  Elec       q    Type
REMARK                         _______ _______ _______ _____ _____    ______ ____
ROOT
ATOM      1  C   UNL     1       2.351   6.320  19.764  0.00  0.00    +0.000 A 
ATOM      2  C   UNL     1       3.089   6.044  18.608  0.00  0.00    +0.000 A 
ATOM      3  C   UNL     1       3.576   4.754  18.354  0.00  0.00    +0.000 A 
ATOM      4  C   UNL     1       3.378   3.745  19.310  0.00  0.00    +0.000 A 
ATOM      5  C   UNL     1       2.577   3.986  20.430  0.00  0.00    +0.000 A 
ATOM      6  C   UNL     1       2.076   5.276  20.652  0.00  0.00    +0.000 A 
ENDROOT
BRANCH   5   7
ATOM      7  C   UNL     1       2.135   2.910  21.360  0.00  0.00    +0.000 C 
ATOM      8  N   UNL     1       0.804   2.609  21.418  0.00  0.00    +0.000 N 
ATOM      9  O   UNL     1       2.925   2.337  22.103  0.00  0.00    +0.000 OA
ATOM     10  H   UNL     1       0.082   3.151  20.971  0.00  0.00    +0.000 HD
ATOM     11  H   UNL     1       0.523   1.975  22.157  0.00  0.00    +0.000 HD
ENDBRANCH   5   7
BRANCH   1  13
ATOM     12  C   UNL     1       1.303   8.114  21.109  0.00  0.00    +0.000 C 
ATOM     13  C   UNL     1       1.808   7.669  19.946  0.00  0.00    +0.000 C 
BRANCH  12  14
ATOM     14  C   UNL     1       0.877   9.521  21.219  0.00  0.00    +0.000 C 
ATOM     15  O   UNL     1       0.875  10.182  22.241  0.00  0.00    +0.000 OA
BRANCH  14  16
ATOM     16  O   UNL     1       0.384   9.885  20.012  0.00  0.00    +0.000 OA
BRANCH  16  18
ATOM     17  C   UNL     1       1.661  11.195  18.483  0.00  0.00    +0.000 C 
ATOM     18  C   UNL     1       0.666  11.237  19.627  0.00  0.00    +0.000 C 
ENDBRANCH  16  18
ENDBRANCH  14  16
ENDBRANCH  12  14
ENDBRANCH   1  13
BRANCH   3  19
ATOM     19  C   UNL     1       4.192   4.422  17.008  0.00  0.00    +0.000 C 
BRANCH  19  20
ATOM     20  N   UNL     1       5.312   5.330  16.660  0.00  0.00    +0.000 NA
BRANCH  20  21
ATOM     21  C   UNL     1       6.649   4.703  16.844  0.00  0.00    +0.000 C 
BRANCH  21  22
ATOM     22  C   UNL     1       7.636   5.543  17.646  0.00  0.00    +0.000 C 
ATOM     23  O   UNL     1       8.122   5.218  18.723  0.00  0.00    +0.000 OA
BRANCH  22  24
ATOM     24  O   UNL     1       7.935   6.692  16.974  0.00  0.00    +0.000 OA
BRANCH  24  25
ATOM     25  C   UNL     1       7.334   7.886  17.495  0.00  0.00    +0.000 C 
ATOM     26  C   UNL     1       8.367   8.701  18.251  0.00  0.00    +0.000 C 
ENDBRANCH  24  25
ENDBRANCH  22  24
ENDBRANCH  21  22
ENDBRANCH  20  21
BRANCH  20  27
ATOM     27  C   UNL     1       5.184   5.877  15.292  0.00  0.00    +0.000 C 
BRANCH  27  28
ATOM     28  C   UNL     1       5.907   5.050  14.250  0.00  0.00    +0.000 A 
ATOM     29  C   UNL     1       7.187   5.411  13.806  0.00  0.00    +0.000 A 
ATOM     30  C   UNL     1       7.768   4.748  12.724  0.00  0.00    +0.000 A 
ATOM     31  C   UNL     1       7.091   3.703  12.099  0.00  0.00    +0.000 A 
ATOM     32  C   UNL     1       5.850   3.290  12.579  0.00  0.00    +0.000 A 
ATOM     33  C   UNL     1       5.261   3.956  13.654  0.00  0.00    +0.000 A 
ENDBRANCH  27  28
ENDBRANCH  20  27
ENDBRANCH  19  20
ENDBRANCH   3  19
TORSDOF 13
ENDMDL
MODEL 8
REMARK VINA RESULT:      -7.3      2.293      4.232
REMARK  Name = 
REMARK  15 active torsions:
REMARK  status: ('A' for Active; 'I' for Inactive)
REMARK    1  A    between atoms: C_1  and  C_2
REMARK    2  A    between atoms: C_2  and  O_3
REMARK    3  A    between atoms: O_3  and  C_4
REMARK    4  A    between atoms: C_4  and  C_6
REMARK    5  A    between atoms: C_7  and  C_8
REMARK    6  A    between atoms: C_10  and  C_11
REMARK    7  A    between atoms: C_11  and  N_12
REMARK    8  A    between atoms: N_12  and  C_13
REMARK    9  A    between atoms: N_12  and  C_19
REMARK   10  A    between atoms: C_13  and  C_14
REMARK   11  A    between atoms: C_14  and  O_16
REMARK   12  A    between atoms: O_16  and  C_17
REMARK   13  A    between atoms: C_17  and  C_18
REMARK   14  A    between atoms: C_19  and  C_20
REMARK   15  A    between atoms: C_27  and  C_28
REMARK                            x       y       z     vdW  Elec       q    Type
REMARK                         _______ _______ _______ _____ _____    ______ ____
ROOT
ATOM      1  C   UNL     1       5.589   5.135  15.495  0.00  0.00    +0.000 A 
ATOM      2  C   UNL     1       4.657   6.064  15.969  0.00  0.00    +0.000 A 
ATOM      3  C   UNL     1       4.742   6.568  17.275  0.00  0.00    +0.000 A 
ATOM      4  C   UNL     1       5.736   6.079  18.136  0.00  0.00    +0.000 A 
ATOM      5  C   UNL     1       6.720   5.212  17.653  0.00  0.00    +0.000 A 
ATOM      6  C   UNL     1       6.633   4.740  16.336  0.00  0.00    +0.000 A 
ENDROOT
BRANCH   5   7
ATOM      7  C   UNL     1       7.929   4.836  18.438  0.00  0.00    +0.000 C 
ATOM      8  N   UNL     1       8.158   5.476  19.622  0.00  0.00    +0.000 N 
ATOM      9  O   UNL     1       8.738   4.017  18.018  0.00  0.00    +0.000 OA
ATOM     10  H   UNL     1       7.636   6.276  19.942  0.00  0.00    +0.000 HD
ATOM     11  H   UNL     1       9.055   5.299  20.058  0.00  0.00    +0.000 HD
ENDBRANCH   5   7
BRANCH   1  13
ATOM     12  C   UNL     1       6.136   3.614  13.620  0.00  0.00    +0.000 C 
ATOM     13  C   UNL     1       5.494   4.693  14.101  0.00  0.00    +0.000 C 
BRANCH  12  14
ATOM     14  C   UNL     1       5.893   3.191  12.229  0.00  0.00    +0.000 C 
ATOM     15  O   UNL     1       4.856   3.349  11.611  0.00  0.00    +0.000 OA
BRANCH  14  16
ATOM     16  O   UNL     1       6.985   2.500  11.825  0.00  0.00    +0.000 OA
BRANCH  16  18
ATOM     17  C   UNL     1       6.241   0.299  11.294  0.00  0.00    +0.000 C 
ATOM     18  C   UNL     1       6.762   1.606  10.727  0.00  0.00    +0.000 C 
ENDBRANCH  16  18
ENDBRANCH  14  16
ENDBRANCH  12  14
ENDBRANCH   1  13
BRANCH   3  19
ATOM     19  C   UNL     1       3.854   7.720  17.706  0.00  0.00    +0.000 C 
BRANCH  19  20
ATOM     20  N   UNL     1       2.547   7.260  18.234  0.00  0.00    +0.000 NA
BRANCH  20  21
ATOM     21  C   UNL     1       1.434   8.200  17.933  0.00  0.00    +0.000 C 
BRANCH  21  22
ATOM     22  C   UNL     1       1.362   9.411  18.857  0.00  0.00    +0.000 C 
ATOM     23  O   UNL     1       1.911  10.486  18.649  0.00  0.00    +0.000 OA
BRANCH  22  24
ATOM     24  O   UNL     1       0.564   9.141  19.929  0.00  0.00    +0.000 OA
BRANCH  24  25
ATOM     25  C   UNL     1       1.248   8.942  21.174  0.00  0.00    +0.000 C 
ATOM     26  C   UNL     1       0.311   9.220  22.334  0.00  0.00    +0.000 C 
ENDBRANCH  24  25
ENDBRANCH  22  24
ENDBRANCH  21  22
ENDBRANCH  20  21
BRANCH  20  27
ATOM     27  C   UNL     1       2.207   5.896  17.774  0.00  0.00    +0.000 C 
BRANCH  27  28
ATOM     28  C   UNL     1       2.016   4.915  18.911  0.00  0.00    +0.000 A 
ATOM     29  C   UNL     1       1.326   3.710  18.713  0.00  0.00    +0.000 A 
ATOM     30  C   UNL     1       1.003   2.898  19.802  0.00  0.00    +0.000 A 
ATOM     31  C   UNL     1       1.392   3.267  21.088  0.00  0.00    +0.000 A 
ATOM     32  C   UNL     1       2.140   4.426  21.286  0.00  0.00    +0.000 A 
ATOM     33  C   UNL     1       2.456   5.245  20.201  0.00  0.00    +0.000 A 
ENDBRANCH  27  28
ENDBRANCH  20  27
ENDBRANCH  19  20
ENDBRANCH   3  19
TORSDOF 13
ENDMDL
MODEL 9
REMARK VINA RESULT:      -7.3      3.731      8.209
REMARK  Name = 
REMARK  15 active torsions:
REMARK  status: ('A' for Active; 'I' for Inactive)
REMARK    1  A    between atoms: C_1  and  C_2
REMARK    2  A    between atoms: C_2  and  O_3
REMARK    3  A    between atoms: O_3  and  C_4
REMARK    4  A    between atoms: C_4  and  C_6
REMARK    5  A    between atoms: C_7  and  C_8
REMARK    6  A    between atoms: C_10  and  C_11
REMARK    7  A    between atoms: C_11  and  N_12
REMARK    8  A    between atoms: N_12  and  C_13
REMARK    9  A    between atoms: N_12  and  C_19
REMARK   10  A    between atoms: C_13  and  C_14
REMARK   11  A    between atoms: C_14  and  O_16
REMARK   12  A    between atoms: O_16  and  C_17
REMARK   13  A    between atoms: C_17  and  C_18
REMARK   14  A    between atoms: C_19  and  C_20
REMARK   15  A    between atoms: C_27  and  C_28
REMARK                            x       y       z     vdW  Elec       q    Type
REMARK                         _______ _______ _______ _____ _____    ______ ____
ROOT
ATOM      1  C   UNL     1      -0.293   9.940  18.566  0.00  0.00    +0.000 A 
ATOM      2  C   UNL     1       0.774   9.386  17.850  0.00  0.00    +0.000 A 
ATOM      3  C   UNL     1       1.848   8.777  18.512  0.00  0.00    +0.000 A 
ATOM      4  C   UNL     1       1.884   8.786  19.915  0.00  0.00    +0.000 A 
ATOM      5  C   UNL     1       0.791   9.263  20.643  0.00  0.00    +0.000 A 
ATOM      6  C   UNL     1      -0.287   9.845  19.962  0.00  0.00    +0.000 A 
ENDROOT
BRANCH   5   7
ATOM      7  C   UNL     1       0.659   9.094  22.117  0.00  0.00    +0.000 C 
ATOM      8  N   UNL     1      -0.574   8.802  22.629  0.00  0.00    +0.000 N 
ATOM      9  O   UNL     1       1.610   9.265  22.871  0.00  0.00    +0.000 OA
ATOM     10  H   UNL     1      -1.426   8.820  22.093  0.00  0.00    +0.000 HD
ATOM     11  H   UNL     1      -0.655   8.833  23.638  0.00  0.00    +0.000 HD
ENDBRANCH   5   7
BRANCH   1  13
ATOM     12  C   UNL     1      -2.659   9.977  17.842  0.00  0.00    +0.000 C 
ATOM     13  C   UNL     1      -1.423  10.504  17.823  0.00  0.00    +0.000 C 
BRANCH  12  14
ATOM     14  C   UNL     1      -3.752  10.678  17.144  0.00  0.00    +0.000 C 
ATOM     15  O   UNL     1      -3.656  11.253  16.075  0.00  0.00    +0.000 OA
BRANCH  14  16
ATOM     16  O   UNL     1      -4.827  10.661  17.967  0.00  0.00    +0.000 OA
BRANCH  16  18
ATOM     17  C   UNL     1      -6.801  11.742  18.754  0.00  0.00    +0.000 C 
ATOM     18  C   UNL     1      -5.926  11.480  17.543  0.00  0.00    +0.000 C 
ENDBRANCH  16  18
ENDBRANCH  14  16
ENDBRANCH  12  14
ENDBRANCH   1  13
BRANCH   3  19
ATOM     19  C   UNL     1       2.890   8.005  17.725  0.00  0.00    +0.000 C 
BRANCH  19  20
ATOM     20  N   UNL     1       3.014   6.598  18.178  0.00  0.00    +0.000 NA
BRANCH  20  21
ATOM     21  C   UNL     1       1.706   5.894  18.257  0.00  0.00    +0.000 C 
BRANCH  21  22
ATOM     22  C   UNL     1       1.779   4.490  18.846  0.00  0.00    +0.000 C 
ATOM     23  O   UNL     1       1.562   3.456  18.225  0.00  0.00    +0.000 OA
BRANCH  22  24
ATOM     24  O   UNL     1       2.161   4.545  20.154  0.00  0.00    +0.000 OA
BRANCH  24  25
ATOM     25  C   UNL     1       2.692   3.327  20.694  0.00  0.00    +0.000 C 
ATOM     26  C   UNL     1       1.687   2.692  21.635  0.00  0.00    +0.000 C 
ENDBRANCH  24  25
ENDBRANCH  22  24
ENDBRANCH  21  22
ENDBRANCH  20  21
BRANCH  20  27
ATOM     27  C   UNL     1       3.966   5.826  17.351  0.00  0.00    +0.000 C 
BRANCH  27  28
ATOM     28  C   UNL     1       5.406   5.991  17.789  0.00  0.00    +0.000 A 
ATOM     29  C   UNL     1       5.901   5.303  18.907  0.00  0.00    +0.000 A 
ATOM     30  C   UNL     1       7.171   5.595  19.406  0.00  0.00    +0.000 A 
ATOM     31  C   UNL     1       7.966   6.551  18.777  0.00  0.00    +0.000 A 
ATOM     32  C   UNL     1       7.512   7.188  17.624  0.00  0.00    +0.000 A 
ATOM     33  C   UNL     1       6.239   6.906  17.128  0.00  0.00    +0.000 A 
ENDBRANCH  27  28
ENDBRANCH  20  27
ENDBRANCH  19  20
ENDBRANCH   3  19
TORSDOF 13
ENDMDL
