MODEL 1
REMARK VINA RESULT:      -7.9      0.000      0.000
REMARK  Name = 
REMARK  2 active torsions:
REMARK  status: ('A' for Active; 'I' for Inactive)
REMARK    1  A    between atoms: C_2  and  C_3
REMARK    2  A    between atoms: C_2  and  C_17
REMARK                            x       y       z     vdW  Elec       q    Type
REMARK                         _______ _______ _______ _____ _____    ______ ____
ROOT
ATOM      1  C   UNL     1       3.953   4.176  18.701  0.00  0.00    +0.000 A 
ATOM      2  C   UNL     1       4.696   4.696  17.646  0.00  0.00    +0.000 A 
ATOM      3  N   UNL     1       4.369   6.026  17.508  0.00  0.00    +0.000 N 
ATOM      4  C   UNL     1       3.422   6.388  18.441  0.00  0.00    +0.000 A 
ATOM      5  C   UNL     1       2.795   7.624  18.686  0.00  0.00    +0.000 A 
ATOM      6  C   UNL     1       1.876   7.713  19.732  0.00  0.00    +0.000 A 
ATOM      7  C   UNL     1       1.602   6.612  20.528  0.00  0.00    +0.000 A 
ATOM      8  C   UNL     1       2.245   5.392  20.295  0.00  0.00    +0.000 A 
ATOM      9  C   UNL     1       3.154   5.255  19.217  0.00  0.00    +0.000 A 
ATOM     10  C   UNL     1       5.014   6.914  16.550  0.00  0.00    +0.000 C 
ATOM     11  C   UNL     1       6.520   7.050  16.803  0.00  0.00    +0.000 C 
ATOM     12  N   UNL     1       7.338   5.950  16.269  0.00  0.00    +0.000 NA
ATOM     13  C   UNL     1       7.123   4.670  16.964  0.00  0.00    +0.000 C 
ATOM     14  C   UNL     1       5.727   4.063  16.752  0.00  0.00    +0.000 C 
ATOM     15  H   UNL     1       8.323   6.201  16.377  0.00  0.00    +0.000 HD
ENDROOT
BRANCH   1  17
ATOM     16  O   UNL     1       4.892   2.502  20.046  0.00  0.00    +0.000 OA
ATOM     17  C   UNL     1       4.056   2.786  19.180  0.00  0.00    +0.000 C 
BRANCH  17  18
ATOM     18  C   UNL     1       3.146   1.707  18.600  0.00  0.00    +0.000 C 
ATOM     19  F   UNL     1       2.028   1.428  19.324  0.00  0.00    +0.000 F 
ATOM     20  F   UNL     1       2.689   2.042  17.355  0.00  0.00    +0.000 F 
ATOM     21  F   UNL     1       3.801   0.519  18.446  0.00  0.00    +0.000 F 
ENDBRANCH  17  18
ENDBRANCH   1  17
TORSDOF 2
ENDMDL
MODEL 2
REMARK VINA RESULT:      -7.5      2.602      4.264
REMARK  Name = 
REMARK  2 active torsions:
REMARK  status: ('A' for Active; 'I' for Inactive)
REMARK    1  A    between atoms: C_2  and  C_3
REMARK    2  A    between atoms: C_2  and  C_17
REMARK                            x       y       z     vdW  Elec       q    Type
REMARK                         _______ _______ _______ _____ _____    ______ ____
ROOT
ATOM      1  C   UNL     1       4.741   4.841  18.034  0.00  0.00    +0.000 A 
ATOM      2  C   UNL     1       3.939   3.934  18.718  0.00  0.00    +0.000 A 
ATOM      3  N   UNL     1       2.769   4.572  19.061  0.00  0.00    +0.000 N 
ATOM      4  C   UNL     1       2.789   5.880  18.627  0.00  0.00    +0.000 A 
ATOM      5  C   UNL     1       1.830   6.904  18.742  0.00  0.00    +0.000 A 
ATOM      6  C   UNL     1       2.109   8.149  18.176  0.00  0.00    +0.000 A 
ATOM      7  C   UNL     1       3.297   8.366  17.496  0.00  0.00    +0.000 A 
ATOM      8  C   UNL     1       4.237   7.339  17.367  0.00  0.00    +0.000 A 
ATOM      9  C   UNL     1       4.005   6.075  17.962  0.00  0.00    +0.000 A 
ATOM     10  C   UNL     1       1.656   3.905  19.721  0.00  0.00    +0.000 C 
ATOM     11  C   UNL     1       1.079   2.761  18.878  0.00  0.00    +0.000 C 
ATOM     12  N   UNL     1       1.828   1.497  18.957  0.00  0.00    +0.000 NA
ATOM     13  C   UNL     1       3.161   1.567  18.335  0.00  0.00    +0.000 C 
ATOM     14  C   UNL     1       4.152   2.486  19.065  0.00  0.00    +0.000 C 
ATOM     15  H   UNL     1       1.294   0.776  18.469  0.00  0.00    +0.000 HD
ENDROOT
BRANCH   1  17
ATOM     16  O   UNL     1       7.046   4.454  18.218  0.00  0.00    +0.000 OA
ATOM     17  C   UNL     1       6.064   4.515  17.469  0.00  0.00    +0.000 C 
BRANCH  17  18
ATOM     18  C   UNL     1       6.216   4.270  15.971  0.00  0.00    +0.000 C 
ATOM     19  F   UNL     1       5.932   3.007  15.550  0.00  0.00    +0.000 F 
ATOM     20  F   UNL     1       5.396   5.082  15.236  0.00  0.00    +0.000 F 
ATOM     21  F   UNL     1       7.484   4.535  15.539  0.00  0.00    +0.000 F 
ENDBRANCH  17  18
ENDBRANCH   1  17
TORSDOF 2
ENDMDL
MODEL 3
REMARK VINA RESULT:      -7.5      3.023      4.526
REMARK  Name = 
REMARK  2 active torsions:
REMARK  status: ('A' for Active; 'I' for Inactive)
REMARK    1  A    between atoms: C_2  and  C_3
REMARK    2  A    between atoms: C_2  and  C_17
REMARK                            x       y       z     vdW  Elec       q    Type
REMARK                         _______ _______ _______ _____ _____    ______ ____
ROOT
ATOM      1  C   UNL     1       4.664   4.903  17.931  0.00  0.00    +0.000 A 
ATOM      2  C   UNL     1       3.914   3.989  18.664  0.00  0.00    +0.000 A 
ATOM      3  N   UNL     1       2.780   4.627  19.111  0.00  0.00    +0.000 N 
ATOM      4  C   UNL     1       2.773   5.942  18.697  0.00  0.00    +0.000 A 
ATOM      5  C   UNL     1       1.833   6.968  18.904  0.00  0.00    +0.000 A 
ATOM      6  C   UNL     1       2.073   8.221  18.337  0.00  0.00    +0.000 A 
ATOM      7  C   UNL     1       3.203   8.443  17.567  0.00  0.00    +0.000 A 
ATOM      8  C   UNL     1       4.123   7.413  17.346  0.00  0.00    +0.000 A 
ATOM      9  C   UNL     1       3.932   6.141  17.938  0.00  0.00    +0.000 A 
ATOM     10  C   UNL     1       1.719   3.955  19.848  0.00  0.00    +0.000 C 
ATOM     11  C   UNL     1       1.070   2.827  19.038  0.00  0.00    +0.000 C 
ATOM     12  N   UNL     1       1.814   1.559  19.035  0.00  0.00    +0.000 NA
ATOM     13  C   UNL     1       3.093   1.632  18.308  0.00  0.00    +0.000 C 
ATOM     14  C   UNL     1       4.145   2.534  18.970  0.00  0.00    +0.000 C 
ATOM     15  H   UNL     1       1.238   0.849  18.581  0.00  0.00    +0.000 HD
ENDROOT
BRANCH   1  17
ATOM     16  O   UNL     1       5.914   3.928  16.203  0.00  0.00    +0.000 OA
ATOM     17  C   UNL     1       5.934   4.579  17.255  0.00  0.00    +0.000 C 
BRANCH  17  18
ATOM     18  C   UNL     1       7.259   5.033  17.859  0.00  0.00    +0.000 C 
ATOM     19  F   UNL     1       8.292   4.156  17.739  0.00  0.00    +0.000 F 
ATOM     20  F   UNL     1       7.709   6.192  17.287  0.00  0.00    +0.000 F 
ATOM     21  F   UNL     1       7.145   5.300  19.193  0.00  0.00    +0.000 F 
ENDBRANCH  17  18
ENDBRANCH   1  17
TORSDOF 2
ENDMDL
MODEL 4
REMARK VINA RESULT:      -7.5      3.190      4.690
REMARK  Name = 
REMARK  2 active torsions:
REMARK  status: ('A' for Active; 'I' for Inactive)
REMARK    1  A    between atoms: C_2  and  C_3
REMARK    2  A    between atoms: C_2  and  C_17
REMARK                            x       y       z     vdW  Elec       q    Type
REMARK                         _______ _______ _______ _____ _____    ______ ____
ROOT
ATOM      1  C   UNL     1       3.763   5.551  17.987  0.00  0.00    +0.000 A 
ATOM      2  C   UNL     1       3.519   4.692  19.053  0.00  0.00    +0.000 A 
ATOM      3  N   UNL     1       2.717   5.351  19.957  0.00  0.00    +0.000 N 
ATOM      4  C   UNL     1       2.438   6.625  19.514  0.00  0.00    +0.000 A 
ATOM      5  C   UNL     1       1.668   7.653  20.089  0.00  0.00    +0.000 A 
ATOM      6  C   UNL     1       1.532   8.857  19.395  0.00  0.00    +0.000 A 
ATOM      7  C   UNL     1       2.127   9.028  18.155  0.00  0.00    +0.000 A 
ATOM      8  C   UNL     1       2.873   7.996  17.578  0.00  0.00    +0.000 A 
ATOM      9  C   UNL     1       3.064   6.775  18.271  0.00  0.00    +0.000 A 
ATOM     10  C   UNL     1       2.192   4.729  21.165  0.00  0.00    +0.000 C 
ATOM     11  C   UNL     1       1.289   3.528  20.857  0.00  0.00    +0.000 C 
ATOM     12  N   UNL     1       2.003   2.274  20.573  0.00  0.00    +0.000 NA
ATOM     13  C   UNL     1       2.754   2.303  19.307  0.00  0.00    +0.000 C 
ATOM     14  C   UNL     1       3.947   3.271  19.302  0.00  0.00    +0.000 C 
ATOM     15  H   UNL     1       1.316   1.521  20.510  0.00  0.00    +0.000 HD
ENDROOT
BRANCH   1  17
ATOM     16  O   UNL     1       4.418   4.066  16.295  0.00  0.00    +0.000 OA
ATOM     17  C   UNL     1       4.554   5.188  16.796  0.00  0.00    +0.000 C 
BRANCH  17  18
ATOM     18  C   UNL     1       5.541   6.187  16.200  0.00  0.00    +0.000 C 
ATOM     19  F   UNL     1       6.114   7.048  17.085  0.00  0.00    +0.000 F 
ATOM     20  F   UNL     1       6.590   5.561  15.584  0.00  0.00    +0.000 F 
ATOM     21  F   UNL     1       4.959   6.965  15.240  0.00  0.00    +0.000 F 
ENDBRANCH  17  18
ENDBRANCH   1  17
TORSDOF 2
ENDMDL
MODEL 5
REMARK VINA RESULT:      -7.4      3.541      5.734
REMARK  Name = 
REMARK  2 active torsions:
REMARK  status: ('A' for Active; 'I' for Inactive)
REMARK    1  A    between atoms: C_2  and  C_3
REMARK    2  A    between atoms: C_2  and  C_17
REMARK                            x       y       z     vdW  Elec       q    Type
REMARK                         _______ _______ _______ _____ _____    ______ ____
ROOT
ATOM      1  C   UNL     1       2.665   6.366  18.800  0.00  0.00    +0.000 A 
ATOM      2  C   UNL     1       2.321   5.102  19.268  0.00  0.00    +0.000 A 
ATOM      3  N   UNL     1       3.021   4.170  18.538  0.00  0.00    +0.000 N 
ATOM      4  C   UNL     1       3.810   4.792  17.594  0.00  0.00    +0.000 A 
ATOM      5  C   UNL     1       4.691   4.260  16.634  0.00  0.00    +0.000 A 
ATOM      6  C   UNL     1       5.394   5.141  15.810  0.00  0.00    +0.000 A 
ATOM      7  C   UNL     1       5.242   6.511  15.948  0.00  0.00    +0.000 A 
ATOM      8  C   UNL     1       4.382   7.035  16.918  0.00  0.00    +0.000 A 
ATOM      9  C   UNL     1       3.624   6.171  17.746  0.00  0.00    +0.000 A 
ATOM     10  C   UNL     1       2.971   2.739  18.805  0.00  0.00    +0.000 C 
ATOM     11  C   UNL     1       3.479   2.390  20.209  0.00  0.00    +0.000 C 
ATOM     12  N   UNL     1       2.497   2.583  21.287  0.00  0.00    +0.000 NA
ATOM     13  C   UNL     1       2.163   3.996  21.529  0.00  0.00    +0.000 C 
ATOM     14  C   UNL     1       1.401   4.671  20.378  0.00  0.00    +0.000 C 
ATOM     15  H   UNL     1       2.890   2.203  22.150  0.00  0.00    +0.000 HD
ENDROOT
BRANCH   1  17
ATOM     16  O   UNL     1       2.068   7.757  20.591  0.00  0.00    +0.000 OA
ATOM     17  C   UNL     1       2.148   7.626  19.363  0.00  0.00    +0.000 C 
BRANCH  17  18
ATOM     18  C   UNL     1       1.702   8.752  18.435  0.00  0.00    +0.000 C 
ATOM     19  F   UNL     1       2.689   9.584  18.002  0.00  0.00    +0.000 F 
ATOM     20  F   UNL     1       1.119   8.272  17.295  0.00  0.00    +0.000 F 
ATOM     21  F   UNL     1       0.765   9.553  19.021  0.00  0.00    +0.000 F 
ENDBRANCH  17  18
ENDBRANCH   1  17
TORSDOF 2
ENDMDL
MODEL 6
REMARK VINA RESULT:      -7.3      2.980      4.533
REMARK  Name = 
REMARK  2 active torsions:
REMARK  status: ('A' for Active; 'I' for Inactive)
REMARK    1  A    between atoms: C_2  and  C_3
REMARK    2  A    between atoms: C_2  and  C_17
REMARK                            x       y       z     vdW  Elec       q    Type
REMARK                         _______ _______ _______ _____ _____    ______ ____
ROOT
ATOM      1  C   UNL     1       4.168   5.294  18.124  0.00  0.00    +0.000 A 
ATOM      2  C   UNL     1       3.757   4.503  19.192  0.00  0.00    +0.000 A 
ATOM      3  N   UNL     1       2.839   5.219  19.926  0.00  0.00    +0.000 N 
ATOM      4  C   UNL     1       2.644   6.465  19.369  0.00  0.00    +0.000 A 
ATOM      5  C   UNL     1       1.811   7.529  19.759  0.00  0.00    +0.000 A 
ATOM      6  C   UNL     1       1.794   8.688  18.981  0.00  0.00    +0.000 A 
ATOM      7  C   UNL     1       2.568   8.780  17.835  0.00  0.00    +0.000 A 
ATOM      8  C   UNL     1       3.378   7.711  17.440  0.00  0.00    +0.000 A 
ATOM      9  C   UNL     1       3.450   6.536  18.226  0.00  0.00    +0.000 A 
ATOM     10  C   UNL     1       2.132   4.675  21.077  0.00  0.00    +0.000 C 
ATOM     11  C   UNL     1       1.270   3.461  20.712  0.00  0.00    +0.000 C 
ATOM     12  N   UNL     1       2.002   2.189  20.614  0.00  0.00    +0.000 NA
ATOM     13  C   UNL     1       2.934   2.137  19.475  0.00  0.00    +0.000 C 
ATOM     14  C   UNL     1       4.126   3.099  19.588  0.00  0.00    +0.000 C 
ATOM     15  H   UNL     1       1.323   1.436  20.496  0.00  0.00    +0.000 HD
ENDROOT
BRANCH   1  17
ATOM     16  O   UNL     1       4.709   4.215  16.114  0.00  0.00    +0.000 OA
ATOM     17  C   UNL     1       5.122   4.855  17.089  0.00  0.00    +0.000 C 
BRANCH  17  18
ATOM     18  C   UNL     1       6.606   5.179  17.230  0.00  0.00    +0.000 C 
ATOM     19  F   UNL     1       7.460   4.284  16.661  0.00  0.00    +0.000 F 
ATOM     20  F   UNL     1       6.921   6.382  16.659  0.00  0.00    +0.000 F 
ATOM     21  F   UNL     1       6.982   5.280  18.538  0.00  0.00    +0.000 F 
ENDBRANCH  17  18
ENDBRANCH   1  17
TORSDOF 2
ENDMDL
MODEL 7
REMARK VINA RESULT:      -7.3      3.385      5.508
REMARK  Name = 
REMARK  2 active torsions:
REMARK  status: ('A' for Active; 'I' for Inactive)
REMARK    1  A    between atoms: C_2  and  C_3
REMARK    2  A    between atoms: C_2  and  C_17
REMARK                            x       y       z     vdW  Elec       q    Type
REMARK                         _______ _______ _______ _____ _____    ______ ____
ROOT
ATOM      1  C   UNL     1       3.255   5.930  18.181  0.00  0.00    +0.000 A 
ATOM      2  C   UNL     1       2.701   4.663  18.029  0.00  0.00    +0.000 A 
ATOM      3  N   UNL     1       3.640   3.856  17.428  0.00  0.00    +0.000 N 
ATOM      4  C   UNL     1       4.793   4.565  17.173  0.00  0.00    +0.000 A 
ATOM      5  C   UNL     1       6.008   4.170  16.584  0.00  0.00    +0.000 A 
ATOM      6  C   UNL     1       7.036   5.107  16.472  0.00  0.00    +0.000 A 
ATOM      7  C   UNL     1       6.870   6.397  16.953  0.00  0.00    +0.000 A 
ATOM      8  C   UNL     1       5.669   6.779  17.557  0.00  0.00    +0.000 A 
ATOM      9  C   UNL     1       4.591   5.866  17.652  0.00  0.00    +0.000 A 
ATOM     10  C   UNL     1       3.436   2.435  17.183  0.00  0.00    +0.000 C 
ATOM     11  C   UNL     1       3.218   1.645  18.479  0.00  0.00    +0.000 C 
ATOM     12  N   UNL     1       1.851   1.705  19.018  0.00  0.00    +0.000 NA
ATOM     13  C   UNL     1       1.477   3.038  19.519  0.00  0.00    +0.000 C 
ATOM     14  C   UNL     1       1.359   4.112  18.427  0.00  0.00    +0.000 C 
ATOM     15  H   UNL     1       1.785   1.049  19.799  0.00  0.00    +0.000 HD
ENDROOT
BRANCH   1  17
ATOM     16  O   UNL     1       2.361   7.038  20.044  0.00  0.00    +0.000 OA
ATOM     17  C   UNL     1       2.565   7.064  18.824  0.00  0.00    +0.000 C 
BRANCH  17  18
ATOM     18  C   UNL     1       2.096   8.249  17.985  0.00  0.00    +0.000 C 
ATOM     19  F   UNL     1       0.868   8.117  17.415  0.00  0.00    +0.000 F 
ATOM     20  F   UNL     1       2.022   9.398  18.724  0.00  0.00    +0.000 F 
ATOM     21  F   UNL     1       2.960   8.521  16.963  0.00  0.00    +0.000 F 
ENDBRANCH  17  18
ENDBRANCH   1  17
TORSDOF 2
ENDMDL
MODEL 8
REMARK VINA RESULT:      -7.2      2.457      4.231
REMARK  Name = 
REMARK  2 active torsions:
REMARK  status: ('A' for Active; 'I' for Inactive)
REMARK    1  A    between atoms: C_2  and  C_3
REMARK    2  A    between atoms: C_2  and  C_17
REMARK                            x       y       z     vdW  Elec       q    Type
REMARK                         _______ _______ _______ _____ _____    ______ ____
ROOT
ATOM      1  C   UNL     1       4.372   5.248  18.307  0.00  0.00    +0.000 A 
ATOM      2  C   UNL     1       3.837   4.479  19.335  0.00  0.00    +0.000 A 
ATOM      3  N   UNL     1       2.824   5.200  19.925  0.00  0.00    +0.000 N 
ATOM      4  C   UNL     1       2.689   6.428  19.315  0.00  0.00    +0.000 A 
ATOM      5  C   UNL     1       1.799   7.489  19.566  0.00  0.00    +0.000 A 
ATOM      6  C   UNL     1       1.869   8.627  18.762  0.00  0.00    +0.000 A 
ATOM      7  C   UNL     1       2.783   8.702  17.722  0.00  0.00    +0.000 A 
ATOM      8  C   UNL     1       3.650   7.636  17.462  0.00  0.00    +0.000 A 
ATOM      9  C   UNL     1       3.633   6.481  18.283  0.00  0.00    +0.000 A 
ATOM     10  C   UNL     1       1.982   4.674  20.991  0.00  0.00    +0.000 C 
ATOM     11  C   UNL     1       1.188   3.438  20.551  0.00  0.00    +0.000 C 
ATOM     12  N   UNL     1       1.942   2.176  20.582  0.00  0.00    +0.000 NA
ATOM     13  C   UNL     1       3.012   2.108  19.573  0.00  0.00    +0.000 C 
ATOM     14  C   UNL     1       4.169   3.091  19.812  0.00  0.00    +0.000 C 
ATOM     15  H   UNL     1       1.292   1.409  20.398  0.00  0.00    +0.000 HD
ENDROOT
BRANCH   1  17
ATOM     16  O   UNL     1       6.632   4.897  17.788  0.00  0.00    +0.000 OA
ATOM     17  C   UNL     1       5.456   4.798  17.414  0.00  0.00    +0.000 C 
BRANCH  17  18
ATOM     18  C   UNL     1       5.127   4.230  16.037  0.00  0.00    +0.000 C 
ATOM     19  F   UNL     1       5.960   3.250  15.591  0.00  0.00    +0.000 F 
ATOM     20  F   UNL     1       3.877   3.676  16.001  0.00  0.00    +0.000 F 
ATOM     21  F   UNL     1       5.132   5.197  15.074  0.00  0.00    +0.000 F 
ENDBRANCH  17  18
ENDBRANCH   1  17
TORSDOF 2
ENDMDL
MODEL 9
REMARK VINA RESULT:      -7.2      2.507      4.115
REMARK  Name = 
REMARK  2 active torsions:
REMARK  status: ('A' for Active; 'I' for Inactive)
REMARK    1  A    between atoms: C_2  and  C_3
REMARK    2  A    between atoms: C_2  and  C_17
REMARK                            x       y       z     vdW  Elec       q    Type
REMARK                         _______ _______ _______ _____ _____    ______ ____
ROOT
ATOM      1  C   UNL     1       4.313   5.798  18.125  0.00  0.00    +0.000 A 
ATOM      2  C   UNL     1       3.980   4.918  19.150  0.00  0.00    +0.000 A 
ATOM      3  N   UNL     1       2.957   5.479  19.879  0.00  0.00    +0.000 N 
ATOM      4  C   UNL     1       2.617   6.711  19.364  0.00  0.00    +0.000 A 
ATOM      5  C   UNL     1       1.641   7.642  19.766  0.00  0.00    +0.000 A 
ATOM      6  C   UNL     1       1.495   8.820  19.032  0.00  0.00    +0.000 A 
ATOM      7  C   UNL     1       2.281   9.058  17.915  0.00  0.00    +0.000 A 
ATOM      8  C   UNL     1       3.234   8.120  17.506  0.00  0.00    +0.000 A 
ATOM      9  C   UNL     1       3.437   6.932  18.250  0.00  0.00    +0.000 A 
ATOM     10  C   UNL     1       2.296   4.802  20.987  0.00  0.00    +0.000 C 
ATOM     11  C   UNL     1       1.609   3.503  20.549  0.00  0.00    +0.000 C 
ATOM     12  N   UNL     1       2.504   2.341  20.427  0.00  0.00    +0.000 NA
ATOM     13  C   UNL     1       3.464   2.456  19.317  0.00  0.00    +0.000 C 
ATOM     14  C   UNL     1       4.517   3.559  19.505  0.00  0.00    +0.000 C 
ATOM     15  H   UNL     1       1.931   1.512  20.259  0.00  0.00    +0.000 HD
ENDROOT
BRANCH   1  17
ATOM     16  O   UNL     1       6.396   6.179  17.120  0.00  0.00    +0.000 OA
ATOM     17  C   UNL     1       5.343   5.530  17.105  0.00  0.00    +0.000 C 
BRANCH  17  18
ATOM     18  C   UNL     1       5.102   4.470  16.035  0.00  0.00    +0.000 C 
ATOM     19  F   UNL     1       3.932   3.783  16.140  0.00  0.00    +0.000 F 
ATOM     20  F   UNL     1       5.086   5.010  14.778  0.00  0.00    +0.000 F 
ATOM     21  F   UNL     1       6.091   3.529  16.020  0.00  0.00    +0.000 F 
ENDBRANCH  17  18
ENDBRANCH   1  17
TORSDOF 2
ENDMDL
