MODEL 1
REMARK VINA RESULT:      -7.3      0.000      0.000
REMARK  Name = 
REMARK  9 active torsions:
REMARK  status: ('A' for Active; 'I' for Inactive)
REMARK    1  A    between atoms: C_2  and  C_3
REMARK    2  A    between atoms: C_2  and  C_9
REMARK    3  A    between atoms: C_15  and  C_16
REMARK    4  A    between atoms: C_16  and  C_17
REMARK    5  A    between atoms: C_17  and  C_18
REMARK    6  A    between atoms: C_18  and  C_19
REMARK    7  A    between atoms: C_19  and  C_20
REMARK    8  A    between atoms: C_20  and  C_21
REMARK    9  A    between atoms: C_22  and  C_23
REMARK                            x       y       z     vdW  Elec       q    Type
REMARK                         _______ _______ _______ _____ _____    ______ ____
ROOT
ATOM      1  C   UNL     1       2.876   4.124  18.982  0.00  0.00    +0.000 C 
ATOM      2  C   UNL     1       1.351   3.636  19.347  0.00  0.00    +0.000 C 
ATOM      3  C   UNL     1       1.165   2.186  18.999  0.00  0.00    +0.000 C 
ATOM      4  C   UNL     1       1.722   2.147  17.623  0.00  0.00    +0.000 C 
ATOM      5  C   UNL     1       2.399   3.526  17.462  0.00  0.00    +0.000 C 
ATOM      6  C   UNL     1       3.529   3.279  16.470  0.00  0.00    +0.000 C 
ATOM      7  C   UNL     1       4.488   4.278  16.906  0.00  0.00    +0.000 C 
ATOM      8  C   UNL     1       4.149   4.752  18.137  0.00  0.00    +0.000 C 
ENDROOT
BRANCH   8   9
ATOM      9  C   UNL     1       5.065   5.802  18.803  0.00  0.00    +0.000 C 
ATOM     10  C   UNL     1       6.284   5.225  19.520  0.00  0.00    +0.000 C 
ATOM     11  C   UNL     1       7.668   5.653  19.070  0.00  0.00    +0.000 C 
ATOM     12  C   UNL     1       7.829   6.761  18.040  0.00  0.00    +0.000 C 
ATOM     13  C   UNL     1       6.616   7.307  17.315  0.00  0.00    +0.000 C 
ATOM     14  C   UNL     1       5.251   7.029  17.898  0.00  0.00    +0.000 C 
ENDBRANCH   8   9
BRANCH   1  16
ATOM     15  C   UNL     1       2.769   5.263  21.321  0.00  0.00    +0.000 C 
ATOM     16  C   UNL     1       2.585   5.354  19.989  0.00  0.00    +0.000 C 
BRANCH  16  17
ATOM     17  C   UNL     1       2.145   6.706  19.392  0.00  0.00    +0.000 A 
ATOM     18  C   UNL     1       2.062   6.929  17.998  0.00  0.00    +0.000 A 
ATOM     19  C   UNL     1       1.771   8.200  17.463  0.00  0.00    +0.000 A 
ATOM     20  C   UNL     1       1.504   9.289  18.285  0.00  0.00    +0.000 A 
ATOM     21  C   UNL     1       1.484   9.081  19.668  0.00  0.00    +0.000 A 
ATOM     22  C   UNL     1       1.792   7.823  20.201  0.00  0.00    +0.000 A 
ENDBRANCH  16  17
ENDBRANCH   1  16
BRANCH   7  23
ATOM     23  C   UNL     1       5.763   4.501  16.095  0.00  0.00    +0.000 C 
BRANCH  23  24
ATOM     24  C   UNL     1       5.787   5.035  14.648  0.00  0.00    +0.000 C 
BRANCH  24  25
ATOM     25  C   UNL     1       6.755   4.229  13.723  0.00  0.00    +0.000 C 
BRANCH  25  26
ATOM     26  C   UNL     1       6.073   3.296  12.703  0.00  0.00    +0.000 C 
BRANCH  26  27
ATOM     27  C   UNL     1       4.742   3.861  12.175  0.00  0.00    +0.000 C 
ATOM     28  C   UNL     1       4.108   2.964  11.117  0.00  0.00    +0.000 C 
ENDBRANCH  26  27
ENDBRANCH  25  26
ENDBRANCH  24  25
ENDBRANCH  23  24
ENDBRANCH   7  23
TORSDOF 8
ENDMDL
MODEL 2
REMARK VINA RESULT:      -7.3      0.408      1.016
REMARK  Name = 
REMARK  9 active torsions:
REMARK  status: ('A' for Active; 'I' for Inactive)
REMARK    1  A    between atoms: C_2  and  C_3
REMARK    2  A    between atoms: C_2  and  C_9
REMARK    3  A    between atoms: C_15  and  C_16
REMARK    4  A    between atoms: C_16  and  C_17
REMARK    5  A    between atoms: C_17  and  C_18
REMARK    6  A    between atoms: C_18  and  C_19
REMARK    7  A    between atoms: C_19  and  C_20
REMARK    8  A    between atoms: C_20  and  C_21
REMARK    9  A    between atoms: C_22  and  C_23
REMARK                            x       y       z     vdW  Elec       q    Type
REMARK                         _______ _______ _______ _____ _____    ______ ____
ROOT
ATOM      1  C   UNL     1       2.770   4.243  19.065  0.00  0.00    +0.000 C 
ATOM      2  C   UNL     1       1.226   3.831  19.442  0.00  0.00    +0.000 C 
ATOM      3  C   UNL     1       0.973   2.386  19.120  0.00  0.00    +0.000 C 
ATOM      4  C   UNL     1       1.523   2.297  17.744  0.00  0.00    +0.000 C 
ATOM      5  C   UNL     1       2.262   3.641  17.557  0.00  0.00    +0.000 C 
ATOM      6  C   UNL     1       3.376   3.326  16.567  0.00  0.00    +0.000 C 
ATOM      7  C   UNL     1       4.382   4.288  16.984  0.00  0.00    +0.000 C 
ATOM      8  C   UNL     1       4.068   4.797  18.207  0.00  0.00    +0.000 C 
ENDROOT
BRANCH   8   9
ATOM      9  C   UNL     1       5.032   5.816  18.852  0.00  0.00    +0.000 C 
ATOM     10  C   UNL     1       6.259   5.200  19.523  0.00  0.00    +0.000 C 
ATOM     11  C   UNL     1       7.638   5.597  19.032  0.00  0.00    +0.000 C 
ATOM     12  C   UNL     1       7.794   6.711  18.008  0.00  0.00    +0.000 C 
ATOM     13  C   UNL     1       6.573   7.297  17.329  0.00  0.00    +0.000 C 
ATOM     14  C   UNL     1       5.221   7.047  17.955  0.00  0.00    +0.000 C 
ENDBRANCH   8   9
BRANCH   1  16
ATOM     15  C   UNL     1       2.725   5.427  21.384  0.00  0.00    +0.000 C 
ATOM     16  C   UNL     1       2.538   5.503  20.051  0.00  0.00    +0.000 C 
BRANCH  16  17
ATOM     17  C   UNL     1       2.154   6.861  19.433  0.00  0.00    +0.000 A 
ATOM     18  C   UNL     1       1.820   7.988  20.221  0.00  0.00    +0.000 A 
ATOM     19  C   UNL     1       1.359   9.189  19.646  0.00  0.00    +0.000 A 
ATOM     20  C   UNL     1       1.254   9.340  18.268  0.00  0.00    +0.000 A 
ATOM     21  C   UNL     1       1.665   8.278  17.456  0.00  0.00    +0.000 A 
ATOM     22  C   UNL     1       2.106   7.077  18.026  0.00  0.00    +0.000 A 
ENDBRANCH  16  17
ENDBRANCH   1  16
BRANCH   7  23
ATOM     23  C   UNL     1       5.662   4.438  16.166  0.00  0.00    +0.000 C 
BRANCH  23  24
ATOM     24  C   UNL     1       5.931   3.710  14.833  0.00  0.00    +0.000 C 
BRANCH  24  25
ATOM     25  C   UNL     1       6.724   4.590  13.814  0.00  0.00    +0.000 C 
BRANCH  25  26
ATOM     26  C   UNL     1       6.678   4.110  12.349  0.00  0.00    +0.000 C 
BRANCH  26  27
ATOM     27  C   UNL     1       5.742   2.905  12.146  0.00  0.00    +0.000 C 
ATOM     28  C   UNL     1       4.457   3.282  11.416  0.00  0.00    +0.000 C 
ENDBRANCH  26  27
ENDBRANCH  25  26
ENDBRANCH  24  25
ENDBRANCH  23  24
ENDBRANCH   7  23
TORSDOF 8
ENDMDL
MODEL 3
REMARK VINA RESULT:      -6.7      7.248     11.901
REMARK  Name = 
REMARK  9 active torsions:
REMARK  status: ('A' for Active; 'I' for Inactive)
REMARK    1  A    between atoms: C_2  and  C_3
REMARK    2  A    between atoms: C_2  and  C_9
REMARK    3  A    between atoms: C_15  and  C_16
REMARK    4  A    between atoms: C_16  and  C_17
REMARK    5  A    between atoms: C_17  and  C_18
REMARK    6  A    between atoms: C_18  and  C_19
REMARK    7  A    between atoms: C_19  and  C_20
REMARK    8  A    between atoms: C_20  and  C_21
REMARK    9  A    between atoms: C_22  and  C_23
REMARK                            x       y       z     vdW  Elec       q    Type
REMARK                         _______ _______ _______ _____ _____    ______ ____
ROOT
ATOM      1  C   UNL     1      -1.458  11.295  20.491  0.00  0.00    +0.000 C 
ATOM      2  C   UNL     1      -0.114  10.550  19.911  0.00  0.00    +0.000 C 
ATOM      3  C   UNL     1       0.192   9.316  20.712  0.00  0.00    +0.000 C 
ATOM      4  C   UNL     1       0.088   9.840  22.097  0.00  0.00    +0.000 C 
ATOM      5  C   UNL     1      -0.526  11.246  21.914  0.00  0.00    +0.000 C 
ATOM      6  C   UNL     1      -1.290  11.497  23.208  0.00  0.00    +0.000 C 
ATOM      7  C   UNL     1      -2.352  12.362  22.725  0.00  0.00    +0.000 C 
ATOM      8  C   UNL     1      -2.416  12.316  21.366  0.00  0.00    +0.000 C 
ENDROOT
BRANCH   8   9
ATOM      9  C   UNL     1      -3.508  13.141  20.649  0.00  0.00    +0.000 C 
ATOM     10  C   UNL     1      -4.934  12.632  20.858  0.00  0.00    +0.000 C 
ATOM     11  C   UNL     1      -5.954  13.556  21.496  0.00  0.00    +0.000 C 
ATOM     12  C   UNL     1      -5.604  15.011  21.767  0.00  0.00    +0.000 C 
ATOM     13  C   UNL     1      -4.181  15.499  21.583  0.00  0.00    +0.000 C 
ATOM     14  C   UNL     1      -3.235  14.647  20.771  0.00  0.00    +0.000 C 
ENDBRANCH   8   9
BRANCH   1  16
ATOM     15  C   UNL     1      -0.819  13.162  18.792  0.00  0.00    +0.000 C 
ATOM     16  C   UNL     1      -1.510  12.035  19.055  0.00  0.00    +0.000 C 
BRANCH  16  17
ATOM     17  C   UNL     1      -2.330  11.387  17.922  0.00  0.00    +0.000 A 
ATOM     18  C   UNL     1      -1.795  10.391  17.071  0.00  0.00    +0.000 A 
ATOM     19  C   UNL     1      -2.515   9.889  15.968  0.00  0.00    +0.000 A 
ATOM     20  C   UNL     1      -3.807  10.317  15.689  0.00  0.00    +0.000 A 
ATOM     21  C   UNL     1      -4.401  11.231  16.566  0.00  0.00    +0.000 A 
ATOM     22  C   UNL     1      -3.681  11.745  17.652  0.00  0.00    +0.000 A 
ENDBRANCH  16  17
ENDBRANCH   1  16
BRANCH   7  23
ATOM     23  C   UNL     1      -3.316  12.998  23.724  0.00  0.00    +0.000 C 
BRANCH  23  24
ATOM     24  C   UNL     1      -3.007  14.272  24.537  0.00  0.00    +0.000 C 
BRANCH  24  25
ATOM     25  C   UNL     1      -1.514  14.715  24.420  0.00  0.00    +0.000 C 
BRANCH  25  26
ATOM     26  C   UNL     1      -1.288  16.147  23.894  0.00  0.00    +0.000 C 
BRANCH  26  27
ATOM     27  C   UNL     1      -0.625  16.176  22.505  0.00  0.00    +0.000 C 
ATOM     28  C   UNL     1       0.206  14.927  22.232  0.00  0.00    +0.000 C 
ENDBRANCH  26  27
ENDBRANCH  25  26
ENDBRANCH  24  25
ENDBRANCH  23  24
ENDBRANCH   7  23
TORSDOF 8
ENDMDL
MODEL 4
REMARK VINA RESULT:      -6.7      8.043     11.925
REMARK  Name = 
REMARK  9 active torsions:
REMARK  status: ('A' for Active; 'I' for Inactive)
REMARK    1  A    between atoms: C_2  and  C_3
REMARK    2  A    between atoms: C_2  and  C_9
REMARK    3  A    between atoms: C_15  and  C_16
REMARK    4  A    between atoms: C_16  and  C_17
REMARK    5  A    between atoms: C_17  and  C_18
REMARK    6  A    between atoms: C_18  and  C_19
REMARK    7  A    between atoms: C_19  and  C_20
REMARK    8  A    between atoms: C_20  and  C_21
REMARK    9  A    between atoms: C_22  and  C_23
REMARK                            x       y       z     vdW  Elec       q    Type
REMARK                         _______ _______ _______ _____ _____    ______ ____
ROOT
ATOM      1  C   UNL     1      -2.523  11.889  18.640  0.00  0.00    +0.000 C 
ATOM      2  C   UNL     1      -2.094  10.914  17.390  0.00  0.00    +0.000 C 
ATOM      3  C   UNL     1      -2.911  11.233  16.170  0.00  0.00    +0.000 C 
ATOM      4  C   UNL     1      -4.281  11.266  16.741  0.00  0.00    +0.000 C 
ATOM      5  C   UNL     1      -4.044  11.224  18.267  0.00  0.00    +0.000 C 
ATOM      6  C   UNL     1      -5.243  11.956  18.856  0.00  0.00    +0.000 C 
ATOM      7  C   UNL     1      -4.650  12.508  20.062  0.00  0.00    +0.000 C 
ATOM      8  C   UNL     1      -3.292  12.434  19.996  0.00  0.00    +0.000 C 
ENDROOT
BRANCH   8   9
ATOM      9  C   UNL     1      -2.464  13.004  21.168  0.00  0.00    +0.000 C 
ATOM     10  C   UNL     1      -2.505  14.526  21.301  0.00  0.00    +0.000 C 
ATOM     11  C   UNL     1      -3.032  15.134  22.588  0.00  0.00    +0.000 C 
ATOM     12  C   UNL     1      -3.352  14.244  23.779  0.00  0.00    +0.000 C 
ATOM     13  C   UNL     1      -3.334  12.736  23.629  0.00  0.00    +0.000 C 
ATOM     14  C   UNL     1      -2.627  12.147  22.432  0.00  0.00    +0.000 C 
ENDBRANCH   8   9
BRANCH   1  16
ATOM     15  C   UNL     1      -0.820  10.215  19.678  0.00  0.00    +0.000 C 
ATOM     16  C   UNL     1      -1.100  11.473  19.283  0.00  0.00    +0.000 C 
BRANCH  16  17
ATOM     17  C   UNL     1       0.003  12.545  19.387  0.00  0.00    +0.000 A 
ATOM     18  C   UNL     1       1.103  12.421  20.268  0.00  0.00    +0.000 A 
ATOM     19  C   UNL     1       2.042  13.458  20.437  0.00  0.00    +0.000 A 
ATOM     20  C   UNL     1       1.957  14.640  19.711  0.00  0.00    +0.000 A 
ATOM     21  C   UNL     1       0.936  14.758  18.762  0.00  0.00    +0.000 A 
ATOM     22  C   UNL     1      -0.009  13.735  18.605  0.00  0.00    +0.000 A 
ENDBRANCH  16  17
ENDBRANCH   1  16
BRANCH   7  23
ATOM     23  C   UNL     1      -5.538  13.231  21.073  0.00  0.00    +0.000 C 
BRANCH  23  24
ATOM     24  C   UNL     1      -6.477  14.402  20.720  0.00  0.00    +0.000 C 
BRANCH  24  25
ATOM     25  C   UNL     1      -5.755  15.535  19.922  0.00  0.00    +0.000 C 
BRANCH  25  26
ATOM     26  C   UNL     1      -6.442  15.961  18.609  0.00  0.00    +0.000 C 
BRANCH  26  27
ATOM     27  C   UNL     1      -7.315  14.847  18.004  0.00  0.00    +0.000 C 
ATOM     28  C   UNL     1      -6.887  14.477  16.587  0.00  0.00    +0.000 C 
ENDBRANCH  26  27
ENDBRANCH  25  26
ENDBRANCH  24  25
ENDBRANCH  23  24
ENDBRANCH   7  23
TORSDOF 8
ENDMDL
MODEL 5
REMARK VINA RESULT:      -6.6      7.436     11.948
REMARK  Name = 
REMARK  9 active torsions:
REMARK  status: ('A' for Active; 'I' for Inactive)
REMARK    1  A    between atoms: C_2  and  C_3
REMARK    2  A    between atoms: C_2  and  C_9
REMARK    3  A    between atoms: C_15  and  C_16
REMARK    4  A    between atoms: C_16  and  C_17
REMARK    5  A    between atoms: C_17  and  C_18
REMARK    6  A    between atoms: C_18  and  C_19
REMARK    7  A    between atoms: C_19  and  C_20
REMARK    8  A    between atoms: C_20  and  C_21
REMARK    9  A    between atoms: C_22  and  C_23
REMARK                            x       y       z     vdW  Elec       q    Type
REMARK                         _______ _______ _______ _____ _____    ______ ____
ROOT
ATOM      1  C   UNL     1      -1.334  11.148  20.749  0.00  0.00    +0.000 C 
ATOM      2  C   UNL     1      -0.293   9.925  20.405  0.00  0.00    +0.000 C 
ATOM      3  C   UNL     1      -0.459   8.800  21.387  0.00  0.00    +0.000 C 
ATOM      4  C   UNL     1      -0.446   9.539  22.675  0.00  0.00    +0.000 C 
ATOM      5  C   UNL     1      -0.542  11.021  22.250  0.00  0.00    +0.000 C 
ATOM      6  C   UNL     1      -1.237  11.706  23.419  0.00  0.00    +0.000 C 
ATOM      7  C   UNL     1      -1.921  12.784  22.727  0.00  0.00    +0.000 C 
ATOM      8  C   UNL     1      -1.933  12.549  21.386  0.00  0.00    +0.000 C 
ENDROOT
BRANCH   8   9
ATOM      9  C   UNL     1      -2.649  13.562  20.465  0.00  0.00    +0.000 C 
ATOM     10  C   UNL     1      -4.175  13.513  20.524  0.00  0.00    +0.000 C 
ATOM     11  C   UNL     1      -4.930  14.761  20.943  0.00  0.00    +0.000 C 
ATOM     12  C   UNL     1      -4.191  16.075  21.136  0.00  0.00    +0.000 C 
ATOM     13  C   UNL     1      -2.676  16.108  21.102  0.00  0.00    +0.000 C 
ATOM     14  C   UNL     1      -1.951  14.929  20.496  0.00  0.00    +0.000 C 
ENDBRANCH   8   9
BRANCH   1  16
ATOM     15  C   UNL     1      -0.027  12.419  18.890  0.00  0.00    +0.000 C 
ATOM     16  C   UNL     1      -1.066  11.631  19.230  0.00  0.00    +0.000 C 
BRANCH  16  17
ATOM     17  C   UNL     1      -1.999  11.113  18.118  0.00  0.00    +0.000 A 
ATOM     18  C   UNL     1      -1.612  10.094  17.216  0.00  0.00    +0.000 A 
ATOM     19  C   UNL     1      -2.427   9.709  16.133  0.00  0.00    +0.000 A 
ATOM     20  C   UNL     1      -3.676  10.282  15.925  0.00  0.00    +0.000 A 
ATOM     21  C   UNL     1      -4.130  11.226  16.853  0.00  0.00    +0.000 A 
ATOM     22  C   UNL     1      -3.313  11.623  17.919  0.00  0.00    +0.000 A 
ENDBRANCH  16  17
ENDBRANCH   1  16
BRANCH   7  23
ATOM     23  C   UNL     1      -2.661  13.846  23.536  0.00  0.00    +0.000 C 
BRANCH  23  24
ATOM     24  C   UNL     1      -3.752  13.536  24.582  0.00  0.00    +0.000 C 
BRANCH  24  25
ATOM     25  C   UNL     1      -4.877  12.607  24.024  0.00  0.00    +0.000 C 
BRANCH  25  26
ATOM     26  C   UNL     1      -6.289  13.227  23.987  0.00  0.00    +0.000 C 
BRANCH  26  27
ATOM     27  C   UNL     1      -7.361  12.237  23.495  0.00  0.00    +0.000 C 
ATOM     28  C   UNL     1      -7.494  12.230  21.976  0.00  0.00    +0.000 C 
ENDBRANCH  26  27
ENDBRANCH  25  26
ENDBRANCH  24  25
ENDBRANCH  23  24
ENDBRANCH   7  23
TORSDOF 8
ENDMDL
MODEL 6
REMARK VINA RESULT:      -6.5      7.826     11.527
REMARK  Name = 
REMARK  9 active torsions:
REMARK  status: ('A' for Active; 'I' for Inactive)
REMARK    1  A    between atoms: C_2  and  C_3
REMARK    2  A    between atoms: C_2  and  C_9
REMARK    3  A    between atoms: C_15  and  C_16
REMARK    4  A    between atoms: C_16  and  C_17
REMARK    5  A    between atoms: C_17  and  C_18
REMARK    6  A    between atoms: C_18  and  C_19
REMARK    7  A    between atoms: C_19  and  C_20
REMARK    8  A    between atoms: C_20  and  C_21
REMARK    9  A    between atoms: C_22  and  C_23
REMARK                            x       y       z     vdW  Elec       q    Type
REMARK                         _______ _______ _______ _____ _____    ______ ____
ROOT
ATOM      1  C   UNL     1      -1.419  13.034  22.146  0.00  0.00    +0.000 C 
ATOM      2  C   UNL     1      -2.435  12.076  23.011  0.00  0.00    +0.000 C 
ATOM      3  C   UNL     1      -3.558  12.889  23.591  0.00  0.00    +0.000 C 
ATOM      4  C   UNL     1      -2.813  14.027  24.185  0.00  0.00    +0.000 C 
ATOM      5  C   UNL     1      -1.379  13.854  23.636  0.00  0.00    +0.000 C 
ATOM      6  C   UNL     1      -0.818  15.270  23.592  0.00  0.00    +0.000 C 
ATOM      7  C   UNL     1       0.107  15.153  22.478  0.00  0.00    +0.000 C 
ATOM      8  C   UNL     1      -0.143  14.014  21.775  0.00  0.00    +0.000 C 
ENDROOT
BRANCH   8   9
ATOM      9  C   UNL     1       0.710  13.717  20.522  0.00  0.00    +0.000 C 
ATOM     10  C   UNL     1       0.374  14.573  19.302  0.00  0.00    +0.000 C 
ATOM     11  C   UNL     1       1.458  15.447  18.701  0.00  0.00    +0.000 C 
ATOM     12  C   UNL     1       2.891  15.343  19.202  0.00  0.00    +0.000 C 
ATOM     13  C   UNL     1       3.209  14.512  20.429  0.00  0.00    +0.000 C 
ATOM     14  C   UNL     1       2.185  13.504  20.892  0.00  0.00    +0.000 C 
ENDBRANCH   8   9
BRANCH   1  16
ATOM     15  C   UNL     1      -0.151  10.760  22.113  0.00  0.00    +0.000 C 
ATOM     16  C   UNL     1      -0.915  11.659  21.462  0.00  0.00    +0.000 C 
BRANCH  16  17
ATOM     17  C   UNL     1      -1.384  11.335  20.030  0.00  0.00    +0.000 A 
ATOM     18  C   UNL     1      -0.777  10.330  19.240  0.00  0.00    +0.000 A 
ATOM     19  C   UNL     1      -1.137  10.121  17.894  0.00  0.00    +0.000 A 
ATOM     20  C   UNL     1      -2.143  10.865  17.288  0.00  0.00    +0.000 A 
ATOM     21  C   UNL     1      -2.829  11.802  18.068  0.00  0.00    +0.000 A 
ATOM     22  C   UNL     1      -2.460  12.024  19.401  0.00  0.00    +0.000 A 
ENDBRANCH  16  17
ENDBRANCH   1  16
BRANCH   7  23
ATOM     23  C   UNL     1       1.027  16.324  22.139  0.00  0.00    +0.000 C 
BRANCH  23  24
ATOM     24  C   UNL     1       0.541  17.769  21.908  0.00  0.00    +0.000 C 
BRANCH  24  25
ATOM     25  C   UNL     1      -0.428  17.893  20.688  0.00  0.00    +0.000 C 
BRANCH  25  26
ATOM     26  C   UNL     1      -1.926  17.730  21.013  0.00  0.00    +0.000 C 
BRANCH  26  27
ATOM     27  C   UNL     1      -2.570  16.542  20.275  0.00  0.00    +0.000 C 
ATOM     28  C   UNL     1      -3.644  15.851  21.110  0.00  0.00    +0.000 C 
ENDBRANCH  26  27
ENDBRANCH  25  26
ENDBRANCH  24  25
ENDBRANCH  23  24
ENDBRANCH   7  23
TORSDOF 8
ENDMDL
MODEL 7
REMARK VINA RESULT:      -6.4      7.483     11.785
REMARK  Name = 
REMARK  9 active torsions:
REMARK  status: ('A' for Active; 'I' for Inactive)
REMARK    1  A    between atoms: C_2  and  C_3
REMARK    2  A    between atoms: C_2  and  C_9
REMARK    3  A    between atoms: C_15  and  C_16
REMARK    4  A    between atoms: C_16  and  C_17
REMARK    5  A    between atoms: C_17  and  C_18
REMARK    6  A    between atoms: C_18  and  C_19
REMARK    7  A    between atoms: C_19  and  C_20
REMARK    8  A    between atoms: C_20  and  C_21
REMARK    9  A    between atoms: C_22  and  C_23
REMARK                            x       y       z     vdW  Elec       q    Type
REMARK                         _______ _______ _______ _____ _____    ______ ____
ROOT
ATOM      1  C   UNL     1      -0.972  11.031  20.831  0.00  0.00    +0.000 C 
ATOM      2  C   UNL     1       0.415  10.156  20.740  0.00  0.00    +0.000 C 
ATOM      3  C   UNL     1       0.315   8.923  21.593  0.00  0.00    +0.000 C 
ATOM      4  C   UNL     1      -0.205   9.491  22.862  0.00  0.00    +0.000 C 
ATOM      5  C   UNL     1      -0.588  10.940  22.486  0.00  0.00    +0.000 C 
ATOM      6  C   UNL     1      -1.719  11.293  23.443  0.00  0.00    +0.000 C 
ATOM      7  C   UNL     1      -2.469  12.235  22.631  0.00  0.00    +0.000 C 
ATOM      8  C   UNL     1      -2.072  12.157  21.330  0.00  0.00    +0.000 C 
ENDROOT
BRANCH   8   9
ATOM      9  C   UNL     1      -2.775  13.054  20.288  0.00  0.00    +0.000 C 
ATOM     10  C   UNL     1      -4.155  12.566  19.851  0.00  0.00    +0.000 C 
ATOM     11  C   UNL     1      -5.354  13.468  20.075  0.00  0.00    +0.000 C 
ATOM     12  C   UNL     1      -5.159  14.892  20.570  0.00  0.00    +0.000 C 
ATOM     13  C   UNL     1      -3.791  15.358  21.027  0.00  0.00    +0.000 C 
ATOM     14  C   UNL     1      -2.587  14.542  20.620  0.00  0.00    +0.000 C 
ENDBRANCH   8   9
BRANCH   1  16
ATOM     15  C   UNL     1      -0.929  11.382  18.251  0.00  0.00    +0.000 C 
ATOM     16  C   UNL     1      -0.465  11.734  19.466  0.00  0.00    +0.000 C 
BRANCH  16  17
ATOM     17  C   UNL     1       0.540  12.898  19.567  0.00  0.00    +0.000 A 
ATOM     18  C   UNL     1       0.412  14.080  18.800  0.00  0.00    +0.000 A 
ATOM     19  C   UNL     1       1.397  15.088  18.815  0.00  0.00    +0.000 A 
ATOM     20  C   UNL     1       2.524  14.990  19.623  0.00  0.00    +0.000 A 
ATOM     21  C   UNL     1       2.635  13.878  20.465  0.00  0.00    +0.000 A 
ATOM     22  C   UNL     1       1.666  12.867  20.438  0.00  0.00    +0.000 A 
ENDBRANCH  16  17
ENDBRANCH   1  16
BRANCH   7  23
ATOM     23  C   UNL     1      -3.653  12.979  23.243  0.00  0.00    +0.000 C 
BRANCH  23  24
ATOM     24  C   UNL     1      -3.685  13.516  24.689  0.00  0.00    +0.000 C 
BRANCH  24  25
ATOM     25  C   UNL     1      -3.036  14.932  24.822  0.00  0.00    +0.000 C 
BRANCH  25  26
ATOM     26  C   UNL     1      -1.497  14.965  24.742  0.00  0.00    +0.000 C 
BRANCH  26  27
ATOM     27  C   UNL     1      -0.978  15.893  23.628  0.00  0.00    +0.000 C 
ATOM     28  C   UNL     1       0.049  15.208  22.732  0.00  0.00    +0.000 C 
ENDBRANCH  26  27
ENDBRANCH  25  26
ENDBRANCH  24  25
ENDBRANCH  23  24
ENDBRANCH   7  23
TORSDOF 8
ENDMDL
MODEL 8
REMARK VINA RESULT:      -6.4      7.892     12.320
REMARK  Name = 
REMARK  9 active torsions:
REMARK  status: ('A' for Active; 'I' for Inactive)
REMARK    1  A    between atoms: C_2  and  C_3
REMARK    2  A    between atoms: C_2  and  C_9
REMARK    3  A    between atoms: C_15  and  C_16
REMARK    4  A    between atoms: C_16  and  C_17
REMARK    5  A    between atoms: C_17  and  C_18
REMARK    6  A    between atoms: C_18  and  C_19
REMARK    7  A    between atoms: C_19  and  C_20
REMARK    8  A    between atoms: C_20  and  C_21
REMARK    9  A    between atoms: C_22  and  C_23
REMARK                            x       y       z     vdW  Elec       q    Type
REMARK                         _______ _______ _______ _____ _____    ______ ____
ROOT
ATOM      1  C   UNL     1      -2.327  11.798  18.584  0.00  0.00    +0.000 C 
ATOM      2  C   UNL     1      -1.877  10.791  17.367  0.00  0.00    +0.000 C 
ATOM      3  C   UNL     1      -2.655  11.094  16.118  0.00  0.00    +0.000 C 
ATOM      4  C   UNL     1      -4.039  11.158  16.649  0.00  0.00    +0.000 C 
ATOM      5  C   UNL     1      -3.846  11.146  18.182  0.00  0.00    +0.000 C 
ATOM      6  C   UNL     1      -5.051  11.906  18.721  0.00  0.00    +0.000 C 
ATOM      7  C   UNL     1      -4.485  12.476  19.931  0.00  0.00    +0.000 C 
ATOM      8  C   UNL     1      -3.127  12.383  19.905  0.00  0.00    +0.000 C 
ENDROOT
BRANCH   8   9
ATOM      9  C   UNL     1      -2.324  12.967  21.088  0.00  0.00    +0.000 C 
ATOM     10  C   UNL     1      -2.416  14.484  21.237  0.00  0.00    +0.000 C 
ATOM     11  C   UNL     1      -2.969  15.060  22.528  0.00  0.00    +0.000 C 
ATOM     12  C   UNL     1      -3.266  14.148  23.707  0.00  0.00    +0.000 C 
ATOM     13  C   UNL     1      -3.198  12.643  23.542  0.00  0.00    +0.000 C 
ATOM     14  C   UNL     1      -2.466  12.091  22.341  0.00  0.00    +0.000 C 
ENDBRANCH   8   9
BRANCH   1  16
ATOM     15  C   UNL     1      -0.668  10.119  19.682  0.00  0.00    +0.000 C 
ATOM     16  C   UNL     1      -0.929  11.377  19.276  0.00  0.00    +0.000 C 
BRANCH  16  17
ATOM     17  C   UNL     1       0.175  12.445  19.414  0.00  0.00    +0.000 A 
ATOM     18  C   UNL     1       0.222  13.598  18.595  0.00  0.00    +0.000 A 
ATOM     19  C   UNL     1       1.298  14.507  18.652  0.00  0.00    +0.000 A 
ATOM     20  C   UNL     1       2.345  14.338  19.550  0.00  0.00    +0.000 A 
ATOM     21  C   UNL     1       2.281  13.260  20.439  0.00  0.00    +0.000 A 
ATOM     22  C   UNL     1       1.223  12.345  20.372  0.00  0.00    +0.000 A 
ENDBRANCH  16  17
ENDBRANCH   1  16
BRANCH   7  23
ATOM     23  C   UNL     1      -5.390  13.232  20.901  0.00  0.00    +0.000 C 
BRANCH  23  24
ATOM     24  C   UNL     1      -6.593  12.603  21.634  0.00  0.00    +0.000 C 
BRANCH  24  25
ATOM     25  C   UNL     1      -7.583  13.672  22.198  0.00  0.00    +0.000 C 
BRANCH  25  26
ATOM     26  C   UNL     1      -6.997  15.086  22.381  0.00  0.00    +0.000 C 
BRANCH  26  27
ATOM     27  C   UNL     1      -6.659  15.406  23.848  0.00  0.00    +0.000 C 
ATOM     28  C   UNL     1      -5.964  16.755  24.005  0.00  0.00    +0.000 C 
ENDBRANCH  26  27
ENDBRANCH  25  26
ENDBRANCH  24  25
ENDBRANCH  23  24
ENDBRANCH   7  23
TORSDOF 8
ENDMDL
MODEL 9
REMARK VINA RESULT:      -6.4      7.327     11.661
REMARK  Name = 
REMARK  9 active torsions:
REMARK  status: ('A' for Active; 'I' for Inactive)
REMARK    1  A    between atoms: C_2  and  C_3
REMARK    2  A    between atoms: C_2  and  C_9
REMARK    3  A    between atoms: C_15  and  C_16
REMARK    4  A    between atoms: C_16  and  C_17
REMARK    5  A    between atoms: C_17  and  C_18
REMARK    6  A    between atoms: C_18  and  C_19
REMARK    7  A    between atoms: C_19  and  C_20
REMARK    8  A    between atoms: C_20  and  C_21
REMARK    9  A    between atoms: C_22  and  C_23
REMARK                            x       y       z     vdW  Elec       q    Type
REMARK                         _______ _______ _______ _____ _____    ______ ____
ROOT
ATOM      1  C   UNL     1      -5.068  12.518  19.771  0.00  0.00    +0.000 C 
ATOM      2  C   UNL     1      -6.436  12.354  18.877  0.00  0.00    +0.000 C 
ATOM      3  C   UNL     1      -6.548  10.955  18.339  0.00  0.00    +0.000 C 
ATOM      4  C   UNL     1      -5.187  10.750  17.785  0.00  0.00    +0.000 C 
ATOM      5  C   UNL     1      -4.388  11.961  18.314  0.00  0.00    +0.000 C 
ATOM      6  C   UNL     1      -2.954  11.457  18.410  0.00  0.00    +0.000 C 
ATOM      7  C   UNL     1      -2.460  12.266  19.510  0.00  0.00    +0.000 C 
ATOM      8  C   UNL     1      -3.500  12.848  20.170  0.00  0.00    +0.000 C 
ENDROOT
BRANCH   8   9
ATOM      9  C   UNL     1      -3.193  13.726  21.403  0.00  0.00    +0.000 C 
ATOM     10  C   UNL     1      -2.742  12.954  22.641  0.00  0.00    +0.000 C 
ATOM     11  C   UNL     1      -1.380  13.258  23.237  0.00  0.00    +0.000 C 
ATOM     12  C   UNL     1      -0.557  14.423  22.709  0.00  0.00    +0.000 C 
ATOM     13  C   UNL     1      -1.000  15.165  21.464  0.00  0.00    +0.000 C 
ATOM     14  C   UNL     1      -2.428  14.996  21.003  0.00  0.00    +0.000 C 
ENDBRANCH   8   9
BRANCH   1  16
ATOM     15  C   UNL     1      -5.935  14.973  19.709  0.00  0.00    +0.000 C 
ATOM     16  C   UNL     1      -5.788  13.823  20.396  0.00  0.00    +0.000 C 
BRANCH  16  17
ATOM     17  C   UNL     1      -6.391  13.723  21.811  0.00  0.00    +0.000 A 
ATOM     18  C   UNL     1      -6.950  12.525  22.316  0.00  0.00    +0.000 A 
ATOM     19  C   UNL     1      -7.601  12.475  23.565  0.00  0.00    +0.000 A 
ATOM     20  C   UNL     1      -7.685  13.594  24.385  0.00  0.00    +0.000 A 
ATOM     21  C   UNL     1      -7.060  14.771  23.958  0.00  0.00    +0.000 A 
ATOM     22  C   UNL     1      -6.429  14.827  22.709  0.00  0.00    +0.000 A 
ENDBRANCH  16  17
ENDBRANCH   1  16
BRANCH   7  23
ATOM     23  C   UNL     1      -0.982  12.201  19.887  0.00  0.00    +0.000 C 
BRANCH  23  24
ATOM     24  C   UNL     1       0.002  11.139  19.357  0.00  0.00    +0.000 C 
BRANCH  24  25
ATOM     25  C   UNL     1      -0.423   9.682  19.732  0.00  0.00    +0.000 C 
BRANCH  25  26
ATOM     26  C   UNL     1       0.333   9.058  20.922  0.00  0.00    +0.000 C 
BRANCH  26  27
ATOM     27  C   UNL     1       0.499  10.034  22.101  0.00  0.00    +0.000 C 
ATOM     28  C   UNL     1      -0.315   9.617  23.322  0.00  0.00    +0.000 C 
ENDBRANCH  26  27
ENDBRANCH  25  26
ENDBRANCH  24  25
ENDBRANCH  23  24
ENDBRANCH   7  23
TORSDOF 8
ENDMDL
