MODEL 1
REMARK VINA RESULT:      -9.0      0.000      0.000
REMARK  Name = 
REMARK  5 active torsions:
REMARK  status: ('A' for Active; 'I' for Inactive)
REMARK    1  A    between atoms: C_2  and  C_3
REMARK    2  A    between atoms: C_3  and  N_4
REMARK    3  A    between atoms: C_9  and  C_10
REMARK    4  A    between atoms: C_13  and  C_14
REMARK    5  A    between atoms: C_13  and  C_20
REMARK                            x       y       z     vdW  Elec       q    Type
REMARK                         _______ _______ _______ _____ _____    ______ ____
ROOT
ATOM      1  C   UNL     1       4.679   5.820  17.611  0.00  0.00    +0.000 C 
ATOM      2  C   UNL     1       5.204   6.024  19.018  0.00  0.00    +0.000 C 
ATOM      3  O   UNL     1       4.052   6.100  19.859  0.00  0.00    +0.000 OA
ATOM      4  C   UNL     1       2.911   6.286  18.994  0.00  0.00    +0.000 C 
ATOM      5  O   UNL     1       3.408   6.463  17.655  0.00  0.00    +0.000 OA
ENDROOT
BRANCH   1  11
ATOM      6  N   UNL     1       7.061   6.126  16.597  0.00  0.00    +0.000 NA
ATOM      7  C   UNL     1       7.407   4.697  16.587  0.00  0.00    +0.000 C 
ATOM      8  C   UNL     1       6.900   3.945  15.350  0.00  0.00    +0.000 C 
ATOM      9  C   UNL     1       5.497   4.316  14.886  0.00  0.00    +0.000 C 
ATOM     10  C   UNL     1       5.202   5.799  15.060  0.00  0.00    +0.000 C 
ATOM     11  C   UNL     1       5.587   6.345  16.452  0.00  0.00    +0.000 C 
BRANCH   6  12
ATOM     12  C   UNL     1       7.619   6.813  17.772  0.00  0.00    +0.000 C 
BRANCH  12  14
ATOM     13  C   UNL     1       8.520   9.087  18.385  0.00  0.00    +0.000 C 
ATOM     14  C   UNL     1       7.780   8.299  17.589  0.00  0.00    +0.000 C 
ENDBRANCH  12  14
ENDBRANCH   6  12
ENDBRANCH   1  11
BRANCH   4  15
ATOM     15  C   UNL     1       2.073   5.004  19.038  0.00  0.00    +0.000 A 
ATOM     16  C   UNL     1       1.666   4.440  20.261  0.00  0.00    +0.000 A 
ATOM     17  C   UNL     1       1.039   3.194  20.297  0.00  0.00    +0.000 A 
ATOM     18  C   UNL     1       0.797   2.497  19.117  0.00  0.00    +0.000 A 
ATOM     19  C   UNL     1       1.147   3.059  17.892  0.00  0.00    +0.000 A 
ATOM     20  C   UNL     1       1.763   4.310  17.852  0.00  0.00    +0.000 A 
ENDBRANCH   4  15
BRANCH   4  21
ATOM     21  C   UNL     1       2.130   7.537  19.396  0.00  0.00    +0.000 A 
ATOM     22  C   UNL     1       1.659   7.709  20.716  0.00  0.00    +0.000 A 
ATOM     23  C   UNL     1       0.930   8.846  21.084  0.00  0.00    +0.000 A 
ATOM     24  C   UNL     1       0.669   9.839  20.147  0.00  0.00    +0.000 A 
ATOM     25  C   UNL     1       1.133   9.697  18.842  0.00  0.00    +0.000 A 
ATOM     26  C   UNL     1       1.858   8.561  18.472  0.00  0.00    +0.000 A 
ENDBRANCH   4  21
TORSDOF 5
ENDMDL
MODEL 2
REMARK VINA RESULT:      -8.8      0.323      1.348
REMARK  Name = 
REMARK  5 active torsions:
REMARK  status: ('A' for Active; 'I' for Inactive)
REMARK    1  A    between atoms: C_2  and  C_3
REMARK    2  A    between atoms: C_3  and  N_4
REMARK    3  A    between atoms: C_9  and  C_10
REMARK    4  A    between atoms: C_13  and  C_14
REMARK    5  A    between atoms: C_13  and  C_20
REMARK                            x       y       z     vdW  Elec       q    Type
REMARK                         _______ _______ _______ _____ _____    ______ ____
ROOT
ATOM      1  C   UNL     1       4.787   5.726  17.620  0.00  0.00    +0.000 C 
ATOM      2  C   UNL     1       5.348   5.937  19.012  0.00  0.00    +0.000 C 
ATOM      3  O   UNL     1       4.224   5.925  19.894  0.00  0.00    +0.000 OA
ATOM      4  C   UNL     1       3.043   6.053  19.072  0.00  0.00    +0.000 C 
ATOM      5  O   UNL     1       3.480   6.286  17.721  0.00  0.00    +0.000 OA
ENDROOT
BRANCH   1  11
ATOM      6  N   UNL     1       7.105   6.162  16.510  0.00  0.00    +0.000 NA
ATOM      7  C   UNL     1       7.502   4.748  16.428  0.00  0.00    +0.000 C 
ATOM      8  C   UNL     1       6.964   4.024  15.187  0.00  0.00    +0.000 C 
ATOM      9  C   UNL     1       5.528   4.358  14.804  0.00  0.00    +0.000 C 
ATOM     10  C   UNL     1       5.187   5.820  15.049  0.00  0.00    +0.000 C 
ATOM     11  C   UNL     1       5.618   6.328  16.442  0.00  0.00    +0.000 C 
BRANCH   6  12
ATOM     12  C   UNL     1       7.692   6.826  17.683  0.00  0.00    +0.000 C 
BRANCH  12  14
ATOM     13  C   UNL     1       8.497   9.112  18.380  0.00  0.00    +0.000 C 
ATOM     14  C   UNL     1       7.804   8.321  17.546  0.00  0.00    +0.000 C 
ENDBRANCH  12  14
ENDBRANCH   6  12
ENDBRANCH   1  11
BRANCH   4  15
ATOM     15  C   UNL     1       2.289   4.721  19.119  0.00  0.00    +0.000 A 
ATOM     16  C   UNL     1       1.531   4.272  18.022  0.00  0.00    +0.000 A 
ATOM     17  C   UNL     1       0.725   3.138  18.128  0.00  0.00    +0.000 A 
ATOM     18  C   UNL     1       0.671   2.427  19.323  0.00  0.00    +0.000 A 
ATOM     19  C   UNL     1       1.453   2.824  20.406  0.00  0.00    +0.000 A 
ATOM     20  C   UNL     1       2.268   3.951  20.298  0.00  0.00    +0.000 A 
ENDBRANCH   4  15
BRANCH   4  21
ATOM     21  C   UNL     1       2.200   7.245  19.527  0.00  0.00    +0.000 A 
ATOM     22  C   UNL     1       1.947   8.332  18.661  0.00  0.00    +0.000 A 
ATOM     23  C   UNL     1       1.190   9.431  19.080  0.00  0.00    +0.000 A 
ATOM     24  C   UNL     1       0.658   9.464  20.364  0.00  0.00    +0.000 A 
ATOM     25  C   UNL     1       0.884   8.398  21.232  0.00  0.00    +0.000 A 
ATOM     26  C   UNL     1       1.643   7.300  20.817  0.00  0.00    +0.000 A 
ENDBRANCH   4  21
TORSDOF 5
ENDMDL
MODEL 3
REMARK VINA RESULT:      -8.7      0.976      2.668
REMARK  Name = 
REMARK  5 active torsions:
REMARK  status: ('A' for Active; 'I' for Inactive)
REMARK    1  A    between atoms: C_2  and  C_3
REMARK    2  A    between atoms: C_3  and  N_4
REMARK    3  A    between atoms: C_9  and  C_10
REMARK    4  A    between atoms: C_13  and  C_14
REMARK    5  A    between atoms: C_13  and  C_20
REMARK                            x       y       z     vdW  Elec       q    Type
REMARK                         _______ _______ _______ _____ _____    ______ ____
ROOT
ATOM      1  C   UNL     1       5.246   4.639  18.233  0.00  0.00    +0.000 C 
ATOM      2  C   UNL     1       5.467   5.135  19.648  0.00  0.00    +0.000 C 
ATOM      3  O   UNL     1       4.183   5.545  20.124  0.00  0.00    +0.000 OA
ATOM      4  C   UNL     1       3.314   5.626  18.973  0.00  0.00    +0.000 C 
ATOM      5  O   UNL     1       4.122   5.404  17.804  0.00  0.00    +0.000 OA
ENDROOT
BRANCH   1  11
ATOM      6  N   UNL     1       6.405   5.828  16.223  0.00  0.00    +0.000 NA
ATOM      7  C   UNL     1       6.410   7.171  16.824  0.00  0.00    +0.000 C 
ATOM      8  C   UNL     1       7.601   7.429  17.755  0.00  0.00    +0.000 C 
ATOM      9  C   UNL     1       7.988   6.268  18.663  0.00  0.00    +0.000 C 
ATOM     10  C   UNL     1       7.822   4.918  17.981  0.00  0.00    +0.000 C 
ATOM     11  C   UNL     1       6.466   4.752  17.262  0.00  0.00    +0.000 C 
BRANCH   6  12
ATOM     12  C   UNL     1       5.278   5.651  15.295  0.00  0.00    +0.000 C 
BRANCH  12  14
ATOM     13  C   UNL     1       6.357   4.046  13.677  0.00  0.00    +0.000 C 
ATOM     14  C   UNL     1       5.344   4.379  14.492  0.00  0.00    +0.000 C 
ENDBRANCH  12  14
ENDBRANCH   6  12
ENDBRANCH   1  11
BRANCH   4  15
ATOM     15  C   UNL     1       2.287   4.495  19.079  0.00  0.00    +0.000 A 
ATOM     16  C   UNL     1       1.818   4.048  20.328  0.00  0.00    +0.000 A 
ATOM     17  C   UNL     1       1.004   2.918  20.422  0.00  0.00    +0.000 A 
ATOM     18  C   UNL     1       0.636   2.224  19.273  0.00  0.00    +0.000 A 
ATOM     19  C   UNL     1       1.046   2.678  18.022  0.00  0.00    +0.000 A 
ATOM     20  C   UNL     1       1.850   3.814  17.926  0.00  0.00    +0.000 A 
ENDBRANCH   4  15
BRANCH   4  21
ATOM     21  C   UNL     1       2.681   7.015  18.876  0.00  0.00    +0.000 A 
ATOM     22  C   UNL     1       1.971   7.570  19.963  0.00  0.00    +0.000 A 
ATOM     23  C   UNL     1       1.378   8.834  19.871  0.00  0.00    +0.000 A 
ATOM     24  C   UNL     1       1.492   9.575  18.700  0.00  0.00    +0.000 A 
ATOM     25  C   UNL     1       2.198   9.053  17.619  0.00  0.00    +0.000 A 
ATOM     26  C   UNL     1       2.789   7.789  17.707  0.00  0.00    +0.000 A 
ENDBRANCH   4  21
TORSDOF 5
ENDMDL
MODEL 4
REMARK VINA RESULT:      -8.5      1.014      2.987
REMARK  Name = 
REMARK  5 active torsions:
REMARK  status: ('A' for Active; 'I' for Inactive)
REMARK    1  A    between atoms: C_2  and  C_3
REMARK    2  A    between atoms: C_3  and  N_4
REMARK    3  A    between atoms: C_9  and  C_10
REMARK    4  A    between atoms: C_13  and  C_14
REMARK    5  A    between atoms: C_13  and  C_20
REMARK                            x       y       z     vdW  Elec       q    Type
REMARK                         _______ _______ _______ _____ _____    ______ ____
ROOT
ATOM      1  C   UNL     1       5.400   4.605  18.212  0.00  0.00    +0.000 C 
ATOM      2  C   UNL     1       5.626   5.110  19.623  0.00  0.00    +0.000 C 
ATOM      3  O   UNL     1       4.334   5.453  20.128  0.00  0.00    +0.000 OA
ATOM      4  C   UNL     1       3.437   5.492  18.996  0.00  0.00    +0.000 C 
ATOM      5  O   UNL     1       4.230   5.313  17.810  0.00  0.00    +0.000 OA
ENDROOT
BRANCH   1  11
ATOM      6  N   UNL     1       6.466   5.873  16.199  0.00  0.00    +0.000 NA
ATOM      7  C   UNL     1       6.434   7.204  16.824  0.00  0.00    +0.000 C 
ATOM      8  C   UNL     1       7.637   7.490  17.732  0.00  0.00    +0.000 C 
ATOM      9  C   UNL     1       8.088   6.329  18.610  0.00  0.00    +0.000 C 
ATOM     10  C   UNL     1       7.958   4.986  17.906  0.00  0.00    +0.000 C 
ATOM     11  C   UNL     1       6.592   4.782  17.216  0.00  0.00    +0.000 C 
BRANCH   6  12
ATOM     12  C   UNL     1       5.324   5.669  15.294  0.00  0.00    +0.000 C 
BRANCH  12  14
ATOM     13  C   UNL     1       6.418   4.082  13.669  0.00  0.00    +0.000 C 
ATOM     14  C   UNL     1       5.404   4.400  14.489  0.00  0.00    +0.000 C 
ENDBRANCH  12  14
ENDBRANCH   6  12
ENDBRANCH   1  11
BRANCH   4  15
ATOM     15  C   UNL     1       2.471   4.310  19.121  0.00  0.00    +0.000 A 
ATOM     16  C   UNL     1       1.698   3.881  18.026  0.00  0.00    +0.000 A 
ATOM     17  C   UNL     1       0.711   2.908  18.189  0.00  0.00    +0.000 A 
ATOM     18  C   UNL     1       0.487   2.339  19.439  0.00  0.00    +0.000 A 
ATOM     19  C   UNL     1       1.275   2.713  20.526  0.00  0.00    +0.000 A 
ATOM     20  C   UNL     1       2.269   3.677  20.363  0.00  0.00    +0.000 A 
ENDBRANCH   4  15
BRANCH   4  21
ATOM     21  C   UNL     1       2.733   6.847  18.916  0.00  0.00    +0.000 A 
ATOM     22  C   UNL     1       2.783   7.625  17.739  0.00  0.00    +0.000 A 
ATOM     23  C   UNL     1       2.154   8.873  17.668  0.00  0.00    +0.000 A 
ATOM     24  C   UNL     1       1.451   9.363  18.762  0.00  0.00    +0.000 A 
ATOM     25  C   UNL     1       1.377   8.608  19.930  0.00  0.00    +0.000 A 
ATOM     26  C   UNL     1       2.008   7.363  20.005  0.00  0.00    +0.000 A 
ENDBRANCH   4  21
TORSDOF 5
ENDMDL
MODEL 5
REMARK VINA RESULT:      -8.5      1.306      4.494
REMARK  Name = 
REMARK  5 active torsions:
REMARK  status: ('A' for Active; 'I' for Inactive)
REMARK    1  A    between atoms: C_2  and  C_3
REMARK    2  A    between atoms: C_3  and  N_4
REMARK    3  A    between atoms: C_9  and  C_10
REMARK    4  A    between atoms: C_13  and  C_14
REMARK    5  A    between atoms: C_13  and  C_20
REMARK                            x       y       z     vdW  Elec       q    Type
REMARK                         _______ _______ _______ _____ _____    ______ ____
ROOT
ATOM      1  C   UNL     1       4.984   5.392  17.472  0.00  0.00    +0.000 C 
ATOM      2  C   UNL     1       3.938   4.685  16.633  0.00  0.00    +0.000 C 
ATOM      3  O   UNL     1       2.714   4.787  17.363  0.00  0.00    +0.000 OA
ATOM      4  C   UNL     1       3.057   5.209  18.701  0.00  0.00    +0.000 C 
ATOM      5  O   UNL     1       4.493   5.215  18.798  0.00  0.00    +0.000 OA
ENDROOT
BRANCH   1  11
ATOM      6  N   UNL     1       7.350   5.739  16.435  0.00  0.00    +0.000 NA
ATOM      7  C   UNL     1       7.574   7.073  17.012  0.00  0.00    +0.000 C 
ATOM      8  C   UNL     1       8.127   7.045  18.443  0.00  0.00    +0.000 C 
ATOM      9  C   UNL     1       7.519   5.992  19.361  0.00  0.00    +0.000 C 
ATOM     10  C   UNL     1       7.209   4.694  18.629  0.00  0.00    +0.000 C 
ATOM     11  C   UNL     1       6.458   4.901  17.297  0.00  0.00    +0.000 C 
BRANCH   6  12
ATOM     12  C   UNL     1       6.876   5.820  15.045  0.00  0.00    +0.000 C 
BRANCH  12  14
ATOM     13  C   UNL     1       5.961   3.942  13.632  0.00  0.00    +0.000 C 
ATOM     14  C   UNL     1       6.978   4.521  14.291  0.00  0.00    +0.000 C 
ENDBRANCH  12  14
ENDBRANCH   6  12
ENDBRANCH   1  11
BRANCH   4  15
ATOM     15  C   UNL     1       2.549   6.641  18.888  0.00  0.00    +0.000 A 
ATOM     16  C   UNL     1       2.150   7.115  20.151  0.00  0.00    +0.000 A 
ATOM     17  C   UNL     1       1.545   8.365  20.285  0.00  0.00    +0.000 A 
ATOM     18  C   UNL     1       1.338   9.167  19.166  0.00  0.00    +0.000 A 
ATOM     19  C   UNL     1       1.772   8.739  17.913  0.00  0.00    +0.000 A 
ATOM     20  C   UNL     1       2.387   7.494  17.779  0.00  0.00    +0.000 A 
ENDBRANCH   4  15
BRANCH   4  21
ATOM     21  C   UNL     1       2.500   4.226  19.732  0.00  0.00    +0.000 A 
ATOM     22  C   UNL     1       1.121   3.928  19.783  0.00  0.00    +0.000 A 
ATOM     23  C   UNL     1       0.606   3.041  20.736  0.00  0.00    +0.000 A 
ATOM     24  C   UNL     1       1.456   2.425  21.646  0.00  0.00    +0.000 A 
ATOM     25  C   UNL     1       2.822   2.694  21.608  0.00  0.00    +0.000 A 
ATOM     26  C   UNL     1       3.338   3.582  20.659  0.00  0.00    +0.000 A 
ENDBRANCH   4  21
TORSDOF 5
ENDMDL
MODEL 6
REMARK VINA RESULT:      -8.3      1.373      4.601
REMARK  Name = 
REMARK  5 active torsions:
REMARK  status: ('A' for Active; 'I' for Inactive)
REMARK    1  A    between atoms: C_2  and  C_3
REMARK    2  A    between atoms: C_3  and  N_4
REMARK    3  A    between atoms: C_9  and  C_10
REMARK    4  A    between atoms: C_13  and  C_14
REMARK    5  A    between atoms: C_13  and  C_20
REMARK                            x       y       z     vdW  Elec       q    Type
REMARK                         _______ _______ _______ _____ _____    ______ ____
ROOT
ATOM      1  C   UNL     1       4.951   5.244  17.367  0.00  0.00    +0.000 C 
ATOM      2  C   UNL     1       3.934   4.450  16.572  0.00  0.00    +0.000 C 
ATOM      3  O   UNL     1       2.710   4.534  17.304  0.00  0.00    +0.000 OA
ATOM      4  C   UNL     1       3.040   5.039  18.617  0.00  0.00    +0.000 C 
ATOM      5  O   UNL     1       4.474   5.114  18.704  0.00  0.00    +0.000 OA
ENDROOT
BRANCH   1  11
ATOM      6  N   UNL     1       7.312   5.683  16.355  0.00  0.00    +0.000 NA
ATOM      7  C   UNL     1       7.479   7.025  16.933  0.00  0.00    +0.000 C 
ATOM      8  C   UNL     1       8.018   7.019  18.369  0.00  0.00    +0.000 C 
ATOM      9  C   UNL     1       7.441   5.943  19.282  0.00  0.00    +0.000 C 
ATOM     10  C   UNL     1       7.189   4.634  18.548  0.00  0.00    +0.000 C 
ATOM     11  C   UNL     1       6.444   4.811  17.208  0.00  0.00    +0.000 C 
BRANCH   6  12
ATOM     12  C   UNL     1       6.850   5.745  14.960  0.00  0.00    +0.000 C 
BRANCH  12  14
ATOM     13  C   UNL     1       5.964   3.838  13.568  0.00  0.00    +0.000 C 
ATOM     14  C   UNL     1       6.972   4.439  14.220  0.00  0.00    +0.000 C 
ENDBRANCH  12  14
ENDBRANCH   6  12
ENDBRANCH   1  11
BRANCH   4  15
ATOM     15  C   UNL     1       2.469   6.456  18.734  0.00  0.00    +0.000 A 
ATOM     16  C   UNL     1       2.387   7.304  17.614  0.00  0.00    +0.000 A 
ATOM     17  C   UNL     1       2.012   8.640  17.758  0.00  0.00    +0.000 A 
ATOM     18  C   UNL     1       1.703   9.149  19.016  0.00  0.00    +0.000 A 
ATOM     19  C   UNL     1       1.729   8.314  20.131  0.00  0.00    +0.000 A 
ATOM     20  C   UNL     1       2.092   6.975  19.987  0.00  0.00    +0.000 A 
ENDBRANCH   4  15
BRANCH   4  21
ATOM     21  C   UNL     1       2.531   4.087  19.701  0.00  0.00    +0.000 A 
ATOM     22  C   UNL     1       3.427   3.438  20.578  0.00  0.00    +0.000 A 
ATOM     23  C   UNL     1       2.966   2.554  21.560  0.00  0.00    +0.000 A 
ATOM     24  C   UNL     1       1.605   2.310  21.696  0.00  0.00    +0.000 A 
ATOM     25  C   UNL     1       0.701   2.948  20.849  0.00  0.00    +0.000 A 
ATOM     26  C   UNL     1       1.160   3.829  19.865  0.00  0.00    +0.000 A 
ENDBRANCH   4  21
TORSDOF 5
ENDMDL
MODEL 7
REMARK VINA RESULT:      -8.3      2.622      5.606
REMARK  Name = 
REMARK  5 active torsions:
REMARK  status: ('A' for Active; 'I' for Inactive)
REMARK    1  A    between atoms: C_2  and  C_3
REMARK    2  A    between atoms: C_3  and  N_4
REMARK    3  A    between atoms: C_9  and  C_10
REMARK    4  A    between atoms: C_13  and  C_14
REMARK    5  A    between atoms: C_13  and  C_20
REMARK                            x       y       z     vdW  Elec       q    Type
REMARK                         _______ _______ _______ _____ _____    ______ ____
ROOT
ATOM      1  C   UNL     1       4.067   3.285  18.352  0.00  0.00    +0.000 C 
ATOM      2  C   UNL     1       3.530   3.686  16.993  0.00  0.00    +0.000 C 
ATOM      3  O   UNL     1       3.754   5.093  16.882  0.00  0.00    +0.000 OA
ATOM      4  C   UNL     1       4.076   5.573  18.206  0.00  0.00    +0.000 C 
ATOM      5  O   UNL     1       3.900   4.475  19.119  0.00  0.00    +0.000 OA
ENDROOT
BRANCH   1  11
ATOM      6  N   UNL     1       3.615   1.860  20.487  0.00  0.00    +0.000 NA
ATOM      7  C   UNL     1       2.988   2.942  21.262  0.00  0.00    +0.000 C 
ATOM      8  C   UNL     1       1.491   3.121  20.978  0.00  0.00    +0.000 C 
ATOM      9  C   UNL     1       1.081   2.996  19.516  0.00  0.00    +0.000 C 
ATOM     10  C   UNL     1       1.883   1.933  18.778  0.00  0.00    +0.000 C 
ATOM     11  C   UNL     1       3.405   2.034  19.015  0.00  0.00    +0.000 C 
BRANCH   6  12
ATOM     12  C   UNL     1       5.033   1.691  20.838  0.00  0.00    +0.000 C 
BRANCH  12  14
ATOM     13  C   UNL     1       6.316   0.054  22.264  0.00  0.00    +0.000 C 
ATOM     14  C   UNL     1       5.376   0.314  21.342  0.00  0.00    +0.000 C 
ENDBRANCH  12  14
ENDBRANCH   6  12
ENDBRANCH   1  11
BRANCH   4  15
ATOM     15  C   UNL     1       5.553   5.981  18.212  0.00  0.00    +0.000 A 
ATOM     16  C   UNL     1       6.443   5.485  19.182  0.00  0.00    +0.000 A 
ATOM     17  C   UNL     1       7.744   5.979  19.275  0.00  0.00    +0.000 A 
ATOM     18  C   UNL     1       8.182   6.967  18.397  0.00  0.00    +0.000 A 
ATOM     19  C   UNL     1       7.334   7.436  17.397  0.00  0.00    +0.000 A 
ATOM     20  C   UNL     1       6.036   6.934  17.295  0.00  0.00    +0.000 A 
ENDBRANCH   4  15
BRANCH   4  21
ATOM     21  C   UNL     1       3.131   6.704  18.611  0.00  0.00    +0.000 A 
ATOM     22  C   UNL     1       2.833   7.759  17.721  0.00  0.00    +0.000 A 
ATOM     23  C   UNL     1       1.981   8.804  18.095  0.00  0.00    +0.000 A 
ATOM     24  C   UNL     1       1.398   8.811  19.357  0.00  0.00    +0.000 A 
ATOM     25  C   UNL     1       1.667   7.775  20.248  0.00  0.00    +0.000 A 
ATOM     26  C   UNL     1       2.521   6.732  19.878  0.00  0.00    +0.000 A 
ENDBRANCH   4  21
TORSDOF 5
ENDMDL
MODEL 8
REMARK VINA RESULT:      -8.0      1.880      6.988
REMARK  Name = 
REMARK  5 active torsions:
REMARK  status: ('A' for Active; 'I' for Inactive)
REMARK    1  A    between atoms: C_2  and  C_3
REMARK    2  A    between atoms: C_3  and  N_4
REMARK    3  A    between atoms: C_9  and  C_10
REMARK    4  A    between atoms: C_13  and  C_14
REMARK    5  A    between atoms: C_13  and  C_20
REMARK                            x       y       z     vdW  Elec       q    Type
REMARK                         _______ _______ _______ _____ _____    ______ ____
ROOT
ATOM      1  C   UNL     1       3.979   5.560  18.492  0.00  0.00    +0.000 C 
ATOM      2  C   UNL     1       4.589   4.194  18.738  0.00  0.00    +0.000 C 
ATOM      3  O   UNL     1       5.820   4.178  18.014  0.00  0.00    +0.000 OA
ATOM      4  C   UNL     1       5.794   5.307  17.113  0.00  0.00    +0.000 C 
ATOM      5  O   UNL     1       4.487   5.902  17.205  0.00  0.00    +0.000 OA
ENDROOT
BRANCH   1  11
ATOM      6  N   UNL     1       1.834   5.968  19.914  0.00  0.00    +0.000 NA
ATOM      7  C   UNL     1       2.205   7.318  20.366  0.00  0.00    +0.000 C 
ATOM      8  C   UNL     1       1.842   8.426  19.369  0.00  0.00    +0.000 C 
ATOM      9  C   UNL     1       2.092   8.099  17.902  0.00  0.00    +0.000 C 
ATOM     10  C   UNL     1       1.796   6.642  17.575  0.00  0.00    +0.000 C 
ATOM     11  C   UNL     1       2.421   5.646  18.576  0.00  0.00    +0.000 C 
BRANCH   6  12
ATOM     12  C   UNL     1       2.149   4.950  20.927  0.00  0.00    +0.000 C 
BRANCH  12  14
ATOM     13  C   UNL     1       1.565   2.554  21.454  0.00  0.00    +0.000 C 
ATOM     14  C   UNL     1       1.294   3.714  20.835  0.00  0.00    +0.000 C 
ENDBRANCH  12  14
ENDBRANCH   6  12
ENDBRANCH   1  11
BRANCH   4  15
ATOM     15  C   UNL     1       6.829   6.325  17.603  0.00  0.00    +0.000 A 
ATOM     16  C   UNL     1       7.709   6.020  18.657  0.00  0.00    +0.000 A 
ATOM     17  C   UNL     1       8.540   7.002  19.198  0.00  0.00    +0.000 A 
ATOM     18  C   UNL     1       8.515   8.298  18.690  0.00  0.00    +0.000 A 
ATOM     19  C   UNL     1       7.687   8.609  17.614  0.00  0.00    +0.000 A 
ATOM     20  C   UNL     1       6.865   7.626  17.064  0.00  0.00    +0.000 A 
ENDBRANCH   4  15
BRANCH   4  21
ATOM     21  C   UNL     1       6.024   4.850  15.672  0.00  0.00    +0.000 A 
ATOM     22  C   UNL     1       7.259   5.074  15.026  0.00  0.00    +0.000 A 
ATOM     23  C   UNL     1       7.468   4.671  13.702  0.00  0.00    +0.000 A 
ATOM     24  C   UNL     1       6.455   4.024  13.002  0.00  0.00    +0.000 A 
ATOM     25  C   UNL     1       5.232   3.782  13.623  0.00  0.00    +0.000 A 
ATOM     26  C   UNL     1       5.021   4.187  14.944  0.00  0.00    +0.000 A 
ENDBRANCH   4  21
TORSDOF 5
ENDMDL
MODEL 9
REMARK VINA RESULT:      -8.0      1.919      7.078
REMARK  Name = 
REMARK  5 active torsions:
REMARK  status: ('A' for Active; 'I' for Inactive)
REMARK    1  A    between atoms: C_2  and  C_3
REMARK    2  A    between atoms: C_3  and  N_4
REMARK    3  A    between atoms: C_9  and  C_10
REMARK    4  A    between atoms: C_13  and  C_14
REMARK    5  A    between atoms: C_13  and  C_20
REMARK                            x       y       z     vdW  Elec       q    Type
REMARK                         _______ _______ _______ _____ _____    ______ ____
ROOT
ATOM      1  C   UNL     1       3.880   5.421  18.073  0.00  0.00    +0.000 C 
ATOM      2  C   UNL     1       4.410   4.013  18.258  0.00  0.00    +0.000 C 
ATOM      3  O   UNL     1       5.682   3.984  17.608  0.00  0.00    +0.000 OA
ATOM      4  C   UNL     1       5.763   5.170  16.789  0.00  0.00    +0.000 C 
ATOM      5  O   UNL     1       4.482   5.823  16.845  0.00  0.00    +0.000 OA
ENDROOT
BRANCH   1  11
ATOM      6  N   UNL     1       1.597   5.107  19.290  0.00  0.00    +0.000 NA
ATOM      7  C   UNL     1       1.949   5.896  20.480  0.00  0.00    +0.000 C 
ATOM      8  C   UNL     1       1.731   7.405  20.309  0.00  0.00    +0.000 C 
ATOM      9  C   UNL     1       2.140   7.979  18.958  0.00  0.00    +0.000 C 
ATOM     10  C   UNL     1       1.846   7.024  17.810  0.00  0.00    +0.000 C 
ATOM     11  C   UNL     1       2.325   5.580  18.071  0.00  0.00    +0.000 C 
BRANCH   6  12
ATOM     12  C   UNL     1       1.767   3.665  19.523  0.00  0.00    +0.000 C 
BRANCH  12  14
ATOM     13  C   UNL     1       1.803   2.509  21.764  0.00  0.00    +0.000 C 
ATOM     14  C   UNL     1       1.144   3.178  20.804  0.00  0.00    +0.000 C 
ENDBRANCH  12  14
ENDBRANCH   6  12
ENDBRANCH   1  11
BRANCH   4  15
ATOM     15  C   UNL     1       6.812   6.099  17.408  0.00  0.00    +0.000 A 
ATOM     16  C   UNL     1       7.604   5.685  18.494  0.00  0.00    +0.000 A 
ATOM     17  C   UNL     1       8.444   6.586  19.149  0.00  0.00    +0.000 A 
ATOM     18  C   UNL     1       8.516   7.910  18.726  0.00  0.00    +0.000 A 
ATOM     19  C   UNL     1       7.779   8.330  17.620  0.00  0.00    +0.000 A 
ATOM     20  C   UNL     1       6.948   7.427  16.957  0.00  0.00    +0.000 A 
ENDBRANCH   4  15
BRANCH   4  21
ATOM     21  C   UNL     1       6.061   4.799  15.335  0.00  0.00    +0.000 A 
ATOM     22  C   UNL     1       5.120   4.092  14.557  0.00  0.00    +0.000 A 
ATOM     23  C   UNL     1       5.396   3.736  13.232  0.00  0.00    +0.000 A 
ATOM     24  C   UNL     1       6.609   4.090  12.653  0.00  0.00    +0.000 A 
ATOM     25  C   UNL     1       7.549   4.799  13.398  0.00  0.00    +0.000 A 
ATOM     26  C   UNL     1       7.276   5.152  14.723  0.00  0.00    +0.000 A 
ENDBRANCH   4  21
TORSDOF 5
ENDMDL
