MODEL 1
REMARK VINA RESULT:      -7.0      0.000      0.000
REMARK  Name = 
REMARK  8 active torsions:
REMARK  status: ('A' for Active; 'I' for Inactive)
REMARK    1  A    between atoms: C_1  and  O_2
REMARK    2  A    between atoms: O_2  and  C_3
REMARK    3  A    between atoms: C_6  and  C_7
REMARK    4  A    between atoms: C_8  and  C_9
REMARK    5  A    between atoms: C_9  and  C_12
REMARK    6  A    between atoms: N_10  and  O_11
REMARK    7  A    between atoms: C_15  and  O_16
REMARK    8  A    between atoms: O_16  and  C_17
REMARK                            x       y       z     vdW  Elec       q    Type
REMARK                         _______ _______ _______ _____ _____    ______ ____
ROOT
ATOM      1  C   UNL     1       4.388   4.335  18.870  0.00  0.00    +0.000 C 
ATOM      2  N   UNL     1       4.380   3.139  19.372  0.00  0.00    +0.000 NA
ENDROOT
BRANCH   1   3
ATOM      3  C   UNL     1       5.271   4.555  17.669  0.00  0.00    +0.000 A 
ATOM      4  C   UNL     1       6.375   5.404  17.760  0.00  0.00    +0.000 A 
ATOM      5  C   UNL     1       7.184   5.633  16.650  0.00  0.00    +0.000 A 
ATOM      6  C   UNL     1       6.931   4.988  15.443  0.00  0.00    +0.000 A 
ATOM      7  C   UNL     1       5.833   4.128  15.338  0.00  0.00    +0.000 A 
ATOM      8  C   UNL     1       5.005   3.907  16.451  0.00  0.00    +0.000 A 
BRANCH   6   9
ATOM      9  O   UNL     1       7.787   5.316  14.428  0.00  0.00    +0.000 OA
ATOM     10  C   UNL     1       7.403   4.903  13.126  0.00  0.00    +0.000 C 
ENDBRANCH   6   9
ENDBRANCH   1   3
BRANCH   1  12
ATOM     11  C   UNL     1       2.974   6.392  18.420  0.00  0.00    +0.000 C 
ATOM     12  C   UNL     1       3.582   5.558  19.266  0.00  0.00    +0.000 C 
BRANCH  11  16
ATOM     13  C   UNL     1       0.800   9.894  19.675  0.00  0.00    +0.000 A 
ATOM     14  C   UNL     1       1.101   8.869  20.566  0.00  0.00    +0.000 A 
ATOM     15  C   UNL     1       1.829   7.752  20.142  0.00  0.00    +0.000 A 
ATOM     16  C   UNL     1       2.233   7.615  18.804  0.00  0.00    +0.000 A 
ATOM     17  C   UNL     1       1.932   8.655  17.918  0.00  0.00    +0.000 A 
ATOM     18  C   UNL     1       1.217   9.784  18.350  0.00  0.00    +0.000 A 
BRANCH  13  20
ATOM     19  C   UNL     1       0.867  11.995  20.739  0.00  0.00    +0.000 C 
ATOM     20  O   UNL     1       0.085  10.939  20.188  0.00  0.00    +0.000 OA
ENDBRANCH  13  20
ENDBRANCH  11  16
ENDBRANCH   1  12
BRANCH   2  21
ATOM     21  O   UNL     1       3.486   2.973  20.430  0.00  0.00    +0.000 OA
ATOM     22  H   UNL     1       3.955   3.421  21.160  0.00  0.00    +0.000 HD
ENDBRANCH   2  21
TORSDOF 6
ENDMDL
MODEL 2
REMARK VINA RESULT:      -7.0      0.784      1.315
REMARK  Name = 
REMARK  8 active torsions:
REMARK  status: ('A' for Active; 'I' for Inactive)
REMARK    1  A    between atoms: C_1  and  O_2
REMARK    2  A    between atoms: O_2  and  C_3
REMARK    3  A    between atoms: C_6  and  C_7
REMARK    4  A    between atoms: C_8  and  C_9
REMARK    5  A    between atoms: C_9  and  C_12
REMARK    6  A    between atoms: N_10  and  O_11
REMARK    7  A    between atoms: C_15  and  O_16
REMARK    8  A    between atoms: O_16  and  C_17
REMARK                            x       y       z     vdW  Elec       q    Type
REMARK                         _______ _______ _______ _____ _____    ______ ____
ROOT
ATOM      1  C   UNL     1       4.031   4.156  19.352  0.00  0.00    +0.000 C 
ATOM      2  N   UNL     1       3.948   2.980  19.893  0.00  0.00    +0.000 NA
ENDROOT
BRANCH   1   3
ATOM      3  C   UNL     1       4.968   4.293  18.180  0.00  0.00    +0.000 A 
ATOM      4  C   UNL     1       6.257   4.792  18.370  0.00  0.00    +0.000 A 
ATOM      5  C   UNL     1       7.123   4.946  17.291  0.00  0.00    +0.000 A 
ATOM      6  C   UNL     1       6.734   4.565  16.010  0.00  0.00    +0.000 A 
ATOM      7  C   UNL     1       5.447   4.056  15.803  0.00  0.00    +0.000 A 
ATOM      8  C   UNL     1       4.565   3.915  16.888  0.00  0.00    +0.000 A 
BRANCH   6   9
ATOM      9  O   UNL     1       7.669   4.787  15.037  0.00  0.00    +0.000 OA
ATOM     10  C   UNL     1       7.192   4.801  13.701  0.00  0.00    +0.000 C 
ENDBRANCH   6   9
ENDBRANCH   1   3
BRANCH   1  12
ATOM     11  C   UNL     1       2.853   6.329  18.784  0.00  0.00    +0.000 C 
ATOM     12  C   UNL     1       3.269   5.427  19.675  0.00  0.00    +0.000 C 
BRANCH  11  16
ATOM     13  C   UNL     1       0.858  10.063  19.580  0.00  0.00    +0.000 A 
ATOM     14  C   UNL     1       1.377   9.772  18.322  0.00  0.00    +0.000 A 
ATOM     15  C   UNL     1       2.000   8.543  18.080  0.00  0.00    +0.000 A 
ATOM     16  C   UNL     1       2.157   7.596  19.104  0.00  0.00    +0.000 A 
ATOM     17  C   UNL     1       1.623   7.895  20.363  0.00  0.00    +0.000 A 
ATOM     18  C   UNL     1       0.982   9.122  20.599  0.00  0.00    +0.000 A 
BRANCH  13  20
ATOM     19  C   UNL     1      -1.008  11.419  19.096  0.00  0.00    +0.000 C 
ATOM     20  O   UNL     1       0.270  11.290  19.712  0.00  0.00    +0.000 OA
ENDBRANCH  13  20
ENDBRANCH  11  16
ENDBRANCH   1  12
BRANCH   2  21
ATOM     21  O   UNL     1       3.009   2.892  20.920  0.00  0.00    +0.000 OA
ATOM     22  H   UNL     1       2.170   3.017  20.437  0.00  0.00    +0.000 HD
ENDBRANCH   2  21
TORSDOF 6
ENDMDL
MODEL 3
REMARK VINA RESULT:      -6.9      0.939      1.434
REMARK  Name = 
REMARK  8 active torsions:
REMARK  status: ('A' for Active; 'I' for Inactive)
REMARK    1  A    between atoms: C_1  and  O_2
REMARK    2  A    between atoms: O_2  and  C_3
REMARK    3  A    between atoms: C_6  and  C_7
REMARK    4  A    between atoms: C_8  and  C_9
REMARK    5  A    between atoms: C_9  and  C_12
REMARK    6  A    between atoms: N_10  and  O_11
REMARK    7  A    between atoms: C_15  and  O_16
REMARK    8  A    between atoms: O_16  and  C_17
REMARK                            x       y       z     vdW  Elec       q    Type
REMARK                         _______ _______ _______ _____ _____    ______ ____
ROOT
ATOM      1  C   UNL     1       3.728   4.307  19.532  0.00  0.00    +0.000 C 
ATOM      2  N   UNL     1       3.576   3.131  20.059  0.00  0.00    +0.000 NA
ENDROOT
BRANCH   1   3
ATOM      3  C   UNL     1       4.781   4.433  18.461  0.00  0.00    +0.000 A 
ATOM      4  C   UNL     1       4.516   3.993  17.164  0.00  0.00    +0.000 A 
ATOM      5  C   UNL     1       5.489   4.082  16.174  0.00  0.00    +0.000 A 
ATOM      6  C   UNL     1       6.730   4.650  16.448  0.00  0.00    +0.000 A 
ATOM      7  C   UNL     1       7.010   5.104  17.741  0.00  0.00    +0.000 A 
ATOM      8  C   UNL     1       6.034   5.001  18.748  0.00  0.00    +0.000 A 
BRANCH   6   9
ATOM      9  O   UNL     1       7.602   4.658  15.394  0.00  0.00    +0.000 OA
ATOM     10  C   UNL     1       7.026   4.793  14.104  0.00  0.00    +0.000 C 
ENDBRANCH   6   9
ENDBRANCH   1   3
BRANCH   1  12
ATOM     11  C   UNL     1       2.798   6.581  18.901  0.00  0.00    +0.000 C 
ATOM     12  C   UNL     1       2.953   5.587  19.779  0.00  0.00    +0.000 C 
BRANCH  11  16
ATOM     13  C   UNL     1       0.700  10.235  19.796  0.00  0.00    +0.000 A 
ATOM     14  C   UNL     1       0.880   9.248  20.760  0.00  0.00    +0.000 A 
ATOM     15  C   UNL     1       1.586   8.080  20.453  0.00  0.00    +0.000 A 
ATOM     16  C   UNL     1       2.088   7.854  19.162  0.00  0.00    +0.000 A 
ATOM     17  C   UNL     1       1.908   8.857  18.203  0.00  0.00    +0.000 A 
ATOM     18  C   UNL     1       1.215  10.037  18.517  0.00  0.00    +0.000 A 
BRANCH  13  20
ATOM     19  C   UNL     1      -1.348  11.399  19.732  0.00  0.00    +0.000 C 
ATOM     20  O   UNL     1      -0.004  11.337  20.197  0.00  0.00    +0.000 OA
ENDBRANCH  13  20
ENDBRANCH  11  16
ENDBRANCH   1  12
BRANCH   2  21
ATOM     21  O   UNL     1       2.536   3.055  20.985  0.00  0.00    +0.000 OA
ATOM     22  H   UNL     1       2.096   2.223  20.724  0.00  0.00    +0.000 HD
ENDBRANCH   2  21
TORSDOF 6
ENDMDL
MODEL 4
REMARK VINA RESULT:      -6.9      1.092      1.806
REMARK  Name = 
REMARK  8 active torsions:
REMARK  status: ('A' for Active; 'I' for Inactive)
REMARK    1  A    between atoms: C_1  and  O_2
REMARK    2  A    between atoms: O_2  and  C_3
REMARK    3  A    between atoms: C_6  and  C_7
REMARK    4  A    between atoms: C_8  and  C_9
REMARK    5  A    between atoms: C_9  and  C_12
REMARK    6  A    between atoms: N_10  and  O_11
REMARK    7  A    between atoms: C_15  and  O_16
REMARK    8  A    between atoms: O_16  and  C_17
REMARK                            x       y       z     vdW  Elec       q    Type
REMARK                         _______ _______ _______ _____ _____    ______ ____
ROOT
ATOM      1  C   UNL     1       3.649   3.841  17.479  0.00  0.00    +0.000 C 
ATOM      2  N   UNL     1       3.446   2.569  17.630  0.00  0.00    +0.000 NA
ENDROOT
BRANCH   1   3
ATOM      3  C   UNL     1       4.855   4.239  16.668  0.00  0.00    +0.000 A 
ATOM      4  C   UNL     1       4.741   4.425  15.290  0.00  0.00    +0.000 A 
ATOM      5  C   UNL     1       5.854   4.768  14.528  0.00  0.00    +0.000 A 
ATOM      6  C   UNL     1       7.091   4.973  15.131  0.00  0.00    +0.000 A 
ATOM      7  C   UNL     1       7.221   4.797  16.513  0.00  0.00    +0.000 A 
ATOM      8  C   UNL     1       6.103   4.435  17.283  0.00  0.00    +0.000 A 
BRANCH   6   9
ATOM      9  O   UNL     1       8.105   5.285  14.269  0.00  0.00    +0.000 OA
ATOM     10  C   UNL     1       7.780   5.270  12.887  0.00  0.00    +0.000 C 
ENDBRANCH   6   9
ENDBRANCH   1   3
BRANCH   1  12
ATOM     11  C   UNL     1       3.273   6.238  18.219  0.00  0.00    +0.000 C 
ATOM     12  C   UNL     1       2.810   5.017  17.940  0.00  0.00    +0.000 C 
BRANCH  11  16
ATOM     13  C   UNL     1       0.926   9.597  19.548  0.00  0.00    +0.000 A 
ATOM     14  C   UNL     1       1.364   9.494  18.231  0.00  0.00    +0.000 A 
ATOM     15  C   UNL     1       2.105   8.382  17.817  0.00  0.00    +0.000 A 
ATOM     16  C   UNL     1       2.463   7.370  18.722  0.00  0.00    +0.000 A 
ATOM     17  C   UNL     1       2.010   7.480  20.041  0.00  0.00    +0.000 A 
ATOM     18  C   UNL     1       1.250   8.587  20.451  0.00  0.00    +0.000 A 
BRANCH  13  20
ATOM     19  C   UNL     1       0.292  11.769  18.890  0.00  0.00    +0.000 C 
ATOM     20  O   UNL     1       0.210  10.722  19.851  0.00  0.00    +0.000 OA
ENDBRANCH  13  20
ENDBRANCH  11  16
ENDBRANCH   1  12
BRANCH   2  21
ATOM     21  O   UNL     1       2.275   2.258  18.320  0.00  0.00    +0.000 OA
ATOM     22  H   UNL     1       2.018   1.411  17.908  0.00  0.00    +0.000 HD
ENDBRANCH   2  21
TORSDOF 6
ENDMDL
MODEL 5
REMARK VINA RESULT:      -6.9      0.393      1.535
REMARK  Name = 
REMARK  8 active torsions:
REMARK  status: ('A' for Active; 'I' for Inactive)
REMARK    1  A    between atoms: C_1  and  O_2
REMARK    2  A    between atoms: O_2  and  C_3
REMARK    3  A    between atoms: C_6  and  C_7
REMARK    4  A    between atoms: C_8  and  C_9
REMARK    5  A    between atoms: C_9  and  C_12
REMARK    6  A    between atoms: N_10  and  O_11
REMARK    7  A    between atoms: C_15  and  O_16
REMARK    8  A    between atoms: O_16  and  C_17
REMARK                            x       y       z     vdW  Elec       q    Type
REMARK                         _______ _______ _______ _____ _____    ______ ____
ROOT
ATOM      1  C   UNL     1       4.237   4.490  19.149  0.00  0.00    +0.000 C 
ATOM      2  N   UNL     1       4.188   3.281  19.618  0.00  0.00    +0.000 NA
ENDROOT
BRANCH   1   3
ATOM      3  C   UNL     1       5.160   4.722  17.981  0.00  0.00    +0.000 A 
ATOM      4  C   UNL     1       4.920   4.086  16.763  0.00  0.00    +0.000 A 
ATOM      5  C   UNL     1       5.780   4.274  15.685  0.00  0.00    +0.000 A 
ATOM      6  C   UNL     1       6.871   5.132  15.790  0.00  0.00    +0.000 A 
ATOM      7  C   UNL     1       7.122   5.783  17.002  0.00  0.00    +0.000 A 
ATOM      8  C   UNL     1       6.264   5.583  18.097  0.00  0.00    +0.000 A 
BRANCH   6   9
ATOM      9  O   UNL     1       7.647   5.212  14.666  0.00  0.00    +0.000 OA
ATOM     10  C   UNL     1       7.083   4.685  13.476  0.00  0.00    +0.000 C 
ENDBRANCH   6   9
ENDBRANCH   1   3
BRANCH   1  12
ATOM     11  C   UNL     1       2.779   6.520  18.720  0.00  0.00    +0.000 C 
ATOM     12  C   UNL     1       3.444   5.718  19.554  0.00  0.00    +0.000 C 
BRANCH  11  16
ATOM     13  C   UNL     1       0.686  10.152  19.716  0.00  0.00    +0.000 A 
ATOM     14  C   UNL     1       1.180   9.928  18.435  0.00  0.00    +0.000 A 
ATOM     15  C   UNL     1       1.835   8.730  18.128  0.00  0.00    +0.000 A 
ATOM     16  C   UNL     1       2.051   7.749  19.109  0.00  0.00    +0.000 A 
ATOM     17  C   UNL     1       1.543   7.982  20.392  0.00  0.00    +0.000 A 
ATOM     18  C   UNL     1       0.869   9.176  20.694  0.00  0.00    +0.000 A 
BRANCH  13  20
ATOM     19  C   UNL     1       0.337  11.980  21.162  0.00  0.00    +0.000 C 
ATOM     20  O   UNL     1       0.062  11.352  19.913  0.00  0.00    +0.000 OA
ENDBRANCH  13  20
ENDBRANCH  11  16
ENDBRANCH   1  12
BRANCH   2  21
ATOM     21  O   UNL     1       3.260   3.106  20.644  0.00  0.00    +0.000 OA
ATOM     22  H   UNL     1       2.949   4.020  20.791  0.00  0.00    +0.000 HD
ENDBRANCH   2  21
TORSDOF 6
ENDMDL
MODEL 6
REMARK VINA RESULT:      -6.7      0.840      1.347
REMARK  Name = 
REMARK  8 active torsions:
REMARK  status: ('A' for Active; 'I' for Inactive)
REMARK    1  A    between atoms: C_1  and  O_2
REMARK    2  A    between atoms: O_2  and  C_3
REMARK    3  A    between atoms: C_6  and  C_7
REMARK    4  A    between atoms: C_8  and  C_9
REMARK    5  A    between atoms: C_9  and  C_12
REMARK    6  A    between atoms: N_10  and  O_11
REMARK    7  A    between atoms: C_15  and  O_16
REMARK    8  A    between atoms: O_16  and  C_17
REMARK                            x       y       z     vdW  Elec       q    Type
REMARK                         _______ _______ _______ _____ _____    ______ ____
ROOT
ATOM      1  C   UNL     1       3.835   4.223  17.995  0.00  0.00    +0.000 C 
ATOM      2  N   UNL     1       3.816   3.033  18.512  0.00  0.00    +0.000 NA
ENDROOT
BRANCH   1   3
ATOM      3  C   UNL     1       4.906   4.494  16.970  0.00  0.00    +0.000 A 
ATOM      4  C   UNL     1       6.207   4.789  17.378  0.00  0.00    +0.000 A 
ATOM      5  C   UNL     1       7.198   5.065  16.440  0.00  0.00    +0.000 A 
ATOM      6  C   UNL     1       6.919   5.010  15.078  0.00  0.00    +0.000 A 
ATOM      7  C   UNL     1       5.621   4.708  14.651  0.00  0.00    +0.000 A 
ATOM      8  C   UNL     1       4.615   4.445  15.596  0.00  0.00    +0.000 A 
BRANCH   6   9
ATOM      9  O   UNL     1       7.974   5.321  14.265  0.00  0.00    +0.000 OA
ATOM     10  C   UNL     1       7.775   5.118  12.874  0.00  0.00    +0.000 C 
ENDBRANCH   6   9
ENDBRANCH   1   3
BRANCH   1  12
ATOM     11  C   UNL     1       3.220   6.561  18.764  0.00  0.00    +0.000 C 
ATOM     12  C   UNL     1       2.891   5.390  18.214  0.00  0.00    +0.000 C 
BRANCH  11  16
ATOM     13  C   UNL     1       0.516   9.856  19.385  0.00  0.00    +0.000 A 
ATOM     14  C   UNL     1       1.041   9.577  18.127  0.00  0.00    +0.000 A 
ATOM     15  C   UNL     1       1.899   8.486  17.945  0.00  0.00    +0.000 A 
ATOM     16  C   UNL     1       2.286   7.679  19.026  0.00  0.00    +0.000 A 
ATOM     17  C   UNL     1       1.745   7.964  20.285  0.00  0.00    +0.000 A 
ATOM     18  C   UNL     1       0.869   9.048  20.463  0.00  0.00    +0.000 A 
BRANCH  13  20
ATOM     19  C   UNL     1       0.134  12.091  18.743  0.00  0.00    +0.000 C 
ATOM     20  O   UNL     1      -0.311  10.943  19.457  0.00  0.00    +0.000 OA
ENDBRANCH  13  20
ENDBRANCH  11  16
ENDBRANCH   1  12
BRANCH   2  21
ATOM     21  O   UNL     1       2.758   2.814  19.394  0.00  0.00    +0.000 OA
ATOM     22  H   UNL     1       3.227   2.687  20.241  0.00  0.00    +0.000 HD
ENDBRANCH   2  21
TORSDOF 6
ENDMDL
MODEL 7
REMARK VINA RESULT:      -6.7      1.157      1.625
REMARK  Name = 
REMARK  8 active torsions:
REMARK  status: ('A' for Active; 'I' for Inactive)
REMARK    1  A    between atoms: C_1  and  O_2
REMARK    2  A    between atoms: O_2  and  C_3
REMARK    3  A    between atoms: C_6  and  C_7
REMARK    4  A    between atoms: C_8  and  C_9
REMARK    5  A    between atoms: C_9  and  C_12
REMARK    6  A    between atoms: N_10  and  O_11
REMARK    7  A    between atoms: C_15  and  O_16
REMARK    8  A    between atoms: O_16  and  C_17
REMARK                            x       y       z     vdW  Elec       q    Type
REMARK                         _______ _______ _______ _____ _____    ______ ____
ROOT
ATOM      1  C   UNL     1       3.545   4.425  19.141  0.00  0.00    +0.000 C 
ATOM      2  N   UNL     1       3.226   3.175  19.282  0.00  0.00    +0.000 NA
ENDROOT
BRANCH   1   3
ATOM      3  C   UNL     1       4.619   4.735  18.131  0.00  0.00    +0.000 A 
ATOM      4  C   UNL     1       4.462   4.345  16.801  0.00  0.00    +0.000 A 
ATOM      5  C   UNL     1       5.459   4.604  15.864  0.00  0.00    +0.000 A 
ATOM      6  C   UNL     1       6.611   5.295  16.229  0.00  0.00    +0.000 A 
ATOM      7  C   UNL     1       6.781   5.701  17.557  0.00  0.00    +0.000 A 
ATOM      8  C   UNL     1       5.784   5.426  18.508  0.00  0.00    +0.000 A 
BRANCH   6   9
ATOM      9  O   UNL     1       7.519   5.467  15.221  0.00  0.00    +0.000 OA
ATOM     10  C   UNL     1       7.149   4.955  13.950  0.00  0.00    +0.000 C 
ENDBRANCH   6   9
ENDBRANCH   1   3
BRANCH   1  12
ATOM     11  C   UNL     1       2.336   6.654  19.155  0.00  0.00    +0.000 C 
ATOM     12  C   UNL     1       2.949   5.656  19.795  0.00  0.00    +0.000 C 
BRANCH  11  16
ATOM     13  C   UNL     1       0.782  10.154  21.129  0.00  0.00    +0.000 A 
ATOM     14  C   UNL     1       1.114   9.006  21.842  0.00  0.00    +0.000 A 
ATOM     15  C   UNL     1       1.639   7.890  21.182  0.00  0.00    +0.000 A 
ATOM     16  C   UNL     1       1.802   7.881  19.788  0.00  0.00    +0.000 A 
ATOM     17  C   UNL     1       1.474   9.044  19.082  0.00  0.00    +0.000 A 
ATOM     18  C   UNL     1       0.963  10.170  19.747  0.00  0.00    +0.000 A 
BRANCH  13  20
ATOM     19  C   UNL     1      -0.773  10.837  22.762  0.00  0.00    +0.000 C 
ATOM     20  O   UNL     1       0.277  11.189  21.866  0.00  0.00    +0.000 OA
ENDBRANCH  13  20
ENDBRANCH  11  16
ENDBRANCH   1  12
BRANCH   2  21
ATOM     21  O   UNL     1       2.174   2.954  20.170  0.00  0.00    +0.000 OA
ATOM     22  H   UNL     1       1.898   3.865  20.385  0.00  0.00    +0.000 HD
ENDBRANCH   2  21
TORSDOF 6
ENDMDL
MODEL 8
REMARK VINA RESULT:      -6.6      1.481      2.356
REMARK  Name = 
REMARK  8 active torsions:
REMARK  status: ('A' for Active; 'I' for Inactive)
REMARK    1  A    between atoms: C_1  and  O_2
REMARK    2  A    between atoms: O_2  and  C_3
REMARK    3  A    between atoms: C_6  and  C_7
REMARK    4  A    between atoms: C_8  and  C_9
REMARK    5  A    between atoms: C_9  and  C_12
REMARK    6  A    between atoms: N_10  and  O_11
REMARK    7  A    between atoms: C_15  and  O_16
REMARK    8  A    between atoms: O_16  and  C_17
REMARK                            x       y       z     vdW  Elec       q    Type
REMARK                         _______ _______ _______ _____ _____    ______ ____
ROOT
ATOM      1  C   UNL     1       2.879   4.110  20.278  0.00  0.00    +0.000 C 
ATOM      2  N   UNL     1       2.780   2.985  20.916  0.00  0.00    +0.000 NA
ENDROOT
BRANCH   1   3
ATOM      3  C   UNL     1       3.812   4.133  19.095  0.00  0.00    +0.000 A 
ATOM      4  C   UNL     1       3.345   3.778  17.829  0.00  0.00    +0.000 A 
ATOM      5  C   UNL     1       4.204   3.772  16.734  0.00  0.00    +0.000 A 
ATOM      6  C   UNL     1       5.533   4.161  16.873  0.00  0.00    +0.000 A 
ATOM      7  C   UNL     1       6.016   4.526  18.134  0.00  0.00    +0.000 A 
ATOM      8  C   UNL     1       5.155   4.518  19.245  0.00  0.00    +0.000 A 
BRANCH   6   9
ATOM      9  O   UNL     1       6.274   4.090  15.725  0.00  0.00    +0.000 OA
ATOM     10  C   UNL     1       5.581   4.352  14.515  0.00  0.00    +0.000 C 
ENDBRANCH   6   9
ENDBRANCH   1   3
BRANCH   1  12
ATOM     11  C   UNL     1       2.398   6.567  19.872  0.00  0.00    +0.000 C 
ATOM     12  C   UNL     1       2.139   5.416  20.497  0.00  0.00    +0.000 C 
BRANCH  11  16
ATOM     13  C   UNL     1       0.442  10.358  20.473  0.00  0.00    +0.000 A 
ATOM     14  C   UNL     1       1.042  10.036  19.260  0.00  0.00    +0.000 A 
ATOM     15  C   UNL     1       1.650   8.789  19.080  0.00  0.00    +0.000 A 
ATOM     16  C   UNL     1       1.712   7.854  20.125  0.00  0.00    +0.000 A 
ATOM     17  C   UNL     1       1.098   8.185  21.339  0.00  0.00    +0.000 A 
ATOM     18  C   UNL     1       0.471   9.430  21.512  0.00  0.00    +0.000 A 
BRANCH  13  20
ATOM     19  C   UNL     1      -0.639  11.956  21.826  0.00  0.00    +0.000 C 
ATOM     20  O   UNL     1      -0.124  11.600  20.547  0.00  0.00    +0.000 OA
ENDBRANCH  13  20
ENDBRANCH  11  16
ENDBRANCH   1  12
BRANCH   2  21
ATOM     21  O   UNL     1       1.845   2.998  21.950  0.00  0.00    +0.000 OA
ATOM     22  H   UNL     1       1.312   3.786  21.729  0.00  0.00    +0.000 HD
ENDBRANCH   2  21
TORSDOF 6
ENDMDL
MODEL 9
REMARK VINA RESULT:      -6.6      1.256      2.096
REMARK  Name = 
REMARK  8 active torsions:
REMARK  status: ('A' for Active; 'I' for Inactive)
REMARK    1  A    between atoms: C_1  and  O_2
REMARK    2  A    between atoms: O_2  and  C_3
REMARK    3  A    between atoms: C_6  and  C_7
REMARK    4  A    between atoms: C_8  and  C_9
REMARK    5  A    between atoms: C_9  and  C_12
REMARK    6  A    between atoms: N_10  and  O_11
REMARK    7  A    between atoms: C_15  and  O_16
REMARK    8  A    between atoms: O_16  and  C_17
REMARK                            x       y       z     vdW  Elec       q    Type
REMARK                         _______ _______ _______ _____ _____    ______ ____
ROOT
ATOM      1  C   UNL     1       3.260   4.603  19.703  0.00  0.00    +0.000 C 
ATOM      2  N   UNL     1       3.257   3.398  20.186  0.00  0.00    +0.000 NA
ENDROOT
BRANCH   1   3
ATOM      3  C   UNL     1       4.339   4.923  18.701  0.00  0.00    +0.000 A 
ATOM      4  C   UNL     1       4.047   4.929  17.337  0.00  0.00    +0.000 A 
ATOM      5  C   UNL     1       5.042   5.200  16.402  0.00  0.00    +0.000 A 
ATOM      6  C   UNL     1       6.335   5.511  16.812  0.00  0.00    +0.000 A 
ATOM      7  C   UNL     1       6.642   5.517  18.177  0.00  0.00    +0.000 A 
ATOM      8  C   UNL     1       5.644   5.228  19.123  0.00  0.00    +0.000 A 
BRANCH   6   9
ATOM      9  O   UNL     1       7.220   5.736  15.794  0.00  0.00    +0.000 OA
ATOM     10  C   UNL     1       7.083   4.909  14.649  0.00  0.00    +0.000 C 
ENDBRANCH   6   9
ENDBRANCH   1   3
BRANCH   1  12
ATOM     11  C   UNL     1       2.530   7.032  19.685  0.00  0.00    +0.000 C 
ATOM     12  C   UNL     1       2.289   5.744  19.940  0.00  0.00    +0.000 C 
BRANCH  11  16
ATOM     13  C   UNL     1      -0.133  10.347  20.373  0.00  0.00    +0.000 A 
ATOM     14  C   UNL     1       0.551  10.205  19.171  0.00  0.00    +0.000 A 
ATOM     15  C   UNL     1       1.393   9.107  18.961  0.00  0.00    +0.000 A 
ATOM     16  C   UNL     1       1.602   8.151  19.967  0.00  0.00    +0.000 A 
ATOM     17  C   UNL     1       0.902   8.299  21.169  0.00  0.00    +0.000 A 
ATOM     18  C   UNL     1       0.044   9.392  21.372  0.00  0.00    +0.000 A 
BRANCH  13  20
ATOM     19  C   UNL     1      -1.310  12.045  19.240  0.00  0.00    +0.000 C 
ATOM     20  O   UNL     1      -0.929  11.454  20.478  0.00  0.00    +0.000 OA
ENDBRANCH  13  20
ENDBRANCH  11  16
ENDBRANCH   1  12
BRANCH   2  21
ATOM     21  O   UNL     1       2.191   3.134  21.046  0.00  0.00    +0.000 OA
ATOM     22  H   UNL     1       1.422   3.362  20.488  0.00  0.00    +0.000 HD
ENDBRANCH   2  21
TORSDOF 6
ENDMDL
