MODEL 1
REMARK VINA RESULT:      -8.3      0.000      0.000
REMARK  Name = 
REMARK  7 active torsions:
REMARK  status: ('A' for Active; 'I' for Inactive)
REMARK    1  A    between atoms: C_1  and  O_2
REMARK    2  A    between atoms: O_2  and  C_3
REMARK    3  A    between atoms: N_14  and  C_15
REMARK    4  A    between atoms: C_18  and  O_19
REMARK    5  A    between atoms: O_19  and  C_20
REMARK    6  A    between atoms: C_34  and  O_35
REMARK    7  A    between atoms: O_35  and  C_36
REMARK                            x       y       z     vdW  Elec       q    Type
REMARK                         _______ _______ _______ _____ _____    ______ ____
ROOT
ATOM      1  C   UNL     1      -4.428  12.702  19.400  0.00  0.00    +0.000 A 
ATOM      2  C   UNL     1      -3.601  11.683  18.948  0.00  0.00    +0.000 A 
ATOM      3  C   UNL     1      -2.512  11.303  19.701  0.00  0.00    +0.000 A 
ATOM      4  C   UNL     1      -2.144  11.975  20.882  0.00  0.00    +0.000 A 
ATOM      5  C   UNL     1      -0.981  11.655  21.613  0.00  0.00    +0.000 A 
ATOM      6  N   UNL     1      -0.096  10.713  21.121  0.00  0.00    +0.000 N 
ATOM      7  C   UNL     1       0.671   9.883  22.048  0.00  0.00    +0.000 C 
ATOM      8  C   UNL     1       0.814   8.496  21.386  0.00  0.00    +0.000 C 
ATOM      9  N   UNL     1       1.372   8.585  20.018  0.00  0.00    +0.000 N 
ATOM     10  C   UNL     1       2.198   7.558  19.608  0.00  0.00    +0.000 C 
ATOM     11  O   UNL     1       2.466   6.640  20.371  0.00  0.00    +0.000 OA
ATOM     12  N   UNL     1       2.704   7.675  18.337  0.00  0.00    +0.000 N 
ATOM     13  C   UNL     1       0.694   9.552  19.139  0.00  0.00    +0.000 C 
ATOM     14  C   UNL     1       0.574  10.925  19.830  0.00  0.00    +0.000 C 
ATOM     15  N   UNL     1      -0.730  12.202  22.811  0.00  0.00    +0.000 NA
ATOM     16  C   UNL     1      -1.605  13.120  23.232  0.00  0.00    +0.000 A 
ATOM     17  N   UNL     1      -2.691  13.550  22.574  0.00  0.00    +0.000 NA
ATOM     18  C   UNL     1      -2.978  12.977  21.387  0.00  0.00    +0.000 A 
ATOM     19  C   UNL     1      -4.125  13.343  20.625  0.00  0.00    +0.000 A 
ATOM     20  H   UNL     1       2.721   8.601  17.943  0.00  0.00    +0.000 HD
ENDROOT
BRANCH  12  21
ATOM     21  C   UNL     1       3.519   6.725  17.690  0.00  0.00    +0.000 A 
ATOM     22  C   UNL     1       3.228   5.360  17.670  0.00  0.00    +0.000 A 
ATOM     23  C   UNL     1       4.080   4.466  17.026  0.00  0.00    +0.000 A 
ATOM     24  C   UNL     1       5.221   4.926  16.381  0.00  0.00    +0.000 A 
ATOM     25  C   UNL     1       5.539   6.286  16.425  0.00  0.00    +0.000 A 
ATOM     26  C   UNL     1       4.670   7.187  17.044  0.00  0.00    +0.000 A 
BRANCH  24  27
ATOM     27  O   UNL     1       5.990   3.964  15.775  0.00  0.00    +0.000 OA
BRANCH  27  28
ATOM     28  C   UNL     1       6.410   4.139  14.478  0.00  0.00    +0.000 A 
ATOM     29  C   UNL     1       5.681   3.439  13.516  0.00  0.00    +0.000 A 
ATOM     30  C   UNL     1       6.037   3.523  12.170  0.00  0.00    +0.000 A 
ATOM     31  C   UNL     1       7.123   4.308  11.785  0.00  0.00    +0.000 A 
ATOM     32  C   UNL     1       7.826   5.044  12.738  0.00  0.00    +0.000 A 
ATOM     33  C   UNL     1       7.450   4.983  14.079  0.00  0.00    +0.000 A 
ENDBRANCH  27  28
ENDBRANCH  24  27
ENDBRANCH  12  21
BRANCH   1  35
ATOM     34  C   UNL     1      -6.074  12.122  17.781  0.00  0.00    +0.000 C 
ATOM     35  O   UNL     1      -5.507  13.099  18.653  0.00  0.00    +0.000 OA
ENDBRANCH   1  35
BRANCH  19  36
ATOM     36  O   UNL     1      -4.866  14.348  21.219  0.00  0.00    +0.000 OA
ATOM     37  C   UNL     1      -6.080  14.026  21.872  0.00  0.00    +0.000 C 
ENDBRANCH  19  36
TORSDOF 5
ENDMDL
MODEL 2
REMARK VINA RESULT:      -7.9      1.945      3.065
REMARK  Name = 
REMARK  7 active torsions:
REMARK  status: ('A' for Active; 'I' for Inactive)
REMARK    1  A    between atoms: C_1  and  O_2
REMARK    2  A    between atoms: O_2  and  C_3
REMARK    3  A    between atoms: N_14  and  C_15
REMARK    4  A    between atoms: C_18  and  O_19
REMARK    5  A    between atoms: O_19  and  C_20
REMARK    6  A    between atoms: C_34  and  O_35
REMARK    7  A    between atoms: O_35  and  C_36
REMARK                            x       y       z     vdW  Elec       q    Type
REMARK                         _______ _______ _______ _____ _____    ______ ____
ROOT
ATOM      1  C   UNL     1      -6.331  13.547  19.530  0.00  0.00    +0.000 A 
ATOM      2  C   UNL     1      -5.473  12.457  19.498  0.00  0.00    +0.000 A 
ATOM      3  C   UNL     1      -4.244  12.537  20.114  0.00  0.00    +0.000 A 
ATOM      4  C   UNL     1      -3.775  13.726  20.704  0.00  0.00    +0.000 A 
ATOM      5  C   UNL     1      -2.484  13.848  21.257  0.00  0.00    +0.000 A 
ATOM      6  N   UNL     1      -1.584  12.804  21.141  0.00  0.00    +0.000 N 
ATOM      7  C   UNL     1      -0.591  12.580  22.190  0.00  0.00    +0.000 C 
ATOM      8  C   UNL     1      -0.394  11.053  22.296  0.00  0.00    +0.000 C 
ATOM      9  N   UNL     1      -0.070  10.440  20.988  0.00  0.00    +0.000 N 
ATOM     10  C   UNL     1       0.794   9.364  20.995  0.00  0.00    +0.000 C 
ATOM     11  O   UNL     1       1.282   8.971  22.046  0.00  0.00    +0.000 OA
ATOM     12  N   UNL     1       1.078   8.824  19.764  0.00  0.00    +0.000 N 
ATOM     13  C   UNL     1      -0.984  10.807  19.894  0.00  0.00    +0.000 C 
ATOM     14  C   UNL     1      -1.152  12.338  19.815  0.00  0.00    +0.000 C 
ATOM     15  N   UNL     1      -2.113  14.936  21.948  0.00  0.00    +0.000 NA
ATOM     16  C   UNL     1      -3.012  15.922  22.014  0.00  0.00    +0.000 A 
ATOM     17  N   UNL     1      -4.229  15.934  21.454  0.00  0.00    +0.000 NA
ATOM     18  C   UNL     1      -4.630  14.828  20.792  0.00  0.00    +0.000 A 
ATOM     19  C   UNL     1      -5.917  14.731  20.186  0.00  0.00    +0.000 A 
ATOM     20  H   UNL     1       0.927   9.418  18.967  0.00  0.00    +0.000 HD
ENDROOT
BRANCH  12  21
ATOM     21  C   UNL     1       1.886   7.693  19.535  0.00  0.00    +0.000 A 
ATOM     22  C   UNL     1       2.700   7.554  18.410  0.00  0.00    +0.000 A 
ATOM     23  C   UNL     1       3.466   6.404  18.230  0.00  0.00    +0.000 A 
ATOM     24  C   UNL     1       3.441   5.391  19.179  0.00  0.00    +0.000 A 
ATOM     25  C   UNL     1       2.603   5.505  20.291  0.00  0.00    +0.000 A 
ATOM     26  C   UNL     1       1.858   6.669  20.487  0.00  0.00    +0.000 A 
BRANCH  24  27
ATOM     27  O   UNL     1       4.235   4.303  18.908  0.00  0.00    +0.000 OA
BRANCH  27  28
ATOM     28  C   UNL     1       5.201   4.386  17.934  0.00  0.00    +0.000 A 
ATOM     29  C   UNL     1       4.793   4.003  16.656  0.00  0.00    +0.000 A 
ATOM     30  C   UNL     1       5.699   4.023  15.596  0.00  0.00    +0.000 A 
ATOM     31  C   UNL     1       7.016   4.426  15.815  0.00  0.00    +0.000 A 
ATOM     32  C   UNL     1       7.416   4.852  17.080  0.00  0.00    +0.000 A 
ATOM     33  C   UNL     1       6.500   4.861  18.132  0.00  0.00    +0.000 A 
ENDBRANCH  27  28
ENDBRANCH  24  27
ENDBRANCH  12  21
BRANCH   1  35
ATOM     34  C   UNL     1      -7.541  13.442  17.483  0.00  0.00    +0.000 C 
ATOM     35  O   UNL     1      -7.552  13.485  18.910  0.00  0.00    +0.000 OA
ENDBRANCH   1  35
BRANCH  19  36
ATOM     36  O   UNL     1      -6.666  15.884  20.330  0.00  0.00    +0.000 OA
ATOM     37  C   UNL     1      -6.849  16.740  19.216  0.00  0.00    +0.000 C 
ENDBRANCH  19  36
TORSDOF 5
ENDMDL
MODEL 3
REMARK VINA RESULT:      -7.8      3.279     12.621
REMARK  Name = 
REMARK  7 active torsions:
REMARK  status: ('A' for Active; 'I' for Inactive)
REMARK    1  A    between atoms: C_1  and  O_2
REMARK    2  A    between atoms: O_2  and  C_3
REMARK    3  A    between atoms: N_14  and  C_15
REMARK    4  A    between atoms: C_18  and  O_19
REMARK    5  A    between atoms: O_19  and  C_20
REMARK    6  A    between atoms: C_34  and  O_35
REMARK    7  A    between atoms: O_35  and  C_36
REMARK                            x       y       z     vdW  Elec       q    Type
REMARK                         _______ _______ _______ _____ _____    ______ ____
ROOT
ATOM      1  C   UNL     1       2.077   3.650  20.213  0.00  0.00    +0.000 A 
ATOM      2  C   UNL     1       1.261   4.650  20.724  0.00  0.00    +0.000 A 
ATOM      3  C   UNL     1       1.336   5.924  20.206  0.00  0.00    +0.000 A 
ATOM      4  C   UNL     1       2.284   6.283  19.229  0.00  0.00    +0.000 A 
ATOM      5  C   UNL     1       2.433   7.603  18.757  0.00  0.00    +0.000 A 
ATOM      6  N   UNL     1       1.699   8.626  19.330  0.00  0.00    +0.000 N 
ATOM      7  C   UNL     1       1.292   9.772  18.518  0.00  0.00    +0.000 C 
ATOM      8  C   UNL     1      -0.097  10.207  19.031  0.00  0.00    +0.000 C 
ATOM      9  N   UNL     1      -0.103  10.443  20.493  0.00  0.00    +0.000 N 
ATOM     10  C   UNL     1      -0.919  11.452  20.962  0.00  0.00    +0.000 C 
ATOM     11  O   UNL     1      -1.576  12.129  20.183  0.00  0.00    +0.000 OA
ATOM     12  N   UNL     1      -0.896  11.649  22.322  0.00  0.00    +0.000 N 
ATOM     13  C   UNL     1       0.466   9.348  21.294  0.00  0.00    +0.000 C 
ATOM     14  C   UNL     1       1.853   8.943  20.757  0.00  0.00    +0.000 C 
ATOM     15  N   UNL     1       3.233   7.895  17.721  0.00  0.00    +0.000 NA
ATOM     16  C   UNL     1       3.934   6.876  17.216  0.00  0.00    +0.000 A 
ATOM     17  N   UNL     1       3.923   5.606  17.648  0.00  0.00    +0.000 NA
ATOM     18  C   UNL     1       3.090   5.292  18.662  0.00  0.00    +0.000 A 
ATOM     19  C   UNL     1       2.984   3.966  19.174  0.00  0.00    +0.000 A 
ATOM     20  H   UNL     1      -0.088  11.306  22.812  0.00  0.00    +0.000 HD
ENDROOT
BRANCH  12  21
ATOM     21  C   UNL     1      -1.684  12.579  23.027  0.00  0.00    +0.000 A 
ATOM     22  C   UNL     1      -1.241  13.863  23.350  0.00  0.00    +0.000 A 
ATOM     23  C   UNL     1      -2.061  14.735  24.063  0.00  0.00    +0.000 A 
ATOM     24  C   UNL     1      -3.338  14.341  24.444  0.00  0.00    +0.000 A 
ATOM     25  C   UNL     1      -3.778  13.047  24.155  0.00  0.00    +0.000 A 
ATOM     26  C   UNL     1      -2.968  12.183  23.415  0.00  0.00    +0.000 A 
BRANCH  24  27
ATOM     27  O   UNL     1      -4.065  15.276  25.139  0.00  0.00    +0.000 OA
BRANCH  27  28
ATOM     28  C   UNL     1      -4.733  16.266  24.460  0.00  0.00    +0.000 A 
ATOM     29  C   UNL     1      -5.892  15.858  23.798  0.00  0.00    +0.000 A 
ATOM     30  C   UNL     1      -6.634  16.775  23.055  0.00  0.00    +0.000 A 
ATOM     31  C   UNL     1      -6.218  18.104  22.974  0.00  0.00    +0.000 A 
ATOM     32  C   UNL     1      -5.087  18.526  23.670  0.00  0.00    +0.000 A 
ATOM     33  C   UNL     1      -4.363  17.614  24.437  0.00  0.00    +0.000 A 
ENDBRANCH  27  28
ENDBRANCH  24  27
ENDBRANCH  12  21
BRANCH   1  35
ATOM     34  C   UNL     1       3.096   1.991  21.583  0.00  0.00    +0.000 C 
ATOM     35  O   UNL     1       2.021   2.381  20.728  0.00  0.00    +0.000 OA
ENDBRANCH   1  35
BRANCH  19  36
ATOM     36  O   UNL     1       3.836   3.078  18.543  0.00  0.00    +0.000 OA
ATOM     37  C   UNL     1       3.299   2.087  17.685  0.00  0.00    +0.000 C 
ENDBRANCH  19  36
TORSDOF 5
ENDMDL
MODEL 4
REMARK VINA RESULT:      -7.8      3.166     12.632
REMARK  Name = 
REMARK  7 active torsions:
REMARK  status: ('A' for Active; 'I' for Inactive)
REMARK    1  A    between atoms: C_1  and  O_2
REMARK    2  A    between atoms: O_2  and  C_3
REMARK    3  A    between atoms: N_14  and  C_15
REMARK    4  A    between atoms: C_18  and  O_19
REMARK    5  A    between atoms: O_19  and  C_20
REMARK    6  A    between atoms: C_34  and  O_35
REMARK    7  A    between atoms: O_35  and  C_36
REMARK                            x       y       z     vdW  Elec       q    Type
REMARK                         _______ _______ _______ _____ _____    ______ ____
ROOT
ATOM      1  C   UNL     1       2.676   3.933  20.565  0.00  0.00    +0.000 A 
ATOM      2  C   UNL     1       1.787   4.905  21.003  0.00  0.00    +0.000 A 
ATOM      3  C   UNL     1       1.703   6.105  20.333  0.00  0.00    +0.000 A 
ATOM      4  C   UNL     1       2.556   6.429  19.262  0.00  0.00    +0.000 A 
ATOM      5  C   UNL     1       2.542   7.688  18.626  0.00  0.00    +0.000 A 
ATOM      6  N   UNL     1       1.735   8.698  19.118  0.00  0.00    +0.000 N 
ATOM      7  C   UNL     1       1.170   9.688  18.203  0.00  0.00    +0.000 C 
ATOM      8  C   UNL     1      -0.229  10.047  18.747  0.00  0.00    +0.000 C 
ATOM      9  N   UNL     1      -0.185  10.462  20.168  0.00  0.00    +0.000 N 
ATOM     10  C   UNL     1      -1.077  11.438  20.564  0.00  0.00    +0.000 C 
ATOM     11  O   UNL     1      -1.841  11.944  19.752  0.00  0.00    +0.000 OA
ATOM     12  N   UNL     1      -1.005  11.805  21.886  0.00  0.00    +0.000 N 
ATOM     13  C   UNL     1       0.535   9.537  21.057  0.00  0.00    +0.000 C 
ATOM     14  C   UNL     1       1.928   9.205  20.485  0.00  0.00    +0.000 C 
ATOM     15  N   UNL     1       3.253   7.924  17.514  0.00  0.00    +0.000 NA
ATOM     16  C   UNL     1       4.030   6.923  17.092  0.00  0.00    +0.000 A 
ATOM     17  N   UNL     1       4.174   5.723  17.672  0.00  0.00    +0.000 NA
ATOM     18  C   UNL     1       3.432   5.458  18.768  0.00  0.00    +0.000 A 
ATOM     19  C   UNL     1       3.491   4.203  19.440  0.00  0.00    +0.000 A 
ATOM     20  H   UNL     1      -0.142  11.607  22.361  0.00  0.00    +0.000 HD
ENDROOT
BRANCH  12  21
ATOM     21  C   UNL     1      -1.850  12.735  22.523  0.00  0.00    +0.000 A 
ATOM     22  C   UNL     1      -1.504  14.075  22.709  0.00  0.00    +0.000 A 
ATOM     23  C   UNL     1      -2.375  14.945  23.361  0.00  0.00    +0.000 A 
ATOM     24  C   UNL     1      -3.607  14.492  23.817  0.00  0.00    +0.000 A 
ATOM     25  C   UNL     1      -3.947  13.145  23.666  0.00  0.00    +0.000 A 
ATOM     26  C   UNL     1      -3.088  12.280  22.987  0.00  0.00    +0.000 A 
BRANCH  24  27
ATOM     27  O   UNL     1      -4.391  15.430  24.441  0.00  0.00    +0.000 OA
BRANCH  27  28
ATOM     28  C   UNL     1      -5.551  15.860  23.844  0.00  0.00    +0.000 A 
ATOM     29  C   UNL     1      -5.423  16.995  23.042  0.00  0.00    +0.000 A 
ATOM     30  C   UNL     1      -6.543  17.534  22.408  0.00  0.00    +0.000 A 
ATOM     31  C   UNL     1      -7.792  16.938  22.577  0.00  0.00    +0.000 A 
ATOM     32  C   UNL     1      -7.916  15.779  23.341  0.00  0.00    +0.000 A 
ATOM     33  C   UNL     1      -6.791  15.223  23.949  0.00  0.00    +0.000 A 
ENDBRANCH  27  28
ENDBRANCH  24  27
ENDBRANCH  12  21
BRANCH   1  35
ATOM     34  C   UNL     1       1.562   2.169  21.712  0.00  0.00    +0.000 C 
ATOM     35  O   UNL     1       2.779   2.739  21.230  0.00  0.00    +0.000 OA
ENDBRANCH   1  35
BRANCH  19  36
ATOM     36  O   UNL     1       4.398   3.330  18.867  0.00  0.00    +0.000 OA
ATOM     37  C   UNL     1       3.924   2.234  18.105  0.00  0.00    +0.000 C 
ENDBRANCH  19  36
TORSDOF 5
ENDMDL
MODEL 5
REMARK VINA RESULT:      -7.8      1.177      1.525
REMARK  Name = 
REMARK  7 active torsions:
REMARK  status: ('A' for Active; 'I' for Inactive)
REMARK    1  A    between atoms: C_1  and  O_2
REMARK    2  A    between atoms: O_2  and  C_3
REMARK    3  A    between atoms: N_14  and  C_15
REMARK    4  A    between atoms: C_18  and  O_19
REMARK    5  A    between atoms: O_19  and  C_20
REMARK    6  A    between atoms: C_34  and  O_35
REMARK    7  A    between atoms: O_35  and  C_36
REMARK                            x       y       z     vdW  Elec       q    Type
REMARK                         _______ _______ _______ _____ _____    ______ ____
ROOT
ATOM      1  C   UNL     1      -5.544  12.734  18.920  0.00  0.00    +0.000 A 
ATOM      2  C   UNL     1      -4.645  11.710  18.655  0.00  0.00    +0.000 A 
ATOM      3  C   UNL     1      -3.471  11.631  19.372  0.00  0.00    +0.000 A 
ATOM      4  C   UNL     1      -3.096  12.610  20.311  0.00  0.00    +0.000 A 
ATOM      5  C   UNL     1      -1.857  12.590  20.984  0.00  0.00    +0.000 A 
ATOM      6  N   UNL     1      -0.911  11.635  20.657  0.00  0.00    +0.000 N 
ATOM      7  C   UNL     1       0.005  11.138  21.681  0.00  0.00    +0.000 C 
ATOM      8  C   UNL     1       0.251   9.647  21.370  0.00  0.00    +0.000 C 
ATOM      9  N   UNL     1       0.699   9.435  19.974  0.00  0.00    +0.000 N 
ATOM     10  C   UNL     1       1.601   8.414  19.753  0.00  0.00    +0.000 C 
ATOM     11  O   UNL     1       2.021   7.746  20.688  0.00  0.00    +0.000 OA
ATOM     12  N   UNL     1       2.001   8.249  18.449  0.00  0.00    +0.000 N 
ATOM     13  C   UNL     1      -0.140  10.083  18.954  0.00  0.00    +0.000 C 
ATOM     14  C   UNL     1      -0.361  11.571  19.295  0.00  0.00    +0.000 C 
ATOM     15  N   UNL     1      -1.584  13.443  21.982  0.00  0.00    +0.000 NA
ATOM     16  C   UNL     1      -2.522  14.356  22.246  0.00  0.00    +0.000 A 
ATOM     17  N   UNL     1      -3.692  14.508  21.609  0.00  0.00    +0.000 NA
ATOM     18  C   UNL     1      -3.997  13.630  20.632  0.00  0.00    +0.000 A 
ATOM     19  C   UNL     1      -5.228  13.689  19.915  0.00  0.00    +0.000 A 
ATOM     20  H   UNL     1       1.890   9.042  17.840  0.00  0.00    +0.000 HD
ENDROOT
BRANCH  12  21
ATOM     21  C   UNL     1       2.867   7.242  17.981  0.00  0.00    +0.000 A 
ATOM     22  C   UNL     1       2.559   5.882  18.046  0.00  0.00    +0.000 A 
ATOM     23  C   UNL     1       3.463   4.929  17.579  0.00  0.00    +0.000 A 
ATOM     24  C   UNL     1       4.675   5.325  17.028  0.00  0.00    +0.000 A 
ATOM     25  C   UNL     1       5.007   6.682  16.990  0.00  0.00    +0.000 A 
ATOM     26  C   UNL     1       4.089   7.638  17.429  0.00  0.00    +0.000 A 
BRANCH  24  27
ATOM     27  O   UNL     1       5.491   4.309  16.596  0.00  0.00    +0.000 OA
BRANCH  27  28
ATOM     28  C   UNL     1       5.871   4.250  15.277  0.00  0.00    +0.000 A 
ATOM     29  C   UNL     1       7.085   4.869  14.978  0.00  0.00    +0.000 A 
ATOM     30  C   UNL     1       7.555   4.892  13.665  0.00  0.00    +0.000 A 
ATOM     31  C   UNL     1       6.809   4.296  12.648  0.00  0.00    +0.000 A 
ATOM     32  C   UNL     1       5.617   3.639  12.949  0.00  0.00    +0.000 A 
ATOM     33  C   UNL     1       5.164   3.589  14.268  0.00  0.00    +0.000 A 
ENDBRANCH  27  28
ENDBRANCH  24  27
ENDBRANCH  12  21
BRANCH   1  35
ATOM     34  C   UNL     1      -6.706  13.734  17.098  0.00  0.00    +0.000 C 
ATOM     35  O   UNL     1      -6.710  12.832  18.205  0.00  0.00    +0.000 OA
ENDBRANCH   1  35
BRANCH  19  36
ATOM     36  O   UNL     1      -6.030  14.742  20.313  0.00  0.00    +0.000 OA
ATOM     37  C   UNL     1      -5.824  16.026  19.751  0.00  0.00    +0.000 C 
ENDBRANCH  19  36
TORSDOF 5
ENDMDL
MODEL 6
REMARK VINA RESULT:      -7.8      1.710      2.735
REMARK  Name = 
REMARK  7 active torsions:
REMARK  status: ('A' for Active; 'I' for Inactive)
REMARK    1  A    between atoms: C_1  and  O_2
REMARK    2  A    between atoms: O_2  and  C_3
REMARK    3  A    between atoms: N_14  and  C_15
REMARK    4  A    between atoms: C_18  and  O_19
REMARK    5  A    between atoms: O_19  and  C_20
REMARK    6  A    between atoms: C_34  and  O_35
REMARK    7  A    between atoms: O_35  and  C_36
REMARK                            x       y       z     vdW  Elec       q    Type
REMARK                         _______ _______ _______ _____ _____    ______ ____
ROOT
ATOM      1  C   UNL     1      -6.411  13.275  19.997  0.00  0.00    +0.000 A 
ATOM      2  C   UNL     1      -5.504  12.229  19.889  0.00  0.00    +0.000 A 
ATOM      3  C   UNL     1      -4.223  12.384  20.372  0.00  0.00    +0.000 A 
ATOM      4  C   UNL     1      -3.760  13.606  20.894  0.00  0.00    +0.000 A 
ATOM      5  C   UNL     1      -2.426  13.804  21.306  0.00  0.00    +0.000 A 
ATOM      6  N   UNL     1      -1.489  12.806  21.110  0.00  0.00    +0.000 N 
ATOM      7  C   UNL     1      -0.381  12.653  22.052  0.00  0.00    +0.000 C 
ATOM      8  C   UNL     1      -0.094  11.140  22.156  0.00  0.00    +0.000 C 
ATOM      9  N   UNL     1       0.124  10.520  20.830  0.00  0.00    +0.000 N 
ATOM     10  C   UNL     1       1.040   9.491  20.760  0.00  0.00    +0.000 C 
ATOM     11  O   UNL     1       1.655   9.143  21.759  0.00  0.00    +0.000 OA
ATOM     12  N   UNL     1       1.222   8.943  19.514  0.00  0.00    +0.000 N 
ATOM     13  C   UNL     1      -0.918  10.820  19.833  0.00  0.00    +0.000 C 
ATOM     14  C   UNL     1      -1.174  12.338  19.752  0.00  0.00    +0.000 C 
ATOM     15  N   UNL     1      -2.043  14.923  21.940  0.00  0.00    +0.000 NA
ATOM     16  C   UNL     1      -2.981  15.863  22.087  0.00  0.00    +0.000 A 
ATOM     17  N   UNL     1      -4.249  15.801  21.657  0.00  0.00    +0.000 NA
ATOM     18  C   UNL     1      -4.658  14.664  21.056  0.00  0.00    +0.000 A 
ATOM     19  C   UNL     1      -5.993  14.490  20.591  0.00  0.00    +0.000 A 
ATOM     20  H   UNL     1       0.958   9.513  18.729  0.00  0.00    +0.000 HD
ENDROOT
BRANCH  12  21
ATOM     21  C   UNL     1       2.060   7.850  19.216  0.00  0.00    +0.000 A 
ATOM     22  C   UNL     1       1.967   6.619  19.867  0.00  0.00    +0.000 A 
ATOM     23  C   UNL     1       2.835   5.579  19.539  0.00  0.00    +0.000 A 
ATOM     24  C   UNL     1       3.791   5.752  18.547  0.00  0.00    +0.000 A 
ATOM     25  C   UNL     1       3.915   6.991  17.913  0.00  0.00    +0.000 A 
ATOM     26  C   UNL     1       3.027   8.024  18.220  0.00  0.00    +0.000 A 
BRANCH  24  27
ATOM     27  O   UNL     1       4.592   4.665  18.299  0.00  0.00    +0.000 OA
BRANCH  27  28
ATOM     28  C   UNL     1       5.269   4.571  17.106  0.00  0.00    +0.000 A 
ATOM     29  C   UNL     1       6.651   4.744  17.190  0.00  0.00    +0.000 A 
ATOM     30  C   UNL     1       7.434   4.695  16.037  0.00  0.00    +0.000 A 
ATOM     31  C   UNL     1       6.834   4.473  14.798  0.00  0.00    +0.000 A 
ATOM     32  C   UNL     1       5.460   4.256  14.715  0.00  0.00    +0.000 A 
ATOM     33  C   UNL     1       4.682   4.274  15.873  0.00  0.00    +0.000 A 
ENDBRANCH  27  28
ENDBRANCH  24  27
ENDBRANCH  12  21
BRANCH   1  35
ATOM     34  C   UNL     1      -7.862  13.375  18.113  0.00  0.00    +0.000 C 
ATOM     35  O   UNL     1      -7.685  13.139  19.510  0.00  0.00    +0.000 OA
ENDBRANCH   1  35
BRANCH  19  36
ATOM     36  O   UNL     1      -6.784  15.605  20.797  0.00  0.00    +0.000 OA
ATOM     37  C   UNL     1      -7.917  15.511  21.641  0.00  0.00    +0.000 C 
ENDBRANCH  19  36
TORSDOF 5
ENDMDL
MODEL 7
REMARK VINA RESULT:      -7.7      1.124      1.595
REMARK  Name = 
REMARK  7 active torsions:
REMARK  status: ('A' for Active; 'I' for Inactive)
REMARK    1  A    between atoms: C_1  and  O_2
REMARK    2  A    between atoms: O_2  and  C_3
REMARK    3  A    between atoms: N_14  and  C_15
REMARK    4  A    between atoms: C_18  and  O_19
REMARK    5  A    between atoms: O_19  and  C_20
REMARK    6  A    between atoms: C_34  and  O_35
REMARK    7  A    between atoms: O_35  and  C_36
REMARK                            x       y       z     vdW  Elec       q    Type
REMARK                         _______ _______ _______ _____ _____    ______ ____
ROOT
ATOM      1  C   UNL     1      -5.676  12.198  18.283  0.00  0.00    +0.000 A 
ATOM      2  C   UNL     1      -4.690  11.249  18.052  0.00  0.00    +0.000 A 
ATOM      3  C   UNL     1      -3.565  11.225  18.847  0.00  0.00    +0.000 A 
ATOM      4  C   UNL     1      -3.327  12.194  19.840  0.00  0.00    +0.000 A 
ATOM      5  C   UNL     1      -2.139  12.235  20.599  0.00  0.00    +0.000 A 
ATOM      6  N   UNL     1      -1.107  11.361  20.310  0.00  0.00    +0.000 N 
ATOM      7  C   UNL     1      -0.229  10.892  21.381  0.00  0.00    +0.000 C 
ATOM      8  C   UNL     1       0.144   9.433  21.041  0.00  0.00    +0.000 C 
ATOM      9  N   UNL     1       0.701   9.303  19.675  0.00  0.00    +0.000 N 
ATOM     10  C   UNL     1       1.686   8.356  19.487  0.00  0.00    +0.000 C 
ATOM     11  O   UNL     1       2.087   7.686  20.428  0.00  0.00    +0.000 OA
ATOM     12  N   UNL     1       2.185   8.267  18.210  0.00  0.00    +0.000 N 
ATOM     13  C   UNL     1      -0.112   9.928  18.619  0.00  0.00    +0.000 C 
ATOM     14  C   UNL     1      -0.460  11.384  18.989  0.00  0.00    +0.000 C 
ATOM     15  N   UNL     1      -1.996  13.068  21.640  0.00  0.00    +0.000 NA
ATOM     16  C   UNL     1      -3.013  13.905  21.865  0.00  0.00    +0.000 A 
ATOM     17  N   UNL     1      -4.144  13.998  21.151  0.00  0.00    +0.000 NA
ATOM     18  C   UNL     1      -4.318  13.136  20.128  0.00  0.00    +0.000 A 
ATOM     19  C   UNL     1      -5.498  13.136  19.328  0.00  0.00    +0.000 A 
ATOM     20  H   UNL     1       2.060   9.071  17.620  0.00  0.00    +0.000 HD
ENDROOT
BRANCH  12  21
ATOM     21  C   UNL     1       3.152   7.339  17.773  0.00  0.00    +0.000 A 
ATOM     22  C   UNL     1       4.402   7.716  17.280  0.00  0.00    +0.000 A 
ATOM     23  C   UNL     1       5.311   6.753  16.849  0.00  0.00    +0.000 A 
ATOM     24  C   UNL     1       4.989   5.404  16.921  0.00  0.00    +0.000 A 
ATOM     25  C   UNL     1       3.727   5.017  17.380  0.00  0.00    +0.000 A 
ATOM     26  C   UNL     1       2.827   5.980  17.840  0.00  0.00    +0.000 A 
BRANCH  24  27
ATOM     27  O   UNL     1       5.956   4.538  16.473  0.00  0.00    +0.000 OA
BRANCH  27  28
ATOM     28  C   UNL     1       6.211   4.433  15.127  0.00  0.00    +0.000 A 
ATOM     29  C   UNL     1       5.221   3.794  14.380  0.00  0.00    +0.000 A 
ATOM     30  C   UNL     1       5.389   3.610  13.008  0.00  0.00    +0.000 A 
ATOM     31  C   UNL     1       6.548   4.065  12.381  0.00  0.00    +0.000 A 
ATOM     32  C   UNL     1       7.519   4.743  13.115  0.00  0.00    +0.000 A 
ATOM     33  C   UNL     1       7.337   4.954  14.482  0.00  0.00    +0.000 A 
ENDBRANCH  27  28
ENDBRANCH  24  27
ENDBRANCH  12  21
BRANCH   1  35
ATOM     34  C   UNL     1      -6.985  13.427  16.721  0.00  0.00    +0.000 C 
ATOM     35  O   UNL     1      -6.794  12.241  17.491  0.00  0.00    +0.000 OA
ENDBRANCH   1  35
BRANCH  19  36
ATOM     36  O   UNL     1      -6.399  14.116  19.700  0.00  0.00    +0.000 OA
ATOM     37  C   UNL     1      -7.488  13.780  20.540  0.00  0.00    +0.000 C 
ENDBRANCH  19  36
TORSDOF 5
ENDMDL
MODEL 8
REMARK VINA RESULT:      -7.7      3.010      5.190
REMARK  Name = 
REMARK  7 active torsions:
REMARK  status: ('A' for Active; 'I' for Inactive)
REMARK    1  A    between atoms: C_1  and  O_2
REMARK    2  A    between atoms: O_2  and  C_3
REMARK    3  A    between atoms: N_14  and  C_15
REMARK    4  A    between atoms: C_18  and  O_19
REMARK    5  A    between atoms: O_19  and  C_20
REMARK    6  A    between atoms: C_34  and  O_35
REMARK    7  A    between atoms: O_35  and  C_36
REMARK                            x       y       z     vdW  Elec       q    Type
REMARK                         _______ _______ _______ _____ _____    ______ ____
ROOT
ATOM      1  C   UNL     1      -1.786  16.482  24.996  0.00  0.00    +0.000 A 
ATOM      2  C   UNL     1      -1.017  15.616  24.230  0.00  0.00    +0.000 A 
ATOM      3  C   UNL     1      -1.632  14.769  23.334  0.00  0.00    +0.000 A 
ATOM      4  C   UNL     1      -3.032  14.679  23.225  0.00  0.00    +0.000 A 
ATOM      5  C   UNL     1      -3.675  13.752  22.378  0.00  0.00    +0.000 A 
ATOM      6  N   UNL     1      -2.926  12.816  21.687  0.00  0.00    +0.000 N 
ATOM      7  C   UNL     1      -3.379  12.344  20.380  0.00  0.00    +0.000 C 
ATOM      8  C   UNL     1      -2.111  12.104  19.533  0.00  0.00    +0.000 C 
ATOM      9  N   UNL     1      -1.143  11.216  20.217  0.00  0.00    +0.000 N 
ATOM     10  C   UNL     1      -0.405  10.362  19.423  0.00  0.00    +0.000 C 
ATOM     11  O   UNL     1      -0.582  10.336  18.213  0.00  0.00    +0.000 OA
ATOM     12  N   UNL     1       0.478   9.548  20.090  0.00  0.00    +0.000 N 
ATOM     13  C   UNL     1      -0.821  11.608  21.599  0.00  0.00    +0.000 C 
ATOM     14  C   UNL     1      -2.109  11.834  22.415  0.00  0.00    +0.000 C 
ATOM     15  N   UNL     1      -5.000  13.785  22.175  0.00  0.00    +0.000 NA
ATOM     16  C   UNL     1      -5.679  14.695  22.879  0.00  0.00    +0.000 A 
ATOM     17  N   UNL     1      -5.170  15.560  23.767  0.00  0.00    +0.000 NA
ATOM     18  C   UNL     1      -3.833  15.566  23.949  0.00  0.00    +0.000 A 
ATOM     19  C   UNL     1      -3.193  16.467  24.849  0.00  0.00    +0.000 A 
ATOM     20  H   UNL     1       0.296   9.391  21.067  0.00  0.00    +0.000 HD
ENDROOT
BRANCH  12  21
ATOM     21  C   UNL     1       1.371   8.642  19.486  0.00  0.00    +0.000 A 
ATOM     22  C   UNL     1       1.764   7.445  20.087  0.00  0.00    +0.000 A 
ATOM     23  C   UNL     1       2.663   6.594  19.446  0.00  0.00    +0.000 A 
ATOM     24  C   UNL     1       3.164   6.921  18.192  0.00  0.00    +0.000 A 
ATOM     25  C   UNL     1       2.803   8.133  17.598  0.00  0.00    +0.000 A 
ATOM     26  C   UNL     1       1.880   8.971  18.226  0.00  0.00    +0.000 A 
BRANCH  24  27
ATOM     27  O   UNL     1       4.039   6.014  17.647  0.00  0.00    +0.000 OA
BRANCH  27  28
ATOM     28  C   UNL     1       5.390   6.155  17.857  0.00  0.00    +0.000 A 
ATOM     29  C   UNL     1       5.962   5.208  18.707  0.00  0.00    +0.000 A 
ATOM     30  C   UNL     1       7.322   5.272  19.011  0.00  0.00    +0.000 A 
ATOM     31  C   UNL     1       8.110   6.284  18.466  0.00  0.00    +0.000 A 
ATOM     32  C   UNL     1       7.552   7.206  17.582  0.00  0.00    +0.000 A 
ATOM     33  C   UNL     1       6.199   7.122  17.254  0.00  0.00    +0.000 A 
ENDBRANCH  27  28
ENDBRANCH  24  27
ENDBRANCH  12  21
BRANCH   1  35
ATOM     34  C   UNL     1      -0.057  16.802  26.600  0.00  0.00    +0.000 C 
ATOM     35  O   UNL     1      -1.188  17.321  25.901  0.00  0.00    +0.000 OA
ENDBRANCH   1  35
BRANCH  19  36
ATOM     36  O   UNL     1      -4.087  17.286  25.514  0.00  0.00    +0.000 OA
ATOM     37  C   UNL     1      -4.243  18.631  25.097  0.00  0.00    +0.000 C 
ENDBRANCH  19  36
TORSDOF 5
ENDMDL
MODEL 9
REMARK VINA RESULT:      -7.6      6.747      7.955
REMARK  Name = 
REMARK  7 active torsions:
REMARK  status: ('A' for Active; 'I' for Inactive)
REMARK    1  A    between atoms: C_1  and  O_2
REMARK    2  A    between atoms: O_2  and  C_3
REMARK    3  A    between atoms: N_14  and  C_15
REMARK    4  A    between atoms: C_18  and  O_19
REMARK    5  A    between atoms: O_19  and  C_20
REMARK    6  A    between atoms: C_34  and  O_35
REMARK    7  A    between atoms: O_35  and  C_36
REMARK                            x       y       z     vdW  Elec       q    Type
REMARK                         _______ _______ _______ _____ _____    ______ ____
ROOT
ATOM      1  C   UNL     1      -3.492  10.891  17.073  0.00  0.00    +0.000 A 
ATOM      2  C   UNL     1      -2.145  11.226  17.053  0.00  0.00    +0.000 A 
ATOM      3  C   UNL     1      -1.602  11.939  18.099  0.00  0.00    +0.000 A 
ATOM      4  C   UNL     1      -2.387  12.431  19.160  0.00  0.00    +0.000 A 
ATOM      5  C   UNL     1      -1.861  13.239  20.188  0.00  0.00    +0.000 A 
ATOM      6  N   UNL     1      -0.546  13.664  20.126  0.00  0.00    +0.000 N 
ATOM      7  C   UNL     1       0.210  13.873  21.360  0.00  0.00    +0.000 C 
ATOM      8  C   UNL     1       1.667  13.460  21.063  0.00  0.00    +0.000 C 
ATOM      9  N   UNL     1       2.211  14.151  19.872  0.00  0.00    +0.000 N 
ATOM     10  C   UNL     1       3.552  14.476  19.893  0.00  0.00    +0.000 C 
ATOM     11  O   UNL     1       4.234  14.220  20.876  0.00  0.00    +0.000 OA
ATOM     12  N   UNL     1       4.023  15.122  18.776  0.00  0.00    +0.000 N 
ATOM     13  C   UNL     1       1.358  14.076  18.675  0.00  0.00    +0.000 C 
ATOM     14  C   UNL     1      -0.087  14.501  19.008  0.00  0.00    +0.000 C 
ATOM     15  N   UNL     1      -2.587  13.569  21.266  0.00  0.00    +0.000 NA
ATOM     16  C   UNL     1      -3.856  13.151  21.268  0.00  0.00    +0.000 A 
ATOM     17  N   UNL     1      -4.469  12.451  20.303  0.00  0.00    +0.000 NA
ATOM     18  C   UNL     1      -3.736  12.076  19.233  0.00  0.00    +0.000 A 
ATOM     19  C   UNL     1      -4.288  11.306  18.168  0.00  0.00    +0.000 A 
ATOM     20  H   UNL     1       3.340  15.593  18.207  0.00  0.00    +0.000 HD
ENDROOT
BRANCH  12  21
ATOM     21  C   UNL     1       5.362  15.499  18.552  0.00  0.00    +0.000 A 
ATOM     22  C   UNL     1       6.292  14.668  17.925  0.00  0.00    +0.000 A 
ATOM     23  C   UNL     1       7.607  15.089  17.745  0.00  0.00    +0.000 A 
ATOM     24  C   UNL     1       8.003  16.350  18.173  0.00  0.00    +0.000 A 
ATOM     25  C   UNL     1       7.089  17.176  18.832  0.00  0.00    +0.000 A 
ATOM     26  C   UNL     1       5.763  16.766  18.986  0.00  0.00    +0.000 A 
BRANCH  24  27
ATOM     27  O   UNL     1       9.319  16.669  17.945  0.00  0.00    +0.000 OA
BRANCH  27  28
ATOM     28  C   UNL     1      10.308  15.777  18.284  0.00  0.00    +0.000 A 
ATOM     29  C   UNL     1      11.021  15.240  17.211  0.00  0.00    +0.000 A 
ATOM     30  C   UNL     1      12.030  14.305  17.438  0.00  0.00    +0.000 A 
ATOM     31  C   UNL     1      12.327  13.904  18.740  0.00  0.00    +0.000 A 
ATOM     32  C   UNL     1      11.648  14.471  19.818  0.00  0.00    +0.000 A 
ATOM     33  C   UNL     1      10.660  15.429  19.591  0.00  0.00    +0.000 A 
ENDBRANCH  27  28
ENDBRANCH  24  27
ENDBRANCH  12  21
BRANCH   1  35
ATOM     34  C   UNL     1      -3.434  10.358  14.754  0.00  0.00    +0.000 C 
ATOM     35  O   UNL     1      -4.047  10.193  16.033  0.00  0.00    +0.000 OA
ENDBRANCH   1  35
BRANCH  19  36
ATOM     36  O   UNL     1      -5.630  11.026  18.347  0.00  0.00    +0.000 OA
ATOM     37  C   UNL     1      -6.602  11.839  17.714  0.00  0.00    +0.000 C 
ENDBRANCH  19  36
TORSDOF 5
ENDMDL
