MODEL 1
REMARK VINA RESULT:      -8.0      0.000      0.000
REMARK  Name = 
REMARK  9 active torsions:
REMARK  status: ('A' for Active; 'I' for Inactive)
REMARK    1  A    between atoms: C_1  and  C_2
REMARK    2  A    between atoms: N_4  and  C_5
REMARK    3  A    between atoms: N_4  and  C_12
REMARK    4  A    between atoms: C_5  and  C_6
REMARK    5  A    between atoms: C_9  and  C_10
REMARK    6  A    between atoms: N_15  and  C_16
REMARK    7  A    between atoms: C_16  and  C_17
REMARK    8  A    between atoms: C_18  and  C_19
REMARK    9  A    between atoms: C_22  and  C_23
REMARK                            x       y       z     vdW  Elec       q    Type
REMARK                         _______ _______ _______ _____ _____    ______ ____
ROOT
ATOM      1  C   UNL     1       4.919   4.548  17.427  0.00  0.00    +0.000 C 
ATOM      2  C   UNL     1       4.126   5.817  17.160  0.00  0.00    +0.000 C 
ATOM      3  C   UNL     1       4.226   6.559  18.481  0.00  0.00    +0.000 C 
ATOM      4  N   UNL     1       4.102   5.520  19.527  0.00  0.00    +0.000 NA
ATOM      5  C   UNL     1       4.725   4.306  18.943  0.00  0.00    +0.000 C 
ENDROOT
BRANCH   1   9
ATOM      6  C   UNL     1       5.520   3.992  14.645  0.00  0.00    +0.000 C 
ATOM      7  C   UNL     1       6.611   4.501  15.556  0.00  0.00    +0.000 C 
ATOM      8  O   UNL     1       7.732   4.730  15.102  0.00  0.00    +0.000 OA
ATOM      9  N   UNL     1       6.305   4.650  16.910  0.00  0.00    +0.000 N 
BRANCH   9  10
ATOM     10  C   UNL     1       7.404   5.134  17.770  0.00  0.00    +0.000 C 
BRANCH  10  11
ATOM     11  C   UNL     1       7.572   6.626  17.834  0.00  0.00    +0.000 A 
ATOM     12  N   UNL     1       7.179   7.403  16.810  0.00  0.00    +0.000 NA
ATOM     13  O   UNL     1       7.667   8.664  17.148  0.00  0.00    +0.000 OA
ATOM     14  C   UNL     1       8.329   8.520  18.330  0.00  0.00    +0.000 A 
ATOM     15  C   UNL     1       9.029   9.708  18.848  0.00  0.00    +0.000 C 
ATOM     16  N   UNL     1       8.299   7.292  18.800  0.00  0.00    +0.000 NA
ENDBRANCH  10  11
ENDBRANCH   9  10
ENDBRANCH   1   9
BRANCH   4  17
ATOM     17  C   UNL     1       2.673   5.350  19.845  0.00  0.00    +0.000 C 
BRANCH  17  18
ATOM     18  C   UNL     1       2.151   3.984  19.573  0.00  0.00    +0.000 A 
ATOM     19  C   UNL     1       1.472   3.568  18.389  0.00  0.00    +0.000 A 
ATOM     20  C   UNL     1       1.124   4.355  17.181  0.00  0.00    +0.000 C 
ATOM     21  N   UNL     1       1.106   2.283  18.455  0.00  0.00    +0.000 NA
ATOM     22  O   UNL     1       1.507   1.844  19.697  0.00  0.00    +0.000 OA
ATOM     23  C   UNL     1       2.106   2.858  20.374  0.00  0.00    +0.000 A 
ATOM     24  C   UNL     1       2.545   2.531  21.744  0.00  0.00    +0.000 C 
ENDBRANCH  17  18
ENDBRANCH   4  17
TORSDOF 5
ENDMDL
MODEL 2
REMARK VINA RESULT:      -7.6      0.435      1.665
REMARK  Name = 
REMARK  9 active torsions:
REMARK  status: ('A' for Active; 'I' for Inactive)
REMARK    1  A    between atoms: C_1  and  C_2
REMARK    2  A    between atoms: N_4  and  C_5
REMARK    3  A    between atoms: N_4  and  C_12
REMARK    4  A    between atoms: C_5  and  C_6
REMARK    5  A    between atoms: C_9  and  C_10
REMARK    6  A    between atoms: N_15  and  C_16
REMARK    7  A    between atoms: C_16  and  C_17
REMARK    8  A    between atoms: C_18  and  C_19
REMARK    9  A    between atoms: C_22  and  C_23
REMARK                            x       y       z     vdW  Elec       q    Type
REMARK                         _______ _______ _______ _____ _____    ______ ____
ROOT
ATOM      1  C   UNL     1       4.790   4.680  17.313  0.00  0.00    +0.000 C 
ATOM      2  C   UNL     1       4.130   6.049  17.270  0.00  0.00    +0.000 C 
ATOM      3  C   UNL     1       4.301   6.549  18.694  0.00  0.00    +0.000 C 
ATOM      4  N   UNL     1       4.070   5.369  19.555  0.00  0.00    +0.000 NA
ATOM      5  C   UNL     1       4.569   4.211  18.771  0.00  0.00    +0.000 C 
ENDROOT
BRANCH   1   9
ATOM      6  C   UNL     1       5.371   4.149  14.522  0.00  0.00    +0.000 C 
ATOM      7  C   UNL     1       6.483   4.590  15.445  0.00  0.00    +0.000 C 
ATOM      8  O   UNL     1       7.615   4.775  14.997  0.00  0.00    +0.000 OA
ATOM      9  N   UNL     1       6.180   4.727  16.800  0.00  0.00    +0.000 N 
BRANCH   9  10
ATOM     10  C   UNL     1       7.299   5.143  17.671  0.00  0.00    +0.000 C 
BRANCH  10  11
ATOM     11  C   UNL     1       7.518   6.626  17.786  0.00  0.00    +0.000 A 
ATOM     12  N   UNL     1       7.192   7.446  16.772  0.00  0.00    +0.000 NA
ATOM     13  O   UNL     1       7.712   8.678  17.165  0.00  0.00    +0.000 OA
ATOM     14  C   UNL     1       8.323   8.475  18.366  0.00  0.00    +0.000 A 
ATOM     15  C   UNL     1       9.045   9.621  18.946  0.00  0.00    +0.000 C 
ATOM     16  N   UNL     1       8.230   7.237  18.798  0.00  0.00    +0.000 NA
ENDBRANCH  10  11
ENDBRANCH   9  10
ENDBRANCH   1   9
BRANCH   4  17
ATOM     17  C   UNL     1       2.631   5.292  19.861  0.00  0.00    +0.000 C 
BRANCH  17  18
ATOM     18  C   UNL     1       1.992   4.013  19.451  0.00  0.00    +0.000 A 
ATOM     19  C   UNL     1       1.975   2.804  20.211  0.00  0.00    +0.000 A 
ATOM     20  C   UNL     1       2.566   2.525  21.542  0.00  0.00    +0.000 C 
ATOM     21  N   UNL     1       1.341   1.822  19.562  0.00  0.00    +0.000 NA
ATOM     22  O   UNL     1       0.962   2.358  18.351  0.00  0.00    +0.000 OA
ATOM     23  C   UNL     1       1.369   3.652  18.271  0.00  0.00    +0.000 A 
ATOM     24  C   UNL     1       1.064   4.332  16.999  0.00  0.00    +0.000 C 
ENDBRANCH  17  18
ENDBRANCH   4  17
TORSDOF 5
ENDMDL
MODEL 3
REMARK VINA RESULT:      -7.4      3.608      5.453
REMARK  Name = 
REMARK  9 active torsions:
REMARK  status: ('A' for Active; 'I' for Inactive)
REMARK    1  A    between atoms: C_1  and  C_2
REMARK    2  A    between atoms: N_4  and  C_5
REMARK    3  A    between atoms: N_4  and  C_12
REMARK    4  A    between atoms: C_5  and  C_6
REMARK    5  A    between atoms: C_9  and  C_10
REMARK    6  A    between atoms: N_15  and  C_16
REMARK    7  A    between atoms: C_16  and  C_17
REMARK    8  A    between atoms: C_18  and  C_19
REMARK    9  A    between atoms: C_22  and  C_23
REMARK                            x       y       z     vdW  Elec       q    Type
REMARK                         _______ _______ _______ _____ _____    ______ ____
ROOT
ATOM      1  C   UNL     1       2.676   5.431  19.221  0.00  0.00    +0.000 C 
ATOM      2  C   UNL     1       2.646   5.858  17.762  0.00  0.00    +0.000 C 
ATOM      3  C   UNL     1       3.194   7.274  17.817  0.00  0.00    +0.000 C 
ATOM      4  N   UNL     1       2.607   7.876  19.033  0.00  0.00    +0.000 NA
ATOM      5  C   UNL     1       2.472   6.753  19.996  0.00  0.00    +0.000 C 
ENDROOT
BRANCH   1   9
ATOM      6  C   UNL     1       2.460   2.608  19.849  0.00  0.00    +0.000 C 
ATOM      7  C   UNL     1       3.825   3.241  19.722  0.00  0.00    +0.000 C 
ATOM      8  O   UNL     1       4.835   2.546  19.831  0.00  0.00    +0.000 OA
ATOM      9  N   UNL     1       3.880   4.622  19.529  0.00  0.00    +0.000 N 
BRANCH   9  10
ATOM     10  C   UNL     1       5.234   5.204  19.427  0.00  0.00    +0.000 C 
BRANCH  10  11
ATOM     11  C   UNL     1       6.037   4.780  18.229  0.00  0.00    +0.000 A 
ATOM     12  N   UNL     1       7.375   4.677  18.304  0.00  0.00    +0.000 NA
ATOM     13  O   UNL     1       7.764   4.462  16.983  0.00  0.00    +0.000 OA
ATOM     14  C   UNL     1       6.624   4.482  16.236  0.00  0.00    +0.000 A 
ATOM     15  C   UNL     1       6.786   4.377  14.776  0.00  0.00    +0.000 C 
ATOM     16  N   UNL     1       5.535   4.667  16.949  0.00  0.00    +0.000 NA
ENDBRANCH  10  11
ENDBRANCH   9  10
ENDBRANCH   1   9
BRANCH   4  17
ATOM     17  C   UNL     1       1.320   8.494  18.671  0.00  0.00    +0.000 C 
BRANCH  17  18
ATOM     18  C   UNL     1       0.932   9.638  19.539  0.00  0.00    +0.000 A 
ATOM     19  C   UNL     1       1.267  11.009  19.317  0.00  0.00    +0.000 A 
ATOM     20  C   UNL     1       2.055  11.615  18.217  0.00  0.00    +0.000 C 
ATOM     21  N   UNL     1       0.791  11.796  20.287  0.00  0.00    +0.000 NA
ATOM     22  O   UNL     1       0.167  10.954  21.181  0.00  0.00    +0.000 OA
ATOM     23  C   UNL     1       0.270   9.668  20.753  0.00  0.00    +0.000 A 
ATOM     24  C   UNL     1      -0.322   8.656  21.647  0.00  0.00    +0.000 C 
ENDBRANCH  17  18
ENDBRANCH   4  17
TORSDOF 5
ENDMDL
MODEL 4
REMARK VINA RESULT:      -7.3      3.407      5.398
REMARK  Name = 
REMARK  9 active torsions:
REMARK  status: ('A' for Active; 'I' for Inactive)
REMARK    1  A    between atoms: C_1  and  C_2
REMARK    2  A    between atoms: N_4  and  C_5
REMARK    3  A    between atoms: N_4  and  C_12
REMARK    4  A    between atoms: C_5  and  C_6
REMARK    5  A    between atoms: C_9  and  C_10
REMARK    6  A    between atoms: N_15  and  C_16
REMARK    7  A    between atoms: C_16  and  C_17
REMARK    8  A    between atoms: C_18  and  C_19
REMARK    9  A    between atoms: C_22  and  C_23
REMARK                            x       y       z     vdW  Elec       q    Type
REMARK                         _______ _______ _______ _____ _____    ______ ____
ROOT
ATOM      1  C   UNL     1       2.282   4.571  19.507  0.00  0.00    +0.000 C 
ATOM      2  C   UNL     1       2.135   5.520  18.328  0.00  0.00    +0.000 C 
ATOM      3  C   UNL     1       2.703   6.820  18.872  0.00  0.00    +0.000 C 
ATOM      4  N   UNL     1       2.227   6.903  20.269  0.00  0.00    +0.000 NA
ATOM      5  C   UNL     1       2.160   5.497  20.741  0.00  0.00    +0.000 C 
ENDROOT
BRANCH   1   9
ATOM      6  C   UNL     1       2.888   2.525  21.471  0.00  0.00    +0.000 C 
ATOM      7  C   UNL     1       3.760   2.664  20.246  0.00  0.00    +0.000 C 
ATOM      8  O   UNL     1       4.687   1.876  20.060  0.00  0.00    +0.000 OA
ATOM      9  N   UNL     1       3.498   3.731  19.385  0.00  0.00    +0.000 N 
BRANCH   9  10
ATOM     10  C   UNL     1       4.384   3.842  18.209  0.00  0.00    +0.000 C 
BRANCH  10  11
ATOM     11  C   UNL     1       5.584   4.732  18.379  0.00  0.00    +0.000 A 
ATOM     12  N   UNL     1       6.209   4.817  19.565  0.00  0.00    +0.000 NA
ATOM     13  O   UNL     1       7.118   5.858  19.384  0.00  0.00    +0.000 OA
ATOM     14  C   UNL     1       6.934   6.317  18.114  0.00  0.00    +0.000 A 
ATOM     15  C   UNL     1       7.718   7.499  17.715  0.00  0.00    +0.000 C 
ATOM     16  N   UNL     1       6.010   5.659  17.449  0.00  0.00    +0.000 NA
ENDBRANCH  10  11
ENDBRANCH   9  10
ENDBRANCH   1   9
BRANCH   4  17
ATOM     17  C   UNL     1       0.922   7.586  20.276  0.00  0.00    +0.000 C 
BRANCH  17  18
ATOM     18  C   UNL     1       1.013   9.066  20.398  0.00  0.00    +0.000 A 
ATOM     19  C   UNL     1       0.783   9.823  21.586  0.00  0.00    +0.000 A 
ATOM     20  C   UNL     1       0.407   9.352  22.941  0.00  0.00    +0.000 C 
ATOM     21  N   UNL     1       0.920  11.135  21.369  0.00  0.00    +0.000 NA
ATOM     22  O   UNL     1       1.206  11.265  20.028  0.00  0.00    +0.000 OA
ATOM     23  C   UNL     1       1.238  10.039  19.442  0.00  0.00    +0.000 A 
ATOM     24  C   UNL     1       1.492  10.039  17.990  0.00  0.00    +0.000 C 
ENDBRANCH  17  18
ENDBRANCH   4  17
TORSDOF 5
ENDMDL
MODEL 5
REMARK VINA RESULT:      -7.2      2.430      6.291
REMARK  Name = 
REMARK  9 active torsions:
REMARK  status: ('A' for Active; 'I' for Inactive)
REMARK    1  A    between atoms: C_1  and  C_2
REMARK    2  A    between atoms: N_4  and  C_5
REMARK    3  A    between atoms: N_4  and  C_12
REMARK    4  A    between atoms: C_5  and  C_6
REMARK    5  A    between atoms: C_9  and  C_10
REMARK    6  A    between atoms: N_15  and  C_16
REMARK    7  A    between atoms: C_16  and  C_17
REMARK    8  A    between atoms: C_18  and  C_19
REMARK    9  A    between atoms: C_22  and  C_23
REMARK                            x       y       z     vdW  Elec       q    Type
REMARK                         _______ _______ _______ _____ _____    ______ ____
ROOT
ATOM      1  C   UNL     1       3.291   3.232  18.491  0.00  0.00    +0.000 C 
ATOM      2  C   UNL     1       4.747   3.469  18.861  0.00  0.00    +0.000 C 
ATOM      3  C   UNL     1       5.131   4.640  17.972  0.00  0.00    +0.000 C 
ATOM      4  N   UNL     1       4.473   4.381  16.673  0.00  0.00    +0.000 NA
ATOM      5  C   UNL     1       3.210   3.676  17.012  0.00  0.00    +0.000 C 
ENDROOT
BRANCH   1   9
ATOM      6  C   UNL     1       0.559   2.307  18.786  0.00  0.00    +0.000 C 
ATOM      7  C   UNL     1       1.088   3.378  19.711  0.00  0.00    +0.000 C 
ATOM      8  O   UNL     1       0.376   3.812  20.617  0.00  0.00    +0.000 OA
ATOM      9  N   UNL     1       2.370   3.869  19.461  0.00  0.00    +0.000 N 
BRANCH   9  10
ATOM     10  C   UNL     1       2.843   4.928  20.377  0.00  0.00    +0.000 C 
BRANCH  10  11
ATOM     11  C   UNL     1       2.499   6.336  19.978  0.00  0.00    +0.000 A 
ATOM     12  N   UNL     1       1.710   7.094  20.758  0.00  0.00    +0.000 NA
ATOM     13  O   UNL     1       1.468   8.225  19.980  0.00  0.00    +0.000 OA
ATOM     14  C   UNL     1       2.114   8.027  18.796  0.00  0.00    +0.000 A 
ATOM     15  C   UNL     1       1.922   9.051  17.755  0.00  0.00    +0.000 C 
ATOM     16  N   UNL     1       2.768   6.887  18.742  0.00  0.00    +0.000 NA
ENDBRANCH  10  11
ENDBRANCH   9  10
ENDBRANCH   1   9
BRANCH   4  17
ATOM     17  C   UNL     1       5.386   3.579  15.841  0.00  0.00    +0.000 C 
BRANCH  17  18
ATOM     18  C   UNL     1       6.367   4.386  15.067  0.00  0.00    +0.000 A 
ATOM     19  C   UNL     1       6.619   4.279  13.666  0.00  0.00    +0.000 A 
ATOM     20  C   UNL     1       5.999   3.373  12.669  0.00  0.00    +0.000 C 
ATOM     21  N   UNL     1       7.574   5.126  13.269  0.00  0.00    +0.000 NA
ATOM     22  O   UNL     1       7.991   5.779  14.408  0.00  0.00    +0.000 OA
ATOM     23  C   UNL     1       7.293   5.324  15.482  0.00  0.00    +0.000 A 
ATOM     24  C   UNL     1       7.676   5.914  16.779  0.00  0.00    +0.000 C 
ENDBRANCH  17  18
ENDBRANCH   4  17
TORSDOF 5
ENDMDL
MODEL 6
REMARK VINA RESULT:      -7.2      3.447      5.161
REMARK  Name = 
REMARK  9 active torsions:
REMARK  status: ('A' for Active; 'I' for Inactive)
REMARK    1  A    between atoms: C_1  and  C_2
REMARK    2  A    between atoms: N_4  and  C_5
REMARK    3  A    between atoms: N_4  and  C_12
REMARK    4  A    between atoms: C_5  and  C_6
REMARK    5  A    between atoms: C_9  and  C_10
REMARK    6  A    between atoms: N_15  and  C_16
REMARK    7  A    between atoms: C_16  and  C_17
REMARK    8  A    between atoms: C_18  and  C_19
REMARK    9  A    between atoms: C_22  and  C_23
REMARK                            x       y       z     vdW  Elec       q    Type
REMARK                         _______ _______ _______ _____ _____    ______ ____
ROOT
ATOM      1  C   UNL     1       2.327   4.620  19.399  0.00  0.00    +0.000 C 
ATOM      2  C   UNL     1       2.182   5.479  18.154  0.00  0.00    +0.000 C 
ATOM      3  C   UNL     1       2.745   6.817  18.603  0.00  0.00    +0.000 C 
ATOM      4  N   UNL     1       2.263   7.000  19.989  0.00  0.00    +0.000 NA
ATOM      5  C   UNL     1       2.197   5.632  20.561  0.00  0.00    +0.000 C 
ENDROOT
BRANCH   1   9
ATOM      6  C   UNL     1       2.858   2.625  21.436  0.00  0.00    +0.000 C 
ATOM      7  C   UNL     1       3.774   2.732  20.240  0.00  0.00    +0.000 C 
ATOM      8  O   UNL     1       4.706   1.938  20.109  0.00  0.00    +0.000 OA
ATOM      9  N   UNL     1       3.544   3.776  19.343  0.00  0.00    +0.000 N 
BRANCH   9  10
ATOM     10  C   UNL     1       4.473   3.855  18.197  0.00  0.00    +0.000 C 
BRANCH  10  11
ATOM     11  C   UNL     1       5.658   4.762  18.380  0.00  0.00    +0.000 A 
ATOM     12  N   UNL     1       6.259   4.868  19.578  0.00  0.00    +0.000 NA
ATOM     13  O   UNL     1       7.158   5.918  19.403  0.00  0.00    +0.000 OA
ATOM     14  C   UNL     1       6.994   6.361  18.125  0.00  0.00    +0.000 A 
ATOM     15  C   UNL     1       7.771   7.548  17.728  0.00  0.00    +0.000 C 
ATOM     16  N   UNL     1       6.091   5.684  17.449  0.00  0.00    +0.000 NA
ENDBRANCH  10  11
ENDBRANCH   9  10
ENDBRANCH   1   9
BRANCH   4  17
ATOM     17  C   UNL     1       0.956   7.679  19.941  0.00  0.00    +0.000 C 
BRANCH  17  18
ATOM     18  C   UNL     1       1.008   9.119  20.306  0.00  0.00    +0.000 A 
ATOM     19  C   UNL     1       1.326  10.196  19.424  0.00  0.00    +0.000 A 
ATOM     20  C   UNL     1       1.676  10.155  17.983  0.00  0.00    +0.000 C 
ATOM     21  N   UNL     1       1.311  11.374  20.056  0.00  0.00    +0.000 NA
ATOM     22  O   UNL     1       1.018  11.088  21.371  0.00  0.00    +0.000 OA
ATOM     23  C   UNL     1       0.862   9.748  21.529  0.00  0.00    +0.000 A 
ATOM     24  C   UNL     1       0.586   9.302  22.907  0.00  0.00    +0.000 C 
ENDBRANCH  17  18
ENDBRANCH   4  17
TORSDOF 5
ENDMDL
MODEL 7
REMARK VINA RESULT:      -7.2      2.626      6.439
REMARK  Name = 
REMARK  9 active torsions:
REMARK  status: ('A' for Active; 'I' for Inactive)
REMARK    1  A    between atoms: C_1  and  C_2
REMARK    2  A    between atoms: N_4  and  C_5
REMARK    3  A    between atoms: N_4  and  C_12
REMARK    4  A    between atoms: C_5  and  C_6
REMARK    5  A    between atoms: C_9  and  C_10
REMARK    6  A    between atoms: N_15  and  C_16
REMARK    7  A    between atoms: C_16  and  C_17
REMARK    8  A    between atoms: C_18  and  C_19
REMARK    9  A    between atoms: C_22  and  C_23
REMARK                            x       y       z     vdW  Elec       q    Type
REMARK                         _______ _______ _______ _____ _____    ______ ____
ROOT
ATOM      1  C   UNL     1       3.032   3.323  18.156  0.00  0.00    +0.000 C 
ATOM      2  C   UNL     1       4.391   2.797  18.586  0.00  0.00    +0.000 C 
ATOM      3  C   UNL     1       5.342   3.863  18.068  0.00  0.00    +0.000 C 
ATOM      4  N   UNL     1       4.810   4.255  16.745  0.00  0.00    +0.000 NA
ATOM      5  C   UNL     1       3.336   4.115  16.863  0.00  0.00    +0.000 C 
ENDROOT
BRANCH   1   9
ATOM      6  C   UNL     1       0.367   2.549  19.001  0.00  0.00    +0.000 C 
ATOM      7  C   UNL     1       1.114   3.615  19.769  0.00  0.00    +0.000 C 
ATOM      8  O   UNL     1       0.611   4.108  20.779  0.00  0.00    +0.000 OA
ATOM      9  N   UNL     1       2.345   4.032  19.262  0.00  0.00    +0.000 N 
BRANCH   9  10
ATOM     10  C   UNL     1       3.034   5.088  20.032  0.00  0.00    +0.000 C 
BRANCH  10  11
ATOM     11  C   UNL     1       2.626   6.499  19.712  0.00  0.00    +0.000 A 
ATOM     12  N   UNL     1       1.851   7.196  20.561  0.00  0.00    +0.000 NA
ATOM     13  O   UNL     1       1.535   8.350  19.846  0.00  0.00    +0.000 OA
ATOM     14  C   UNL     1       2.130   8.225  18.626  0.00  0.00    +0.000 A 
ATOM     15  C   UNL     1       1.855   9.286  17.642  0.00  0.00    +0.000 C 
ATOM     16  N   UNL     1       2.817   7.112  18.491  0.00  0.00    +0.000 NA
ENDBRANCH  10  11
ENDBRANCH   9  10
ENDBRANCH   1   9
BRANCH   4  17
ATOM     17  C   UNL     1       5.402   3.372  15.725  0.00  0.00    +0.000 C 
BRANCH  17  18
ATOM     18  C   UNL     1       6.292   4.073  14.761  0.00  0.00    +0.000 A 
ATOM     19  C   UNL     1       7.226   5.105  15.081  0.00  0.00    +0.000 A 
ATOM     20  C   UNL     1       7.530   5.718  16.397  0.00  0.00    +0.000 C 
ATOM     21  N   UNL     1       7.862   5.550  13.993  0.00  0.00    +0.000 NA
ATOM     22  O   UNL     1       7.333   4.844  12.935  0.00  0.00    +0.000 OA
ATOM     23  C   UNL     1       6.382   3.983  13.385  0.00  0.00    +0.000 A 
ATOM     24  C   UNL     1       5.702   3.193  12.342  0.00  0.00    +0.000 C 
ENDBRANCH  17  18
ENDBRANCH   4  17
TORSDOF 5
ENDMDL
MODEL 8
REMARK VINA RESULT:      -7.1      3.687      5.887
REMARK  Name = 
REMARK  9 active torsions:
REMARK  status: ('A' for Active; 'I' for Inactive)
REMARK    1  A    between atoms: C_1  and  C_2
REMARK    2  A    between atoms: N_4  and  C_5
REMARK    3  A    between atoms: N_4  and  C_12
REMARK    4  A    between atoms: C_5  and  C_6
REMARK    5  A    between atoms: C_9  and  C_10
REMARK    6  A    between atoms: N_15  and  C_16
REMARK    7  A    between atoms: C_16  and  C_17
REMARK    8  A    between atoms: C_18  and  C_19
REMARK    9  A    between atoms: C_22  and  C_23
REMARK                            x       y       z     vdW  Elec       q    Type
REMARK                         _______ _______ _______ _____ _____    ______ ____
ROOT
ATOM      1  C   UNL     1       2.258   5.495  19.328  0.00  0.00    +0.000 C 
ATOM      2  C   UNL     1       2.267   6.121  17.943  0.00  0.00    +0.000 C 
ATOM      3  C   UNL     1       2.891   7.484  18.197  0.00  0.00    +0.000 C 
ATOM      4  N   UNL     1       2.323   7.943  19.483  0.00  0.00    +0.000 NA
ATOM      5  C   UNL     1       2.117   6.706  20.279  0.00  0.00    +0.000 C 
ENDROOT
BRANCH   1   9
ATOM      6  C   UNL     1       1.870   2.643  19.689  0.00  0.00    +0.000 C 
ATOM      7  C   UNL     1       3.271   3.198  19.587  0.00  0.00    +0.000 C 
ATOM      8  O   UNL     1       4.236   2.434  19.601  0.00  0.00    +0.000 OA
ATOM      9  N   UNL     1       3.412   4.586  19.525  0.00  0.00    +0.000 N 
BRANCH   9  10
ATOM     10  C   UNL     1       4.799   5.088  19.443  0.00  0.00    +0.000 C 
BRANCH  10  11
ATOM     11  C   UNL     1       5.579   4.656  18.233  0.00  0.00    +0.000 A 
ATOM     12  N   UNL     1       6.917   4.543  18.286  0.00  0.00    +0.000 NA
ATOM     13  O   UNL     1       7.281   4.323  16.959  0.00  0.00    +0.000 OA
ATOM     14  C   UNL     1       6.130   4.350  16.231  0.00  0.00    +0.000 A 
ATOM     15  C   UNL     1       6.265   4.242  14.768  0.00  0.00    +0.000 C 
ATOM     16  N   UNL     1       5.054   4.545  16.961  0.00  0.00    +0.000 NA
ENDBRANCH  10  11
ENDBRANCH   9  10
ENDBRANCH   1   9
BRANCH   4  17
ATOM     17  C   UNL     1       1.076   8.675  19.206  0.00  0.00    +0.000 C 
BRANCH  17  18
ATOM     18  C   UNL     1       0.912   9.917  20.008  0.00  0.00    +0.000 A 
ATOM     19  C   UNL     1       0.303  10.007  21.296  0.00  0.00    +0.000 A 
ATOM     20  C   UNL     1      -0.299   8.935  22.126  0.00  0.00    +0.000 C 
ATOM     21  N   UNL     1       0.286  11.265  21.748  0.00  0.00    +0.000 NA
ATOM     22  O   UNL     1       0.851  12.028  20.750  0.00  0.00    +0.000 OA
ATOM     23  C   UNL     1       1.201  11.234  19.704  0.00  0.00    +0.000 A 
ATOM     24  C   UNL     1       1.780  11.937  18.544  0.00  0.00    +0.000 C 
ENDBRANCH  17  18
ENDBRANCH   4  17
TORSDOF 5
ENDMDL
MODEL 9
REMARK VINA RESULT:      -7.1      2.404      6.352
REMARK  Name = 
REMARK  9 active torsions:
REMARK  status: ('A' for Active; 'I' for Inactive)
REMARK    1  A    between atoms: C_1  and  C_2
REMARK    2  A    between atoms: N_4  and  C_5
REMARK    3  A    between atoms: N_4  and  C_12
REMARK    4  A    between atoms: C_5  and  C_6
REMARK    5  A    between atoms: C_9  and  C_10
REMARK    6  A    between atoms: N_15  and  C_16
REMARK    7  A    between atoms: C_16  and  C_17
REMARK    8  A    between atoms: C_18  and  C_19
REMARK    9  A    between atoms: C_22  and  C_23
REMARK                            x       y       z     vdW  Elec       q    Type
REMARK                         _______ _______ _______ _____ _____    ______ ____
ROOT
ATOM      1  C   UNL     1       3.301   3.216  18.579  0.00  0.00    +0.000 C 
ATOM      2  C   UNL     1       4.741   3.523  18.957  0.00  0.00    +0.000 C 
ATOM      3  C   UNL     1       5.086   4.688  18.044  0.00  0.00    +0.000 C 
ATOM      4  N   UNL     1       4.454   4.371  16.746  0.00  0.00    +0.000 NA
ATOM      5  C   UNL     1       3.218   3.622  17.088  0.00  0.00    +0.000 C 
ENDROOT
BRANCH   1   9
ATOM      6  C   UNL     1       0.617   2.165  18.893  0.00  0.00    +0.000 C 
ATOM      7  C   UNL     1       1.086   3.291  19.784  0.00  0.00    +0.000 C 
ATOM      8  O   UNL     1       0.349   3.717  20.673  0.00  0.00    +0.000 OA
ATOM      9  N   UNL     1       2.343   3.838  19.524  0.00  0.00    +0.000 N 
BRANCH   9  10
ATOM     10  C   UNL     1       2.757   4.948  20.407  0.00  0.00    +0.000 C 
BRANCH  10  11
ATOM     11  C   UNL     1       2.216   6.303  20.046  0.00  0.00    +0.000 A 
ATOM     12  N   UNL     1       2.573   6.898  18.895  0.00  0.00    +0.000 NA
ATOM     13  O   UNL     1       2.043   8.181  19.009  0.00  0.00    +0.000 OA
ATOM     14  C   UNL     1       1.438   8.244  20.229  0.00  0.00    +0.000 A 
ATOM     15  C   UNL     1       0.883   9.549  20.629  0.00  0.00    +0.000 C 
ATOM     16  N   UNL     1       1.508   7.119  20.906  0.00  0.00    +0.000 NA
ENDBRANCH  10  11
ENDBRANCH   9  10
ENDBRANCH   1   9
BRANCH   4  17
ATOM     17  C   UNL     1       5.409   3.588  15.942  0.00  0.00    +0.000 C 
BRANCH  17  18
ATOM     18  C   UNL     1       6.373   4.416  15.170  0.00  0.00    +0.000 A 
ATOM     19  C   UNL     1       6.629   4.315  13.769  0.00  0.00    +0.000 A 
ATOM     20  C   UNL     1       6.030   3.397  12.770  0.00  0.00    +0.000 C 
ATOM     21  N   UNL     1       7.566   5.183  13.374  0.00  0.00    +0.000 NA
ATOM     22  O   UNL     1       7.967   5.844  14.514  0.00  0.00    +0.000 OA
ATOM     23  C   UNL     1       7.279   5.374  15.587  0.00  0.00    +0.000 A 
ATOM     24  C   UNL     1       7.646   5.971  16.884  0.00  0.00    +0.000 C 
ENDBRANCH  17  18
ENDBRANCH   4  17
TORSDOF 5
ENDMDL
