MODEL 1
REMARK VINA RESULT:      -7.1      0.000      0.000
REMARK  Name = 
REMARK  5 active torsions:
REMARK  status: ('A' for Active; 'I' for Inactive)
REMARK    1  A    between atoms: C_2  and  C_3
REMARK    2  A    between atoms: C_6  and  N_7
REMARK    3  A    between atoms: C_19  and  O_20
REMARK    4  A    between atoms: C_19  and  C_21
REMARK    5  A    between atoms: C_21  and  O_22
REMARK                            x       y       z     vdW  Elec       q    Type
REMARK                         _______ _______ _______ _____ _____    ______ ____
ROOT
ATOM      1  O   UNL     1       2.433   4.894  17.562  0.00  0.00    +0.000 OA
ATOM      2  C   UNL     1       3.088   5.904  17.797  0.00  0.00    +0.000 C 
ATOM      3  N   UNL     1       4.308   6.184  17.161  0.00  0.00    +0.000 N 
ATOM      4  C   UNL     1       5.225   7.298  17.415  0.00  0.00    +0.000 C 
ATOM      5  C   UNL     1       6.579   6.737  17.843  0.00  0.00    +0.000 C 
ATOM      6  C   UNL     1       7.158   5.889  16.709  0.00  0.00    +0.000 C 
ATOM      7  C   UNL     1       6.193   4.765  16.285  0.00  0.00    +0.000 C 
ATOM      8  C   UNL     1       4.751   5.292  16.076  0.00  0.00    +0.000 C 
ENDROOT
BRANCH   2   9
ATOM      9  C   UNL     1       2.526   6.876  18.777  0.00  0.00    +0.000 A 
ATOM     10  C   UNL     1       2.261   8.189  18.378  0.00  0.00    +0.000 A 
ATOM     11  C   UNL     1       1.530   9.047  19.201  0.00  0.00    +0.000 A 
ATOM     12  C   UNL     1       1.173   8.647  20.494  0.00  0.00    +0.000 A 
ATOM     13  C   UNL     1       1.580   7.390  20.959  0.00  0.00    +0.000 A 
ATOM     14  C   UNL     1       2.236   6.498  20.098  0.00  0.00    +0.000 A 
ATOM     15 CL   UNL     1       2.592   4.933  20.748  0.00  0.00    +0.000 Cl
BRANCH  12  16
ATOM     16  N   UNL     1       0.385   9.516  21.301  0.00  0.00    +0.000 N 
ATOM     17  C   UNL     1       0.008   9.343  22.616  0.00  0.00    +0.000 A 
ATOM     18  C   UNL     1      -0.805  10.402  22.944  0.00  0.00    +0.000 A 
ATOM     19  C   UNL     1      -0.868  11.172  21.776  0.00  0.00    +0.000 A 
ATOM     20  N   UNL     1      -0.137  10.657  20.786  0.00  0.00    +0.000 NA
ENDBRANCH  12  16
ENDBRANCH   2   9
BRANCH   7  21
ATOM     21  O   UNL     1       6.160   3.763  17.321  0.00  0.00    +0.000 OA
ATOM     22  H   UNL     1       5.803   4.168  18.129  0.00  0.00    +0.000 HD
ENDBRANCH   7  21
BRANCH   7  23
ATOM     23  C   UNL     1       6.712   4.085  15.002  0.00  0.00    +0.000 C 
BRANCH  23  24
ATOM     24  O   UNL     1       7.190   5.046  14.067  0.00  0.00    +0.000 OA
ATOM     25  H   UNL     1       7.807   5.625  14.555  0.00  0.00    +0.000 HD
ENDBRANCH  23  24
ENDBRANCH   7  23
TORSDOF 5
ENDMDL
MODEL 2
REMARK VINA RESULT:      -7.0      3.034      3.940
REMARK  Name = 
REMARK  5 active torsions:
REMARK  status: ('A' for Active; 'I' for Inactive)
REMARK    1  A    between atoms: C_2  and  C_3
REMARK    2  A    between atoms: C_6  and  N_7
REMARK    3  A    between atoms: C_19  and  O_20
REMARK    4  A    between atoms: C_19  and  C_21
REMARK    5  A    between atoms: C_21  and  O_22
REMARK                            x       y       z     vdW  Elec       q    Type
REMARK                         _______ _______ _______ _____ _____    ______ ____
ROOT
ATOM      1  O   UNL     1       3.445   6.915  18.446  0.00  0.00    +0.000 OA
ATOM      2  C   UNL     1       2.642   6.615  19.323  0.00  0.00    +0.000 C 
ATOM      3  N   UNL     1       2.511   5.308  19.820  0.00  0.00    +0.000 N 
ATOM      4  C   UNL     1       1.538   4.804  20.791  0.00  0.00    +0.000 C 
ATOM      5  C   UNL     1       0.709   3.702  20.136  0.00  0.00    +0.000 C 
ATOM      6  C   UNL     1       1.628   2.547  19.735  0.00  0.00    +0.000 C 
ATOM      7  C   UNL     1       2.768   3.017  18.810  0.00  0.00    +0.000 C 
ATOM      8  C   UNL     1       3.467   4.286  19.359  0.00  0.00    +0.000 C 
ENDROOT
BRANCH   2   9
ATOM      9  C   UNL     1       1.807   7.709  19.894  0.00  0.00    +0.000 A 
ATOM     10  C   UNL     1       1.382   7.636  21.224  0.00  0.00    +0.000 A 
ATOM     11  C   UNL     1       0.799   8.742  21.844  0.00  0.00    +0.000 A 
ATOM     12  C   UNL     1       0.505   9.892  21.101  0.00  0.00    +0.000 A 
ATOM     13  C   UNL     1       0.780   9.909  19.728  0.00  0.00    +0.000 A 
ATOM     14  C   UNL     1       1.447   8.830  19.128  0.00  0.00    +0.000 A 
ATOM     15 CL   UNL     1       1.831   9.008  17.450  0.00  0.00    +0.000 Cl
BRANCH  12  16
ATOM     16  N   UNL     1      -0.043  11.028  21.761  0.00  0.00    +0.000 N 
ATOM     17  C   UNL     1      -1.055  11.058  22.698  0.00  0.00    +0.000 A 
ATOM     18  C   UNL     1      -1.290  12.380  22.994  0.00  0.00    +0.000 A 
ATOM     19  C   UNL     1      -0.378  13.086  22.199  0.00  0.00    +0.000 A 
ATOM     20  N   UNL     1       0.392  12.278  21.468  0.00  0.00    +0.000 NA
ENDBRANCH  12  16
ENDBRANCH   2   9
BRANCH   7  21
ATOM     21  O   UNL     1       2.219   3.330  17.515  0.00  0.00    +0.000 OA
ATOM     22  H   UNL     1       2.577   4.186  17.227  0.00  0.00    +0.000 HD
ENDBRANCH   7  21
BRANCH   7  23
ATOM     23  C   UNL     1       3.789   1.878  18.617  0.00  0.00    +0.000 C 
BRANCH  23  24
ATOM     24  O   UNL     1       4.833   1.952  19.582  0.00  0.00    +0.000 OA
ATOM     25  H   UNL     1       4.462   2.419  20.357  0.00  0.00    +0.000 HD
ENDBRANCH  23  24
ENDBRANCH   7  23
TORSDOF 5
ENDMDL
MODEL 3
REMARK VINA RESULT:      -6.9      2.962      3.874
REMARK  Name = 
REMARK  5 active torsions:
REMARK  status: ('A' for Active; 'I' for Inactive)
REMARK    1  A    between atoms: C_2  and  C_3
REMARK    2  A    between atoms: C_6  and  N_7
REMARK    3  A    between atoms: C_19  and  O_20
REMARK    4  A    between atoms: C_19  and  C_21
REMARK    5  A    between atoms: C_21  and  O_22
REMARK                            x       y       z     vdW  Elec       q    Type
REMARK                         _______ _______ _______ _____ _____    ______ ____
ROOT
ATOM      1  O   UNL     1       4.534   5.925  19.675  0.00  0.00    +0.000 OA
ATOM      2  C   UNL     1       3.324   5.725  19.666  0.00  0.00    +0.000 C 
ATOM      3  N   UNL     1       2.766   4.438  19.620  0.00  0.00    +0.000 N 
ATOM      4  C   UNL     1       1.352   4.069  19.513  0.00  0.00    +0.000 C 
ATOM      5  C   UNL     1       1.148   3.253  18.239  0.00  0.00    +0.000 C 
ATOM      6  C   UNL     1       1.973   1.968  18.322  0.00  0.00    +0.000 C 
ATOM      7  C   UNL     1       3.466   2.262  18.567  0.00  0.00    +0.000 C 
ATOM      8  C   UNL     1       3.671   3.280  19.717  0.00  0.00    +0.000 C 
ENDROOT
BRANCH   2   9
ATOM      9  C   UNL     1       2.430   6.915  19.743  0.00  0.00    +0.000 A 
ATOM     10  C   UNL     1       1.668   7.137  20.894  0.00  0.00    +0.000 A 
ATOM     11  C   UNL     1       1.005   8.351  21.084  0.00  0.00    +0.000 A 
ATOM     12  C   UNL     1       0.981   9.306  20.060  0.00  0.00    +0.000 A 
ATOM     13  C   UNL     1       1.607   9.020  18.841  0.00  0.00    +0.000 A 
ATOM     14  C   UNL     1       2.347   7.838  18.688  0.00  0.00    +0.000 A 
ATOM     15 CL   UNL     1       3.168   7.642  17.176  0.00  0.00    +0.000 Cl
BRANCH  12  16
ATOM     16  N   UNL     1       0.343  10.558  20.290  0.00  0.00    +0.000 N 
ATOM     17  C   UNL     1      -0.569  11.206  19.483  0.00  0.00    +0.000 A 
ATOM     18  C   UNL     1      -0.850  12.412  20.080  0.00  0.00    +0.000 A 
ATOM     19  C   UNL     1      -0.071  12.417  21.245  0.00  0.00    +0.000 A 
ATOM     20  N   UNL     1       0.635  11.294  21.391  0.00  0.00    +0.000 NA
ENDBRANCH  12  16
ENDBRANCH   2   9
BRANCH   7  21
ATOM     21  O   UNL     1       4.036   2.819  17.366  0.00  0.00    +0.000 OA
ATOM     22  H   UNL     1       4.917   3.169  17.577  0.00  0.00    +0.000 HD
ENDBRANCH   7  21
BRANCH   7  23
ATOM     23  C   UNL     1       4.216   0.949  18.868  0.00  0.00    +0.000 C 
BRANCH  23  24
ATOM     24  O   UNL     1       5.200   1.136  19.880  0.00  0.00    +0.000 OA
ATOM     25  H   UNL     1       5.802   0.367  19.827  0.00  0.00    +0.000 HD
ENDBRANCH  23  24
ENDBRANCH   7  23
TORSDOF 5
ENDMDL
MODEL 4
REMARK VINA RESULT:      -6.8      3.782      6.483
REMARK  Name = 
REMARK  5 active torsions:
REMARK  status: ('A' for Active; 'I' for Inactive)
REMARK    1  A    between atoms: C_2  and  C_3
REMARK    2  A    between atoms: C_6  and  N_7
REMARK    3  A    between atoms: C_19  and  O_20
REMARK    4  A    between atoms: C_19  and  C_21
REMARK    5  A    between atoms: C_21  and  O_22
REMARK                            x       y       z     vdW  Elec       q    Type
REMARK                         _______ _______ _______ _____ _____    ______ ____
ROOT
ATOM      1  O   UNL     1       4.911   4.301  16.207  0.00  0.00    +0.000 OA
ATOM      2  C   UNL     1       4.909   4.957  17.243  0.00  0.00    +0.000 C 
ATOM      3  N   UNL     1       4.082   4.652  18.335  0.00  0.00    +0.000 N 
ATOM      4  C   UNL     1       3.918   5.402  19.583  0.00  0.00    +0.000 C 
ATOM      5  C   UNL     1       2.459   5.831  19.716  0.00  0.00    +0.000 C 
ATOM      6  C   UNL     1       1.570   4.588  19.784  0.00  0.00    +0.000 C 
ATOM      7  C   UNL     1       1.776   3.669  18.564  0.00  0.00    +0.000 C 
ATOM      8  C   UNL     1       3.278   3.418  18.280  0.00  0.00    +0.000 C 
ENDROOT
BRANCH   2   9
ATOM      9  C   UNL     1       5.861   6.100  17.335  0.00  0.00    +0.000 A 
ATOM     10  C   UNL     1       5.427   7.392  17.022  0.00  0.00    +0.000 A 
ATOM     11  C   UNL     1       6.224   8.500  17.317  0.00  0.00    +0.000 A 
ATOM     12  C   UNL     1       7.526   8.320  17.801  0.00  0.00    +0.000 A 
ATOM     13  C   UNL     1       8.025   7.022  17.962  0.00  0.00    +0.000 A 
ATOM     14  C   UNL     1       7.190   5.914  17.750  0.00  0.00    +0.000 A 
ATOM     15 CL   UNL     1       7.882   4.363  18.085  0.00  0.00    +0.000 Cl
BRANCH  12  16
ATOM     16  N   UNL     1       8.305   9.461  18.143  0.00  0.00    +0.000 N 
ATOM     17  C   UNL     1       9.230   9.584  19.159  0.00  0.00    +0.000 A 
ATOM     18  C   UNL     1       9.673  10.885  19.147  0.00  0.00    +0.000 A 
ATOM     19  C   UNL     1       8.971  11.485  18.093  0.00  0.00    +0.000 A 
ATOM     20  N   UNL     1       8.160  10.629  17.469  0.00  0.00    +0.000 NA
ENDBRANCH  12  16
ENDBRANCH   2   9
BRANCH   7  21
ATOM     21  O   UNL     1       1.197   4.298  17.403  0.00  0.00    +0.000 OA
ATOM     22  H   UNL     1       1.806   4.987  17.091  0.00  0.00    +0.000 HD
ENDBRANCH   7  21
BRANCH   7  23
ATOM     23  C   UNL     1       1.037   2.334  18.783  0.00  0.00    +0.000 C 
BRANCH  23  24
ATOM     24  O   UNL     1       1.949   1.241  18.832  0.00  0.00    +0.000 OA
ATOM     25  H   UNL     1       1.505   0.490  18.392  0.00  0.00    +0.000 HD
ENDBRANCH  23  24
ENDBRANCH   7  23
TORSDOF 5
ENDMDL
MODEL 5
REMARK VINA RESULT:      -6.6      4.435      8.159
REMARK  Name = 
REMARK  5 active torsions:
REMARK  status: ('A' for Active; 'I' for Inactive)
REMARK    1  A    between atoms: C_2  and  C_3
REMARK    2  A    between atoms: C_6  and  N_7
REMARK    3  A    between atoms: C_19  and  O_20
REMARK    4  A    between atoms: C_19  and  C_21
REMARK    5  A    between atoms: C_21  and  O_22
REMARK                            x       y       z     vdW  Elec       q    Type
REMARK                         _______ _______ _______ _____ _____    ______ ____
ROOT
ATOM      1  O   UNL     1      -1.266  10.626  19.674  0.00  0.00    +0.000 OA
ATOM      2  C   UNL     1      -0.055  10.771  19.553  0.00  0.00    +0.000 C 
ATOM      3  N   UNL     1       0.578  12.017  19.680  0.00  0.00    +0.000 N 
ATOM      4  C   UNL     1       1.992  12.339  19.471  0.00  0.00    +0.000 C 
ATOM      5  C   UNL     1       2.105  13.375  18.356  0.00  0.00    +0.000 C 
ATOM      6  C   UNL     1       1.381  14.655  18.778  0.00  0.00    +0.000 C 
ATOM      7  C   UNL     1      -0.091  14.384  19.146  0.00  0.00    +0.000 C 
ATOM      8  C   UNL     1      -0.232  13.173  20.102  0.00  0.00    +0.000 C 
ENDROOT
BRANCH   2   9
ATOM      9  C   UNL     1       0.762   9.551  19.297  0.00  0.00    +0.000 A 
ATOM     10  C   UNL     1       1.218   9.280  18.004  0.00  0.00    +0.000 A 
ATOM     11  C   UNL     1       2.166   8.279  17.780  0.00  0.00    +0.000 A 
ATOM     12  C   UNL     1       2.565   7.443  18.829  0.00  0.00    +0.000 A 
ATOM     13  C   UNL     1       1.987   7.605  20.094  0.00  0.00    +0.000 A 
ATOM     14  C   UNL     1       1.103   8.668  20.335  0.00  0.00    +0.000 A 
ATOM     15 CL   UNL     1       0.538   8.836  21.962  0.00  0.00    +0.000 Cl
BRANCH  12  16
ATOM     16  N   UNL     1       3.569   6.461  18.593  0.00  0.00    +0.000 N 
ATOM     17  C   UNL     1       4.037   5.500  19.465  0.00  0.00    +0.000 A 
ATOM     18  C   UNL     1       5.051   4.831  18.821  0.00  0.00    +0.000 A 
ATOM     19  C   UNL     1       5.133   5.444  17.564  0.00  0.00    +0.000 A 
ATOM     20  N   UNL     1       4.230   6.414  17.410  0.00  0.00    +0.000 NA
ENDBRANCH  12  16
ENDBRANCH   2   9
BRANCH   7  21
ATOM     21  O   UNL     1      -0.828  14.094  17.941  0.00  0.00    +0.000 OA
ATOM     22  H   UNL     1      -0.255  13.584  17.345  0.00  0.00    +0.000 HD
ENDBRANCH   7  21
BRANCH   7  23
ATOM     23  C   UNL     1      -0.714  15.646  19.776  0.00  0.00    +0.000 C 
BRANCH  23  24
ATOM     24  O   UNL     1      -1.130  16.570  18.777  0.00  0.00    +0.000 OA
ATOM     25  H   UNL     1      -1.212  16.063  17.946  0.00  0.00    +0.000 HD
ENDBRANCH  23  24
ENDBRANCH   7  23
TORSDOF 5
ENDMDL
MODEL 6
REMARK VINA RESULT:      -6.6      3.989      6.554
REMARK  Name = 
REMARK  5 active torsions:
REMARK  status: ('A' for Active; 'I' for Inactive)
REMARK    1  A    between atoms: C_2  and  C_3
REMARK    2  A    between atoms: C_6  and  N_7
REMARK    3  A    between atoms: C_19  and  O_20
REMARK    4  A    between atoms: C_19  and  C_21
REMARK    5  A    between atoms: C_21  and  O_22
REMARK                            x       y       z     vdW  Elec       q    Type
REMARK                         _______ _______ _______ _____ _____    ______ ____
ROOT
ATOM      1  O   UNL     1       6.616   4.051  17.033  0.00  0.00    +0.000 OA
ATOM      2  C   UNL     1       6.180   4.924  17.776  0.00  0.00    +0.000 C 
ATOM      3  N   UNL     1       5.005   4.765  18.528  0.00  0.00    +0.000 N 
ATOM      4  C   UNL     1       4.334   5.754  19.375  0.00  0.00    +0.000 C 
ATOM      5  C   UNL     1       2.922   5.986  18.843  0.00  0.00    +0.000 C 
ATOM      6  C   UNL     1       2.132   4.677  18.916  0.00  0.00    +0.000 C 
ATOM      7  C   UNL     1       2.839   3.539  18.155  0.00  0.00    +0.000 C 
ATOM      8  C   UNL     1       4.343   3.450  18.521  0.00  0.00    +0.000 C 
ENDROOT
BRANCH   2   9
ATOM      9  C   UNL     1       6.969   6.182  17.896  0.00  0.00    +0.000 A 
ATOM     10  C   UNL     1       6.729   7.238  17.012  0.00  0.00    +0.000 A 
ATOM     11  C   UNL     1       7.286   8.498  17.243  0.00  0.00    +0.000 A 
ATOM     12  C   UNL     1       8.203   8.681  18.285  0.00  0.00    +0.000 A 
ATOM     13  C   UNL     1       8.573   7.584  19.074  0.00  0.00    +0.000 A 
ATOM     14  C   UNL     1       7.943   6.342  18.895  0.00  0.00    +0.000 A 
ATOM     15 CL   UNL     1       8.401   5.090  19.999  0.00  0.00    +0.000 Cl
BRANCH  12  16
ATOM     16  N   UNL     1       8.722   9.982  18.536  0.00  0.00    +0.000 N 
ATOM     17  C   UNL     1       8.642  11.098  17.729  0.00  0.00    +0.000 A 
ATOM     18  C   UNL     1       9.348  12.099  18.354  0.00  0.00    +0.000 A 
ATOM     19  C   UNL     1       9.822  11.510  19.534  0.00  0.00    +0.000 A 
ATOM     20  N   UNL     1       9.432  10.241  19.662  0.00  0.00    +0.000 NA
ENDBRANCH  12  16
ENDBRANCH   2   9
BRANCH   7  21
ATOM     21  O   UNL     1       2.734   3.787  16.740  0.00  0.00    +0.000 OA
ATOM     22  H   UNL     1       1.955   3.315  16.402  0.00  0.00    +0.000 HD
ENDBRANCH   7  21
BRANCH   7  23
ATOM     23  C   UNL     1       2.133   2.199  18.443  0.00  0.00    +0.000 C 
BRANCH  23  24
ATOM     24  O   UNL     1       3.069   1.130  18.532  0.00  0.00    +0.000 OA
ATOM     25  H   UNL     1       2.980   0.757  19.432  0.00  0.00    +0.000 HD
ENDBRANCH  23  24
ENDBRANCH   7  23
TORSDOF 5
ENDMDL
MODEL 7
REMARK VINA RESULT:      -6.5      2.903      3.846
REMARK  Name = 
REMARK  5 active torsions:
REMARK  status: ('A' for Active; 'I' for Inactive)
REMARK    1  A    between atoms: C_2  and  C_3
REMARK    2  A    between atoms: C_6  and  N_7
REMARK    3  A    between atoms: C_19  and  O_20
REMARK    4  A    between atoms: C_19  and  C_21
REMARK    5  A    between atoms: C_21  and  O_22
REMARK                            x       y       z     vdW  Elec       q    Type
REMARK                         _______ _______ _______ _____ _____    ______ ____
ROOT
ATOM      1  O   UNL     1       4.726   6.177  19.381  0.00  0.00    +0.000 OA
ATOM      2  C   UNL     1       3.520   6.051  19.201  0.00  0.00    +0.000 C 
ATOM      3  N   UNL     1       2.886   4.799  19.152  0.00  0.00    +0.000 N 
ATOM      4  C   UNL     1       1.481   4.509  18.856  0.00  0.00    +0.000 C 
ATOM      5  C   UNL     1       1.410   3.618  17.618  0.00  0.00    +0.000 C 
ATOM      6  C   UNL     1       2.121   2.294  17.905  0.00  0.00    +0.000 C 
ATOM      7  C   UNL     1       3.579   2.515  18.355  0.00  0.00    +0.000 C 
ATOM      8  C   UNL     1       3.684   3.599  19.457  0.00  0.00    +0.000 C 
ENDROOT
BRANCH   2   9
ATOM      9  C   UNL     1       2.710   7.294  19.069  0.00  0.00    +0.000 A 
ATOM     10  C   UNL     1       2.801   8.060  17.903  0.00  0.00    +0.000 A 
ATOM     11  C   UNL     1       1.894   9.093  17.660  0.00  0.00    +0.000 A 
ATOM     12  C   UNL     1       0.970   9.464  18.644  0.00  0.00    +0.000 A 
ATOM     13  C   UNL     1       0.983   8.805  19.880  0.00  0.00    +0.000 A 
ATOM     14  C   UNL     1       1.836   7.710  20.086  0.00  0.00    +0.000 A 
ATOM     15 CL   UNL     1       1.688   6.905  21.612  0.00  0.00    +0.000 Cl
BRANCH  12  16
ATOM     16  N   UNL     1       0.020  10.485  18.359  0.00  0.00    +0.000 N 
ATOM     17  C   UNL     1       0.086  11.822  18.691  0.00  0.00    +0.000 A 
ATOM     18  C   UNL     1      -1.089  12.401  18.272  0.00  0.00    +0.000 A 
ATOM     19  C   UNL     1      -1.811  11.349  17.694  0.00  0.00    +0.000 A 
ATOM     20  N   UNL     1      -1.143  10.195  17.723  0.00  0.00    +0.000 NA
ENDBRANCH  12  16
ENDBRANCH   2   9
BRANCH   7  21
ATOM     21  O   UNL     1       4.357   2.949  17.221  0.00  0.00    +0.000 OA
ATOM     22  H   UNL     1       5.291   2.985  17.485  0.00  0.00    +0.000 HD
ENDBRANCH   7  21
BRANCH   7  23
ATOM     23  C   UNL     1       4.182   1.184  18.847  0.00  0.00    +0.000 C 
BRANCH  23  24
ATOM     24  O   UNL     1       5.138   1.401  19.879  0.00  0.00    +0.000 OA
ATOM     25  H   UNL     1       5.592   0.547  20.020  0.00  0.00    +0.000 HD
ENDBRANCH  23  24
ENDBRANCH   7  23
TORSDOF 5
ENDMDL
MODEL 8
REMARK VINA RESULT:      -6.5      4.405      8.306
REMARK  Name = 
REMARK  5 active torsions:
REMARK  status: ('A' for Active; 'I' for Inactive)
REMARK    1  A    between atoms: C_2  and  C_3
REMARK    2  A    between atoms: C_6  and  N_7
REMARK    3  A    between atoms: C_19  and  O_20
REMARK    4  A    between atoms: C_19  and  C_21
REMARK    5  A    between atoms: C_21  and  O_22
REMARK                            x       y       z     vdW  Elec       q    Type
REMARK                         _______ _______ _______ _____ _____    ______ ____
ROOT
ATOM      1  O   UNL     1       5.162   5.502  19.792  0.00  0.00    +0.000 OA
ATOM      2  C   UNL     1       4.626   4.945  18.840  0.00  0.00    +0.000 C 
ATOM      3  N   UNL     1       3.399   4.272  18.945  0.00  0.00    +0.000 N 
ATOM      4  C   UNL     1       2.703   3.494  17.917  0.00  0.00    +0.000 C 
ATOM      5  C   UNL     1       2.537   2.059  18.408  0.00  0.00    +0.000 C 
ATOM      6  C   UNL     1       1.679   2.053  19.675  0.00  0.00    +0.000 C 
ATOM      7  C   UNL     1       2.273   2.957  20.773  0.00  0.00    +0.000 C 
ATOM      8  C   UNL     1       2.665   4.351  20.220  0.00  0.00    +0.000 C 
ENDROOT
BRANCH   2   9
ATOM      9  C   UNL     1       5.310   5.030  17.519  0.00  0.00    +0.000 A 
ATOM     10  C   UNL     1       6.275   4.080  17.175  0.00  0.00    +0.000 A 
ATOM     11  C   UNL     1       6.761   4.002  15.867  0.00  0.00    +0.000 A 
ATOM     12  C   UNL     1       6.390   4.966  14.922  0.00  0.00    +0.000 A 
ATOM     13  C   UNL     1       5.550   6.018  15.307  0.00  0.00    +0.000 A 
ATOM     14  C   UNL     1       4.994   6.041  16.596  0.00  0.00    +0.000 A 
ATOM     15 CL   UNL     1       3.884   7.327  16.925  0.00  0.00    +0.000 Cl
BRANCH  12  16
ATOM     16  N   UNL     1       6.855   4.843  13.582  0.00  0.00    +0.000 N 
ATOM     17  C   UNL     1       6.531   3.872  12.657  0.00  0.00    +0.000 A 
ATOM     18  C   UNL     1       7.277   4.124  11.530  0.00  0.00    +0.000 A 
ATOM     19  C   UNL     1       8.024   5.265  11.851  0.00  0.00    +0.000 A 
ATOM     20  N   UNL     1       7.760   5.718  13.078  0.00  0.00    +0.000 NA
ENDBRANCH  12  16
ENDBRANCH   2   9
BRANCH   7  21
ATOM     21  O   UNL     1       3.460   2.332  21.301  0.00  0.00    +0.000 OA
ATOM     22  H   UNL     1       3.481   2.475  22.261  0.00  0.00    +0.000 HD
ENDBRANCH   7  21
BRANCH   7  23
ATOM     23  C   UNL     1       1.270   3.099  21.934  0.00  0.00    +0.000 C 
BRANCH  23  24
ATOM     24  O   UNL     1       1.133   1.876  22.651  0.00  0.00    +0.000 OA
ATOM     25  H   UNL     1       1.953   1.368  22.491  0.00  0.00    +0.000 HD
ENDBRANCH  23  24
ENDBRANCH   7  23
TORSDOF 5
ENDMDL
MODEL 9
REMARK VINA RESULT:      -6.4      2.743      7.918
REMARK  Name = 
REMARK  5 active torsions:
REMARK  status: ('A' for Active; 'I' for Inactive)
REMARK    1  A    between atoms: C_2  and  C_3
REMARK    2  A    between atoms: C_6  and  N_7
REMARK    3  A    between atoms: C_19  and  O_20
REMARK    4  A    between atoms: C_19  and  C_21
REMARK    5  A    between atoms: C_21  and  O_22
REMARK                            x       y       z     vdW  Elec       q    Type
REMARK                         _______ _______ _______ _____ _____    ______ ____
ROOT
ATOM      1  O   UNL     1       2.218   5.954  21.031  0.00  0.00    +0.000 OA
ATOM      2  C   UNL     1       2.283   6.783  20.131  0.00  0.00    +0.000 C 
ATOM      3  N   UNL     1       1.783   8.088  20.262  0.00  0.00    +0.000 N 
ATOM      4  C   UNL     1       1.716   9.138  19.242  0.00  0.00    +0.000 C 
ATOM      5  C   UNL     1       0.257   9.535  19.034  0.00  0.00    +0.000 C 
ATOM      6  C   UNL     1      -0.305  10.101  20.339  0.00  0.00    +0.000 C 
ATOM      7  C   UNL     1      -0.155   9.104  21.505  0.00  0.00    +0.000 C 
ATOM      8  C   UNL     1       1.276   8.514  21.578  0.00  0.00    +0.000 C 
ENDROOT
BRANCH   2   9
ATOM      9  C   UNL     1       2.960   6.375  18.867  0.00  0.00    +0.000 A 
ATOM     10  C   UNL     1       3.845   7.255  18.239  0.00  0.00    +0.000 A 
ATOM     11  C   UNL     1       4.658   6.817  17.191  0.00  0.00    +0.000 A 
ATOM     12  C   UNL     1       4.495   5.529  16.667  0.00  0.00    +0.000 A 
ATOM     13  C   UNL     1       3.495   4.698  17.187  0.00  0.00    +0.000 A 
ATOM     14  C   UNL     1       2.742   5.110  18.297  0.00  0.00    +0.000 A 
ATOM     15 CL   UNL     1       1.611   3.958  18.922  0.00  0.00    +0.000 Cl
BRANCH  12  16
ATOM     16  N   UNL     1       5.366   5.082  15.633  0.00  0.00    +0.000 N 
ATOM     17  C   UNL     1       5.141   4.088  14.705  0.00  0.00    +0.000 A 
ATOM     18  C   UNL     1       6.290   3.964  13.959  0.00  0.00    +0.000 A 
ATOM     19  C   UNL     1       7.161   4.920  14.497  0.00  0.00    +0.000 A 
ATOM     20  N   UNL     1       6.606   5.614  15.492  0.00  0.00    +0.000 NA
ENDBRANCH  12  16
ENDBRANCH   2   9
BRANCH   7  21
ATOM     21  O   UNL     1      -1.081   8.017  21.313  0.00  0.00    +0.000 OA
ATOM     22  H   UNL     1      -1.412   8.053  20.400  0.00  0.00    +0.000 HD
ENDBRANCH   7  21
BRANCH   7  23
ATOM     23  C   UNL     1      -0.522   9.795  22.834  0.00  0.00    +0.000 C 
BRANCH  23  24
ATOM     24  O   UNL     1       0.492   9.602  23.814  0.00  0.00    +0.000 OA
ATOM     25  H   UNL     1       0.914   8.744  23.611  0.00  0.00    +0.000 HD
ENDBRANCH  23  24
ENDBRANCH   7  23
TORSDOF 5
ENDMDL
