MODEL 1
REMARK VINA RESULT:      -8.4      0.000      0.000
REMARK  Name = 
REMARK  5 active torsions:
REMARK  status: ('A' for Active; 'I' for Inactive)
REMARK    1  A    between atoms: C_1  and  O_2
REMARK    2  A    between atoms: O_2  and  C_3
REMARK    3  A    between atoms: C_6  and  N_7
REMARK    4  A    between atoms: C_8  and  C_10
REMARK    5  A    between atoms: C_16  and  C_17
REMARK                            x       y       z     vdW  Elec       q    Type
REMARK                         _______ _______ _______ _____ _____    ______ ____
ROOT
ATOM      1  C   UNL     1       1.354   8.789  19.462  0.00  0.00    +0.000 A 
ATOM      2  C   UNL     1       1.277   8.478  20.803  0.00  0.00    +0.000 A 
ATOM      3  C   UNL     1       0.452   9.404  21.512  0.00  0.00    +0.000 A 
ATOM      4  C   UNL     1      -0.077  10.377  20.687  0.00  0.00    +0.000 A 
ATOM      5  S   UNL     1       0.276  10.042  19.069  0.00  0.00    +0.000 S 
ATOM      6  C   UNL     1      -0.863  11.499  21.207  0.00  0.00    +0.000 A 
ATOM      7  C   UNL     1      -1.346  12.625  20.491  0.00  0.00    +0.000 A 
ATOM      8  C   UNL     1      -1.176  12.941  19.028  0.00  0.00    +0.000 C 
ATOM      9  C   UNL     1      -2.096  13.601  21.185  0.00  0.00    +0.000 A 
ATOM     10  C   UNL     1      -2.351  13.500  22.548  0.00  0.00    +0.000 A 
ATOM     11  C   UNL     1      -1.860  12.418  23.256  0.00  0.00    +0.000 A 
ATOM     12  C   UNL     1      -1.122  11.429  22.603  0.00  0.00    +0.000 A 
ATOM     13  O   UNL     1      -0.716  10.420  23.446  0.00  0.00    +0.000 OA
ATOM     14  C   UNL     1       0.199   9.418  22.974  0.00  0.00    +0.000 C 
ENDROOT
BRANCH   1  16
ATOM     15  N   UNL     1       2.722   6.937  18.829  0.00  0.00    +0.000 N 
ATOM     16  C   UNL     1       2.204   8.173  18.458  0.00  0.00    +0.000 C 
ATOM     17  O   UNL     1       2.375   8.707  17.367  0.00  0.00    +0.000 OA
ATOM     18  H   UNL     1       2.410   6.585  19.726  0.00  0.00    +0.000 HD
BRANCH  15  22
ATOM     19  C   UNL     1       5.275   4.438  16.588  0.00  0.00    +0.000 A 
ATOM     20  C   UNL     1       3.974   4.034  16.876  0.00  0.00    +0.000 A 
ATOM     21  C   UNL     1       3.116   4.863  17.596  0.00  0.00    +0.000 A 
ATOM     22  C   UNL     1       3.547   6.098  18.066  0.00  0.00    +0.000 A 
ATOM     23  C   UNL     1       4.852   6.519  17.786  0.00  0.00    +0.000 A 
ATOM     24  C   UNL     1       5.718   5.682  17.063  0.00  0.00    +0.000 A 
ATOM     25 CL   UNL     1       7.327   6.237  16.763  0.00  0.00    +0.000 Cl
BRANCH  19  27
ATOM     26  C   UNL     1       6.138   3.882  14.469  0.00  0.00    +0.000 C 
ATOM     27  O   UNL     1       6.149   3.658  15.876  0.00  0.00    +0.000 OA
ENDBRANCH  19  27
ENDBRANCH  15  22
ENDBRANCH   1  16
TORSDOF 3
ENDMDL
MODEL 2
REMARK VINA RESULT:      -8.3      1.111      1.417
REMARK  Name = 
REMARK  5 active torsions:
REMARK  status: ('A' for Active; 'I' for Inactive)
REMARK    1  A    between atoms: C_1  and  O_2
REMARK    2  A    between atoms: O_2  and  C_3
REMARK    3  A    between atoms: C_6  and  N_7
REMARK    4  A    between atoms: C_8  and  C_10
REMARK    5  A    between atoms: C_16  and  C_17
REMARK                            x       y       z     vdW  Elec       q    Type
REMARK                         _______ _______ _______ _____ _____    ______ ____
ROOT
ATOM      1  C   UNL     1       1.287   8.958  19.458  0.00  0.00    +0.000 A 
ATOM      2  C   UNL     1       1.152   8.600  20.783  0.00  0.00    +0.000 A 
ATOM      3  C   UNL     1       0.380   9.556  21.512  0.00  0.00    +0.000 A 
ATOM      4  C   UNL     1      -0.053  10.598  20.716  0.00  0.00    +0.000 A 
ATOM      5  S   UNL     1       0.315  10.304  19.094  0.00  0.00    +0.000 S 
ATOM      6  C   UNL     1      -0.767  11.755  21.266  0.00  0.00    +0.000 A 
ATOM      7  C   UNL     1      -1.146  12.942  20.587  0.00  0.00    +0.000 A 
ATOM      8  C   UNL     1      -0.916  13.303  19.142  0.00  0.00    +0.000 C 
ATOM      9  C   UNL     1      -1.839  13.943  21.304  0.00  0.00    +0.000 A 
ATOM     10  C   UNL     1      -2.137  13.806  22.655  0.00  0.00    +0.000 A 
ATOM     11  C   UNL     1      -1.746  12.663  23.328  0.00  0.00    +0.000 A 
ATOM     12  C   UNL     1      -1.067  11.648  22.650  0.00  0.00    +0.000 A 
ATOM     13  O   UNL     1      -0.760  10.578  23.459  0.00  0.00    +0.000 OA
ATOM     14  C   UNL     1       0.090   9.529  22.967  0.00  0.00    +0.000 C 
ENDROOT
BRANCH   1  16
ATOM     15  N   UNL     1       2.676   7.114  18.850  0.00  0.00    +0.000 N 
ATOM     16  C   UNL     1       2.114   8.321  18.449  0.00  0.00    +0.000 C 
ATOM     17  O   UNL     1       2.232   8.813  17.332  0.00  0.00    +0.000 OA
ATOM     18  H   UNL     1       2.407   6.793  19.773  0.00  0.00    +0.000 HD
BRANCH  15  22
ATOM     19  C   UNL     1       5.062   4.503  16.554  0.00  0.00    +0.000 A 
ATOM     20  C   UNL     1       5.265   5.878  16.487  0.00  0.00    +0.000 A 
ATOM     21  C   UNL     1       4.497   6.748  17.259  0.00  0.00    +0.000 A 
ATOM     22  C   UNL     1       3.494   6.263  18.091  0.00  0.00    +0.000 A 
ATOM     23  C   UNL     1       3.277   4.884  18.170  0.00  0.00    +0.000 A 
ATOM     24  C   UNL     1       4.049   4.008  17.389  0.00  0.00    +0.000 A 
ATOM     25 CL   UNL     1       3.727   2.313  17.504  0.00  0.00    +0.000 Cl
BRANCH  19  27
ATOM     26  C   UNL     1       6.081   4.029  14.485  0.00  0.00    +0.000 C 
ATOM     27  O   UNL     1       5.800   3.612  15.818  0.00  0.00    +0.000 OA
ENDBRANCH  19  27
ENDBRANCH  15  22
ENDBRANCH   1  16
TORSDOF 3
ENDMDL
MODEL 3
REMARK VINA RESULT:      -7.6      2.790      3.579
REMARK  Name = 
REMARK  5 active torsions:
REMARK  status: ('A' for Active; 'I' for Inactive)
REMARK    1  A    between atoms: C_1  and  O_2
REMARK    2  A    between atoms: O_2  and  C_3
REMARK    3  A    between atoms: C_6  and  N_7
REMARK    4  A    between atoms: C_8  and  C_10
REMARK    5  A    between atoms: C_16  and  C_17
REMARK                            x       y       z     vdW  Elec       q    Type
REMARK                         _______ _______ _______ _____ _____    ______ ____
ROOT
ATOM      1  C   UNL     1       1.403   9.544  19.270  0.00  0.00    +0.000 A 
ATOM      2  C   UNL     1       1.331  10.677  18.487  0.00  0.00    +0.000 A 
ATOM      3  C   UNL     1       0.625  11.729  19.147  0.00  0.00    +0.000 A 
ATOM      4  C   UNL     1       0.197  11.365  20.409  0.00  0.00    +0.000 A 
ATOM      5  S   UNL     1       0.814   9.850  20.833  0.00  0.00    +0.000 S 
ATOM      6  C   UNL     1      -0.643  12.240  21.231  0.00  0.00    +0.000 A 
ATOM      7  C   UNL     1      -1.254  11.936  22.475  0.00  0.00    +0.000 A 
ATOM      8  C   UNL     1      -1.186  10.650  23.257  0.00  0.00    +0.000 C 
ATOM      9  C   UNL     1      -2.028  12.932  23.113  0.00  0.00    +0.000 A 
ATOM     10  C   UNL     1      -2.225  14.185  22.546  0.00  0.00    +0.000 A 
ATOM     11  C   UNL     1      -1.654  14.477  21.321  0.00  0.00    +0.000 A 
ATOM     12  C   UNL     1      -0.875  13.522  20.664  0.00  0.00    +0.000 A 
ATOM     13  O   UNL     1      -0.374  13.973  19.465  0.00  0.00    +0.000 OA
ATOM     14  C   UNL     1       0.298  13.061  18.581  0.00  0.00    +0.000 C 
ENDROOT
BRANCH   1  16
ATOM     15  N   UNL     1       2.196   7.400  19.961  0.00  0.00    +0.000 N 
ATOM     16  C   UNL     1       1.909   8.236  18.889  0.00  0.00    +0.000 C 
ATOM     17  O   UNL     1       2.003   7.919  17.707  0.00  0.00    +0.000 OA
ATOM     18  H   UNL     1       1.975   7.773  20.877  0.00  0.00    +0.000 HD
BRANCH  15  22
ATOM     19  C   UNL     1       3.535   3.405  19.796  0.00  0.00    +0.000 A 
ATOM     20  C   UNL     1       4.242   4.408  19.139  0.00  0.00    +0.000 A 
ATOM     21  C   UNL     1       3.820   5.735  19.207  0.00  0.00    +0.000 A 
ATOM     22  C   UNL     1       2.671   6.081  19.908  0.00  0.00    +0.000 A 
ATOM     23  C   UNL     1       1.948   5.084  20.573  0.00  0.00    +0.000 A 
ATOM     24  C   UNL     1       2.372   3.747  20.502  0.00  0.00    +0.000 A 
ATOM     25 CL   UNL     1       1.433   2.548  21.321  0.00  0.00    +0.000 Cl
BRANCH  19  27
ATOM     26  C   UNL     1       3.626   1.414  18.541  0.00  0.00    +0.000 C 
ATOM     27  O   UNL     1       3.919   2.089  19.762  0.00  0.00    +0.000 OA
ENDBRANCH  19  27
ENDBRANCH  15  22
ENDBRANCH   1  16
TORSDOF 3
ENDMDL
MODEL 4
REMARK VINA RESULT:      -7.6      1.386      1.464
REMARK  Name = 
REMARK  5 active torsions:
REMARK  status: ('A' for Active; 'I' for Inactive)
REMARK    1  A    between atoms: C_1  and  O_2
REMARK    2  A    between atoms: O_2  and  C_3
REMARK    3  A    between atoms: C_6  and  N_7
REMARK    4  A    between atoms: C_8  and  C_10
REMARK    5  A    between atoms: C_16  and  C_17
REMARK                            x       y       z     vdW  Elec       q    Type
REMARK                         _______ _______ _______ _____ _____    ______ ____
ROOT
ATOM      1  C   UNL     1       1.378   7.980  20.494  0.00  0.00    +0.000 A 
ATOM      2  C   UNL     1       0.752   8.071  21.719  0.00  0.00    +0.000 A 
ATOM      3  C   UNL     1       0.261   9.390  21.963  0.00  0.00    +0.000 A 
ATOM      4  C   UNL     1       0.519  10.250  20.914  0.00  0.00    +0.000 A 
ATOM      5  S   UNL     1       1.170   9.410  19.601  0.00  0.00    +0.000 S 
ATOM      6  C   UNL     1       0.208  11.681  20.983  0.00  0.00    +0.000 A 
ATOM      7  C   UNL     1       0.540  12.686  20.039  0.00  0.00    +0.000 A 
ATOM      8  C   UNL     1       1.284  12.533  18.738  0.00  0.00    +0.000 C 
ATOM      9  C   UNL     1       0.138  14.017  20.294  0.00  0.00    +0.000 A 
ATOM     10  C   UNL     1      -0.548  14.369  21.450  0.00  0.00    +0.000 A 
ATOM     11  C   UNL     1      -0.851  13.397  22.386  0.00  0.00    +0.000 A 
ATOM     12  C   UNL     1      -0.478  12.069  22.165  0.00  0.00    +0.000 A 
ATOM     13  O   UNL     1      -0.862  11.229  23.185  0.00  0.00    +0.000 OA
ATOM     14  C   UNL     1      -0.404   9.867  23.201  0.00  0.00    +0.000 C 
ENDROOT
BRANCH   1  16
ATOM     15  N   UNL     1       2.748   7.102  18.746  0.00  0.00    +0.000 N 
ATOM     16  C   UNL     1       2.124   6.852  19.963  0.00  0.00    +0.000 C 
ATOM     17  O   UNL     1       2.215   5.806  20.596  0.00  0.00    +0.000 OA
ATOM     18  H   UNL     1       2.657   8.048  18.395  0.00  0.00    +0.000 HD
BRANCH  15  22
ATOM     19  C   UNL     1       5.238   4.481  16.574  0.00  0.00    +0.000 A 
ATOM     20  C   UNL     1       3.927   4.117  16.872  0.00  0.00    +0.000 A 
ATOM     21  C   UNL     1       3.090   4.986  17.569  0.00  0.00    +0.000 A 
ATOM     22  C   UNL     1       3.552   6.222  18.006  0.00  0.00    +0.000 A 
ATOM     23  C   UNL     1       4.867   6.602  17.717  0.00  0.00    +0.000 A 
ATOM     24  C   UNL     1       5.712   5.725  17.017  0.00  0.00    +0.000 A 
ATOM     25 CL   UNL     1       7.335   6.231  16.703  0.00  0.00    +0.000 Cl
BRANCH  19  27
ATOM     26  C   UNL     1       6.113   3.871  14.475  0.00  0.00    +0.000 C 
ATOM     27  O   UNL     1       6.092   3.661  15.884  0.00  0.00    +0.000 OA
ENDBRANCH  19  27
ENDBRANCH  15  22
ENDBRANCH   1  16
TORSDOF 3
ENDMDL
MODEL 5
REMARK VINA RESULT:      -7.5      1.741      2.003
REMARK  Name = 
REMARK  5 active torsions:
REMARK  status: ('A' for Active; 'I' for Inactive)
REMARK    1  A    between atoms: C_1  and  O_2
REMARK    2  A    between atoms: O_2  and  C_3
REMARK    3  A    between atoms: C_6  and  N_7
REMARK    4  A    between atoms: C_8  and  C_10
REMARK    5  A    between atoms: C_16  and  C_17
REMARK                            x       y       z     vdW  Elec       q    Type
REMARK                         _______ _______ _______ _____ _____    ______ ____
ROOT
ATOM      1  C   UNL     1       1.398   8.128  20.402  0.00  0.00    +0.000 A 
ATOM      2  C   UNL     1       0.774   8.209  21.629  0.00  0.00    +0.000 A 
ATOM      3  C   UNL     1       0.278   9.524  21.883  0.00  0.00    +0.000 A 
ATOM      4  C   UNL     1       0.530  10.392  20.839  0.00  0.00    +0.000 A 
ATOM      5  S   UNL     1       1.181   9.563  19.518  0.00  0.00    +0.000 S 
ATOM      6  C   UNL     1       0.214  11.821  20.917  0.00  0.00    +0.000 A 
ATOM      7  C   UNL     1       0.539  12.834  19.978  0.00  0.00    +0.000 A 
ATOM      8  C   UNL     1       1.280  12.692  18.674  0.00  0.00    +0.000 C 
ATOM      9  C   UNL     1       0.132  14.161  20.243  0.00  0.00    +0.000 A 
ATOM     10  C   UNL     1      -0.552  14.503  21.403  0.00  0.00    +0.000 A 
ATOM     11  C   UNL     1      -0.848  13.524  22.334  0.00  0.00    +0.000 A 
ATOM     12  C   UNL     1      -0.471  12.199  22.103  0.00  0.00    +0.000 A 
ATOM     13  O   UNL     1      -0.848  11.352  23.119  0.00  0.00    +0.000 OA
ATOM     14  C   UNL     1      -0.385   9.991  23.125  0.00  0.00    +0.000 C 
ENDROOT
BRANCH   1  16
ATOM     15  N   UNL     1       2.745   7.258  18.633  0.00  0.00    +0.000 N 
ATOM     16  C   UNL     1       2.146   7.006  19.862  0.00  0.00    +0.000 C 
ATOM     17  O   UNL     1       2.261   5.964  20.498  0.00  0.00    +0.000 OA
ATOM     18  H   UNL     1       2.637   8.202  18.280  0.00  0.00    +0.000 HD
BRANCH  15  22
ATOM     19  C   UNL     1       5.079   4.577  16.363  0.00  0.00    +0.000 A 
ATOM     20  C   UNL     1       5.289   5.950  16.260  0.00  0.00    +0.000 A 
ATOM     21  C   UNL     1       4.538   6.842  17.023  0.00  0.00    +0.000 A 
ATOM     22  C   UNL     1       3.546   6.384  17.882  0.00  0.00    +0.000 A 
ATOM     23  C   UNL     1       3.321   5.008  17.997  0.00  0.00    +0.000 A 
ATOM     24  C   UNL     1       4.076   4.109  17.225  0.00  0.00    +0.000 A 
ATOM     25 CL   UNL     1       3.746   2.419  17.385  0.00  0.00    +0.000 Cl
BRANCH  19  27
ATOM     26  C   UNL     1       6.081   4.058  14.296  0.00  0.00    +0.000 C 
ATOM     27  O   UNL     1       5.800   3.665  15.637  0.00  0.00    +0.000 OA
ENDBRANCH  19  27
ENDBRANCH  15  22
ENDBRANCH   1  16
TORSDOF 3
ENDMDL
MODEL 6
REMARK VINA RESULT:      -7.4      3.955     10.165
REMARK  Name = 
REMARK  5 active torsions:
REMARK  status: ('A' for Active; 'I' for Inactive)
REMARK    1  A    between atoms: C_1  and  O_2
REMARK    2  A    between atoms: O_2  and  C_3
REMARK    3  A    between atoms: C_6  and  N_7
REMARK    4  A    between atoms: C_8  and  C_10
REMARK    5  A    between atoms: C_16  and  C_17
REMARK                            x       y       z     vdW  Elec       q    Type
REMARK                         _______ _______ _______ _____ _____    ______ ____
ROOT
ATOM      1  C   UNL     1       0.490   9.762  21.170  0.00  0.00    +0.000 A 
ATOM      2  C   UNL     1       0.895  10.274  19.954  0.00  0.00    +0.000 A 
ATOM      3  C   UNL     1       1.580   9.294  19.172  0.00  0.00    +0.000 A 
ATOM      4  C   UNL     1       1.661   8.073  19.812  0.00  0.00    +0.000 A 
ATOM      5  S   UNL     1       0.757   8.086  21.238  0.00  0.00    +0.000 S 
ATOM      6  C   UNL     1       2.414   6.947  19.252  0.00  0.00    +0.000 A 
ATOM      7  C   UNL     1       2.685   5.696  19.863  0.00  0.00    +0.000 A 
ATOM      8  C   UNL     1       2.264   5.215  21.228  0.00  0.00    +0.000 C 
ATOM      9  C   UNL     1       3.432   4.736  19.144  0.00  0.00    +0.000 A 
ATOM     10  C   UNL     1       3.926   4.993  17.870  0.00  0.00    +0.000 A 
ATOM     11  C   UNL     1       3.688   6.221  17.281  0.00  0.00    +0.000 A 
ATOM     12  C   UNL     1       2.946   7.192  17.957  0.00  0.00    +0.000 A 
ATOM     13  O   UNL     1       2.792   8.349  17.230  0.00  0.00    +0.000 OA
ATOM     14  C   UNL     1       2.209   9.510  17.846  0.00  0.00    +0.000 C 
ENDROOT
BRANCH   1  16
ATOM     15  N   UNL     1      -0.803  11.627  21.913  0.00  0.00    +0.000 N 
ATOM     16  C   UNL     1      -0.099  10.487  22.283  0.00  0.00    +0.000 C 
ATOM     17  O   UNL     1      -0.006  10.060  23.429  0.00  0.00    +0.000 OA
ATOM     18  H   UNL     1      -0.870  11.795  20.916  0.00  0.00    +0.000 HD
BRANCH  15  22
ATOM     19  C   UNL     1      -2.918  14.205  24.495  0.00  0.00    +0.000 A 
ATOM     20  C   UNL     1      -1.667  14.573  24.008  0.00  0.00    +0.000 A 
ATOM     21  C   UNL     1      -0.970  13.738  23.136  0.00  0.00    +0.000 A 
ATOM     22  C   UNL     1      -1.497  12.508  22.756  0.00  0.00    +0.000 A 
ATOM     23  C   UNL     1      -2.752  12.123  23.238  0.00  0.00    +0.000 A 
ATOM     24  C   UNL     1      -3.452  12.963  24.119  0.00  0.00    +0.000 A 
ATOM     25 CL   UNL     1      -4.990  12.432  24.705  0.00  0.00    +0.000 Cl
BRANCH  19  27
ATOM     26  C   UNL     1      -3.910  16.309  24.857  0.00  0.00    +0.000 C 
ATOM     27  O   UNL     1      -3.640  14.999  25.348  0.00  0.00    +0.000 OA
ENDBRANCH  19  27
ENDBRANCH  15  22
ENDBRANCH   1  16
TORSDOF 3
ENDMDL
MODEL 7
REMARK VINA RESULT:      -7.4      2.269      3.077
REMARK  Name = 
REMARK  5 active torsions:
REMARK  status: ('A' for Active; 'I' for Inactive)
REMARK    1  A    between atoms: C_1  and  O_2
REMARK    2  A    between atoms: O_2  and  C_3
REMARK    3  A    between atoms: C_6  and  N_7
REMARK    4  A    between atoms: C_8  and  C_10
REMARK    5  A    between atoms: C_16  and  C_17
REMARK                            x       y       z     vdW  Elec       q    Type
REMARK                         _______ _______ _______ _____ _____    ______ ____
ROOT
ATOM      1  C   UNL     1       1.308   9.562  19.167  0.00  0.00    +0.000 A 
ATOM      2  C   UNL     1       1.073  10.655  18.359  0.00  0.00    +0.000 A 
ATOM      3  C   UNL     1       0.307  11.653  19.035  0.00  0.00    +0.000 A 
ATOM      4  C   UNL     1      -0.002  11.292  20.331  0.00  0.00    +0.000 A 
ATOM      5  S   UNL     1       0.789   9.862  20.757  0.00  0.00    +0.000 S 
ATOM      6  C   UNL     1      -0.874  12.108  21.183  0.00  0.00    +0.000 A 
ATOM      7  C   UNL     1      -1.372  11.788  22.472  0.00  0.00    +0.000 A 
ATOM      8  C   UNL     1      -1.126  10.542  23.283  0.00  0.00    +0.000 C 
ATOM      9  C   UNL     1      -2.201  12.724  23.131  0.00  0.00    +0.000 A 
ATOM     10  C   UNL     1      -2.559  13.931  22.543  0.00  0.00    +0.000 A 
ATOM     11  C   UNL     1      -2.097  14.236  21.275  0.00  0.00    +0.000 A 
ATOM     12  C   UNL     1      -1.269  13.340  20.596  0.00  0.00    +0.000 A 
ATOM     13  O   UNL     1      -0.892  13.798  19.355  0.00  0.00    +0.000 OA
ATOM     14  C   UNL     1      -0.187  12.926  18.455  0.00  0.00    +0.000 C 
ENDROOT
BRANCH   1  16
ATOM     15  N   UNL     1       2.001   7.373  19.825  0.00  0.00    +0.000 N 
ATOM     16  C   UNL     1       1.918   8.298  18.790  0.00  0.00    +0.000 C 
ATOM     17  O   UNL     1       2.264   8.088  17.632  0.00  0.00    +0.000 OA
ATOM     18  H   UNL     1       1.584   7.661  20.702  0.00  0.00    +0.000 HD
BRANCH  15  22
ATOM     19  C   UNL     1       3.624   3.485  19.648  0.00  0.00    +0.000 A 
ATOM     20  C   UNL     1       2.366   3.694  20.207  0.00  0.00    +0.000 A 
ATOM     21  C   UNL     1       1.812   4.972  20.248  0.00  0.00    +0.000 A 
ATOM     22  C   UNL     1       2.513   6.069  19.760  0.00  0.00    +0.000 A 
ATOM     23  C   UNL     1       3.779   5.875  19.196  0.00  0.00    +0.000 A 
ATOM     24  C   UNL     1       4.339   4.588  19.157  0.00  0.00    +0.000 A 
ATOM     25 CL   UNL     1       5.916   4.404  18.472  0.00  0.00    +0.000 Cl
BRANCH  19  27
ATOM     26  C   UNL     1       3.680   1.398  18.559  0.00  0.00    +0.000 C 
ATOM     27  O   UNL     1       4.203   2.244  19.580  0.00  0.00    +0.000 OA
ENDBRANCH  19  27
ENDBRANCH  15  22
ENDBRANCH   1  16
TORSDOF 3
ENDMDL
MODEL 8
REMARK VINA RESULT:      -7.3      1.906      2.786
REMARK  Name = 
REMARK  5 active torsions:
REMARK  status: ('A' for Active; 'I' for Inactive)
REMARK    1  A    between atoms: C_1  and  O_2
REMARK    2  A    between atoms: O_2  and  C_3
REMARK    3  A    between atoms: C_6  and  N_7
REMARK    4  A    between atoms: C_8  and  C_10
REMARK    5  A    between atoms: C_16  and  C_17
REMARK                            x       y       z     vdW  Elec       q    Type
REMARK                         _______ _______ _______ _____ _____    ______ ____
ROOT
ATOM      1  C   UNL     1       1.415   9.782  18.793  0.00  0.00    +0.000 A 
ATOM      2  C   UNL     1       1.057  10.973  18.197  0.00  0.00    +0.000 A 
ATOM      3  C   UNL     1       0.283  11.790  19.078  0.00  0.00    +0.000 A 
ATOM      4  C   UNL     1       0.092  11.200  20.311  0.00  0.00    +0.000 A 
ATOM      5  S   UNL     1       0.996   9.779  20.440  0.00  0.00    +0.000 S 
ATOM      6  C   UNL     1      -0.763  11.801  21.340  0.00  0.00    +0.000 A 
ATOM      7  C   UNL     1      -1.146  11.239  22.585  0.00  0.00    +0.000 A 
ATOM      8  C   UNL     1      -0.768   9.898  23.158  0.00  0.00    +0.000 C 
ATOM      9  C   UNL     1      -1.980  11.993  23.442  0.00  0.00    +0.000 A 
ATOM     10  C   UNL     1      -2.451  13.252  23.090  0.00  0.00    +0.000 A 
ATOM     11  C   UNL     1      -2.102  13.793  21.865  0.00  0.00    +0.000 A 
ATOM     12  C   UNL     1      -1.273  13.082  20.995  0.00  0.00    +0.000 A 
ATOM     13  O   UNL     1      -1.015  13.762  19.828  0.00  0.00    +0.000 OA
ATOM     14  C   UNL     1      -0.326  13.103  18.752  0.00  0.00    +0.000 C 
ENDROOT
BRANCH   1  16
ATOM     15  N   UNL     1       1.973   7.462  18.898  0.00  0.00    +0.000 N 
ATOM     16  C   UNL     1       2.071   8.644  18.172  0.00  0.00    +0.000 C 
ATOM     17  O   UNL     1       2.603   8.750  17.072  0.00  0.00    +0.000 OA
ATOM     18  H   UNL     1       1.417   7.514  19.744  0.00  0.00    +0.000 HD
BRANCH  15  22
ATOM     19  C   UNL     1       3.553   3.680  17.907  0.00  0.00    +0.000 A 
ATOM     20  C   UNL     1       2.194   3.936  17.745  0.00  0.00    +0.000 A 
ATOM     21  C   UNL     1       1.667   5.190  18.048  0.00  0.00    +0.000 A 
ATOM     22  C   UNL     1       2.480   6.203  18.544  0.00  0.00    +0.000 A 
ATOM     23  C   UNL     1       3.847   5.962  18.713  0.00  0.00    +0.000 A 
ATOM     24  C   UNL     1       4.378   4.697  18.411  0.00  0.00    +0.000 A 
ATOM     25 CL   UNL     1       6.070   4.441  18.659  0.00  0.00    +0.000 Cl
BRANCH  19  27
ATOM     26  C   UNL     1       3.655   1.385  18.424  0.00  0.00    +0.000 C 
ATOM     27  O   UNL     1       4.114   2.464  17.614  0.00  0.00    +0.000 OA
ENDBRANCH  19  27
ENDBRANCH  15  22
ENDBRANCH   1  16
TORSDOF 3
ENDMDL
MODEL 9
REMARK VINA RESULT:      -7.3      1.573      1.662
REMARK  Name = 
REMARK  5 active torsions:
REMARK  status: ('A' for Active; 'I' for Inactive)
REMARK    1  A    between atoms: C_1  and  O_2
REMARK    2  A    between atoms: O_2  and  C_3
REMARK    3  A    between atoms: C_6  and  N_7
REMARK    4  A    between atoms: C_8  and  C_10
REMARK    5  A    between atoms: C_16  and  C_17
REMARK                            x       y       z     vdW  Elec       q    Type
REMARK                         _______ _______ _______ _____ _____    ______ ____
ROOT
ATOM      1  C   UNL     1       1.811   7.948  19.765  0.00  0.00    +0.000 A 
ATOM      2  C   UNL     1       1.377   7.852  21.071  0.00  0.00    +0.000 A 
ATOM      3  C   UNL     1       0.776   9.069  21.517  0.00  0.00    +0.000 A 
ATOM      4  C   UNL     1       0.764  10.040  20.535  0.00  0.00    +0.000 A 
ATOM      5  S   UNL     1       1.297   9.407  19.063  0.00  0.00    +0.000 S 
ATOM      6  C   UNL     1       0.299  11.406  20.795  0.00  0.00    +0.000 A 
ATOM      7  C   UNL     1       0.358  12.522  19.921  0.00  0.00    +0.000 A 
ATOM      8  C   UNL     1       0.904  12.579  18.517  0.00  0.00    +0.000 C 
ATOM      9  C   UNL     1      -0.154  13.762  20.366  0.00  0.00    +0.000 A 
ATOM     10  C   UNL     1      -0.689  13.921  21.639  0.00  0.00    +0.000 A 
ATOM     11  C   UNL     1      -0.724  12.843  22.504  0.00  0.00    +0.000 A 
ATOM     12  C   UNL     1      -0.235  11.600  22.097  0.00  0.00    +0.000 A 
ATOM     13  O   UNL     1      -0.353  10.634  23.070  0.00  0.00    +0.000 OA
ATOM     14  C   UNL     1       0.260   9.349  22.880  0.00  0.00    +0.000 C 
ENDROOT
BRANCH   1  16
ATOM     15  N   UNL     1       3.611   7.532  18.253  0.00  0.00    +0.000 N 
ATOM     16  C   UNL     1       2.593   6.977  19.020  0.00  0.00    +0.000 C 
ATOM     17  O   UNL     1       2.375   5.775  19.133  0.00  0.00    +0.000 OA
ATOM     18  H   UNL     1       3.726   8.535  18.339  0.00  0.00    +0.000 HD
BRANCH  15  22
ATOM     19  C   UNL     1       6.409   5.418  15.910  0.00  0.00    +0.000 A 
ATOM     20  C   UNL     1       5.354   6.094  15.302  0.00  0.00    +0.000 A 
ATOM     21  C   UNL     1       4.438   6.815  16.066  0.00  0.00    +0.000 A 
ATOM     22  C   UNL     1       4.541   6.851  17.452  0.00  0.00    +0.000 A 
ATOM     23  C   UNL     1       5.594   6.176  18.079  0.00  0.00    +0.000 A 
ATOM     24  C   UNL     1       6.515   5.448  17.308  0.00  0.00    +0.000 A 
ATOM     25 CL   UNL     1       7.786   4.611  18.130  0.00  0.00    +0.000 Cl
BRANCH  19  27
ATOM     26  C   UNL     1       6.927   4.345  13.878  0.00  0.00    +0.000 C 
ATOM     27  O   UNL     1       7.337   4.705  15.196  0.00  0.00    +0.000 OA
ENDBRANCH  19  27
ENDBRANCH  15  22
ENDBRANCH   1  16
TORSDOF 3
ENDMDL
