MODEL 1
REMARK VINA RESULT:      -8.1      0.000      0.000
REMARK  Name = 
REMARK  9 active torsions:
REMARK  status: ('A' for Active; 'I' for Inactive)
REMARK    1  A    between atoms: C_1  and  C_2
REMARK    2  A    between atoms: C_2  and  O_4
REMARK    3  A    between atoms: O_4  and  C_5
REMARK    4  A    between atoms: C_6  and  C_7
REMARK    5  A    between atoms: C_8  and  C_9
REMARK    6  A    between atoms: C_10  and  C_11
REMARK    7  A    between atoms: C_16  and  C_17
REMARK    8  A    between atoms: C_21  and  C_22
REMARK    9  A    between atoms: C_21  and  C_23
REMARK                            x       y       z     vdW  Elec       q    Type
REMARK                         _______ _______ _______ _____ _____    ______ ____
ROOT
ATOM      1  C   UNL     1       5.216   5.664  18.977  0.00  0.00    +0.000 C 
ATOM      2  C   UNL     1       4.954   5.316  17.698  0.00  0.00    +0.000 C 
ATOM      3  C   UNL     1       4.059   6.327  16.986  0.00  0.00    +0.000 C 
ATOM      4  C   UNL     1       4.846   3.786  17.398  0.00  0.00    +0.000 C 
ATOM      5  C   UNL     1       3.351   3.398  17.784  0.00  0.00    +0.000 C 
ATOM      6  C   UNL     1       2.484   3.830  16.549  0.00  0.00    +0.000 C 
ATOM      7  C   UNL     1       2.877   1.913  17.928  0.00  0.00    +0.000 C 
ATOM      8  C   UNL     1       1.457   1.905  18.567  0.00  0.00    +0.000 C 
ATOM      9  C   UNL     1       1.571   2.211  20.045  0.00  0.00    +0.000 C 
ATOM     10  C   UNL     1       2.079   3.643  20.302  0.00  0.00    +0.000 C 
ATOM     11  C   UNL     1       0.957   4.685  20.139  0.00  0.00    +0.000 C 
ATOM     12  C   UNL     1       2.524   3.646  21.800  0.00  0.00    +0.000 C 
ATOM     13  C   UNL     1       3.289   3.958  19.356  0.00  0.00    +0.000 C 
ATOM     14  C   UNL     1       3.909   5.365  19.638  0.00  0.00    +0.000 C 
ATOM     15  O   UNL     1       3.451   6.196  20.415  0.00  0.00    +0.000 OA
ENDROOT
BRANCH   4  16
ATOM     16  C   UNL     1       5.583   3.493  16.117  0.00  0.00    +0.000 C 
ATOM     17  C   UNL     1       6.213   4.396  15.337  0.00  0.00    +0.000 C 
BRANCH  17  18
ATOM     18  C   UNL     1       6.520   4.201  13.950  0.00  0.00    +0.000 A 
ATOM     19  C   UNL     1       5.869   3.383  12.970  0.00  0.00    +0.000 A 
ATOM     20  C   UNL     1       6.477   3.654  11.767  0.00  0.00    +0.000 A 
ATOM     21  O   UNL     1       7.471   4.568  11.940  0.00  0.00    +0.000 OA
ATOM     22  C   UNL     1       7.498   4.886  13.261  0.00  0.00    +0.000 A 
ENDBRANCH  17  18
ENDBRANCH   4  16
BRANCH   1  23
ATOM     23  O   UNL     1       6.325   5.170  19.663  0.00  0.00    +0.000 OA
BRANCH  23  25
ATOM     24  C   UNL     1       7.641   6.762  18.541  0.00  0.00    +0.000 C 
ATOM     25  C   UNL     1       7.399   5.309  18.814  0.00  0.00    +0.000 C 
ATOM     26  O   UNL     1       8.076   4.416  18.316  0.00  0.00    +0.000 OA
ENDBRANCH  23  25
ENDBRANCH   1  23
TORSDOF 4
ENDMDL
MODEL 2
REMARK VINA RESULT:      -7.7      2.921      6.735
REMARK  Name = 
REMARK  9 active torsions:
REMARK  status: ('A' for Active; 'I' for Inactive)
REMARK    1  A    between atoms: C_1  and  C_2
REMARK    2  A    between atoms: C_2  and  O_4
REMARK    3  A    between atoms: O_4  and  C_5
REMARK    4  A    between atoms: C_6  and  C_7
REMARK    5  A    between atoms: C_8  and  C_9
REMARK    6  A    between atoms: C_10  and  C_11
REMARK    7  A    between atoms: C_16  and  C_17
REMARK    8  A    between atoms: C_21  and  C_22
REMARK    9  A    between atoms: C_21  and  C_23
REMARK                            x       y       z     vdW  Elec       q    Type
REMARK                         _______ _______ _______ _____ _____    ______ ____
ROOT
ATOM      1  C   UNL     1       3.598   4.548  19.359  0.00  0.00    +0.000 C 
ATOM      2  C   UNL     1       3.153   5.261  18.301  0.00  0.00    +0.000 C 
ATOM      3  C   UNL     1       3.079   4.430  17.023  0.00  0.00    +0.000 C 
ATOM      4  C   UNL     1       3.544   6.774  18.263  0.00  0.00    +0.000 C 
ATOM      5  C   UNL     1       5.007   6.802  17.636  0.00  0.00    +0.000 C 
ATOM      6  C   UNL     1       4.790   6.689  16.085  0.00  0.00    +0.000 C 
ATOM      7  C   UNL     1       5.917   8.074  17.678  0.00  0.00    +0.000 C 
ATOM      8  C   UNL     1       7.352   7.675  17.224  0.00  0.00    +0.000 C 
ATOM      9  C   UNL     1       8.038   6.915  18.338  0.00  0.00    +0.000 C 
ATOM     10  C   UNL     1       7.354   5.563  18.623  0.00  0.00    +0.000 C 
ATOM     11  C   UNL     1       7.761   4.490  17.597  0.00  0.00    +0.000 C 
ATOM     12  C   UNL     1       7.901   5.125  20.019  0.00  0.00    +0.000 C 
ATOM     13  C   UNL     1       5.798   5.749  18.663  0.00  0.00    +0.000 C 
ATOM     14  C   UNL     1       5.054   4.429  19.043  0.00  0.00    +0.000 C 
ATOM     15  O   UNL     1       5.586   3.332  19.179  0.00  0.00    +0.000 OA
ENDROOT
BRANCH   4  16
ATOM     16  C   UNL     1       2.337   7.573  17.847  0.00  0.00    +0.000 C 
ATOM     17  C   UNL     1       2.193   8.910  17.950  0.00  0.00    +0.000 C 
BRANCH  17  18
ATOM     18  C   UNL     1       0.932   9.595  17.970  0.00  0.00    +0.000 A 
ATOM     19  C   UNL     1      -0.324   9.227  17.388  0.00  0.00    +0.000 A 
ATOM     20  C   UNL     1      -1.239  10.162  17.809  0.00  0.00    +0.000 A 
ATOM     21  O   UNL     1      -0.632  11.091  18.596  0.00  0.00    +0.000 OA
ATOM     22  C   UNL     1       0.680  10.749  18.680  0.00  0.00    +0.000 A 
ENDBRANCH  17  18
ENDBRANCH   4  16
BRANCH   1  23
ATOM     23  O   UNL     1       3.333   4.935  20.673  0.00  0.00    +0.000 OA
BRANCH  23  25
ATOM     24  C   UNL     1       2.230   3.099  21.642  0.00  0.00    +0.000 C 
ATOM     25  C   UNL     1       2.088   4.435  20.979  0.00  0.00    +0.000 C 
ATOM     26  O   UNL     1       0.999   4.953  20.752  0.00  0.00    +0.000 OA
ENDBRANCH  23  25
ENDBRANCH   1  23
TORSDOF 4
ENDMDL
MODEL 3
REMARK VINA RESULT:      -7.3      2.966      5.574
REMARK  Name = 
REMARK  9 active torsions:
REMARK  status: ('A' for Active; 'I' for Inactive)
REMARK    1  A    between atoms: C_1  and  C_2
REMARK    2  A    between atoms: C_2  and  O_4
REMARK    3  A    between atoms: O_4  and  C_5
REMARK    4  A    between atoms: C_6  and  C_7
REMARK    5  A    between atoms: C_8  and  C_9
REMARK    6  A    between atoms: C_10  and  C_11
REMARK    7  A    between atoms: C_16  and  C_17
REMARK    8  A    between atoms: C_21  and  C_22
REMARK    9  A    between atoms: C_21  and  C_23
REMARK                            x       y       z     vdW  Elec       q    Type
REMARK                         _______ _______ _______ _____ _____    ______ ____
ROOT
ATOM      1  C   UNL     1       4.877   5.355  17.212  0.00  0.00    +0.000 C 
ATOM      2  C   UNL     1       4.104   6.216  17.910  0.00  0.00    +0.000 C 
ATOM      3  C   UNL     1       4.790   6.728  19.173  0.00  0.00    +0.000 C 
ATOM      4  C   UNL     1       2.562   5.960  17.870  0.00  0.00    +0.000 C 
ATOM      5  C   UNL     1       2.302   4.858  18.989  0.00  0.00    +0.000 C 
ATOM      6  C   UNL     1       2.265   5.650  20.344  0.00  0.00    +0.000 C 
ATOM      7  C   UNL     1       0.949   4.080  19.106  0.00  0.00    +0.000 C 
ATOM      8  C   UNL     1       1.134   2.911  20.118  0.00  0.00    +0.000 C 
ATOM      9  C   UNL     1       1.934   1.804  19.465  0.00  0.00    +0.000 C 
ATOM     10  C   UNL     1       3.376   2.243  19.145  0.00  0.00    +0.000 C 
ATOM     11  C   UNL     1       4.276   2.200  20.394  0.00  0.00    +0.000 C 
ATOM     12  C   UNL     1       3.904   1.173  18.136  0.00  0.00    +0.000 C 
ATOM     13  C   UNL     1       3.369   3.670  18.498  0.00  0.00    +0.000 C 
ATOM     14  C   UNL     1       4.798   4.130  18.064  0.00  0.00    +0.000 C 
ATOM     15  O   UNL     1       5.837   3.522  18.298  0.00  0.00    +0.000 OA
ENDROOT
BRANCH   4  16
ATOM     16  C   UNL     1       1.860   7.280  17.682  0.00  0.00    +0.000 C 
ATOM     17  C   UNL     1       2.407   8.502  17.843  0.00  0.00    +0.000 C 
BRANCH  17  18
ATOM     18  C   UNL     1       1.661   9.703  18.090  0.00  0.00    +0.000 A 
ATOM     19  C   UNL     1       0.274   9.875  18.404  0.00  0.00    +0.000 A 
ATOM     20  C   UNL     1       0.097  11.212  18.672  0.00  0.00    +0.000 A 
ATOM     21  O   UNL     1       1.275  11.879  18.527  0.00  0.00    +0.000 OA
ATOM     22  C   UNL     1       2.212  10.964  18.166  0.00  0.00    +0.000 A 
ENDBRANCH  17  18
ENDBRANCH   4  16
BRANCH   1  23
ATOM     23  O   UNL     1       4.671   5.115  15.853  0.00  0.00    +0.000 OA
BRANCH  23  25
ATOM     24  C   UNL     1       6.030   4.000  14.291  0.00  0.00    +0.000 C 
ATOM     25  C   UNL     1       5.915   5.133  15.264  0.00  0.00    +0.000 C 
ATOM     26  O   UNL     1       6.830   5.921  15.479  0.00  0.00    +0.000 OA
ENDBRANCH  23  25
ENDBRANCH   1  23
TORSDOF 4
ENDMDL
MODEL 4
REMARK VINA RESULT:      -7.3      2.446      5.533
REMARK  Name = 
REMARK  9 active torsions:
REMARK  status: ('A' for Active; 'I' for Inactive)
REMARK    1  A    between atoms: C_1  and  C_2
REMARK    2  A    between atoms: C_2  and  O_4
REMARK    3  A    between atoms: O_4  and  C_5
REMARK    4  A    between atoms: C_6  and  C_7
REMARK    5  A    between atoms: C_8  and  C_9
REMARK    6  A    between atoms: C_10  and  C_11
REMARK    7  A    between atoms: C_16  and  C_17
REMARK    8  A    between atoms: C_21  and  C_22
REMARK    9  A    between atoms: C_21  and  C_23
REMARK                            x       y       z     vdW  Elec       q    Type
REMARK                         _______ _______ _______ _____ _____    ______ ____
ROOT
ATOM      1  C   UNL     1       6.314   4.430  15.589  0.00  0.00    +0.000 C 
ATOM      2  C   UNL     1       6.915   5.229  16.498  0.00  0.00    +0.000 C 
ATOM      3  C   UNL     1       7.865   4.463  17.415  0.00  0.00    +0.000 C 
ATOM      4  C   UNL     1       6.078   6.440  17.026  0.00  0.00    +0.000 C 
ATOM      5  C   UNL     1       5.175   5.836  18.189  0.00  0.00    +0.000 C 
ATOM      6  C   UNL     1       6.114   5.773  19.446  0.00  0.00    +0.000 C 
ATOM      7  C   UNL     1       3.967   6.615  18.807  0.00  0.00    +0.000 C 
ATOM      8  C   UNL     1       3.157   5.640  19.712  0.00  0.00    +0.000 C 
ATOM      9  C   UNL     1       2.352   4.700  18.842  0.00  0.00    +0.000 C 
ATOM     10  C   UNL     1       3.253   3.765  18.011  0.00  0.00    +0.000 C 
ATOM     11  C   UNL     1       3.781   2.588  18.850  0.00  0.00    +0.000 C 
ATOM     12  C   UNL     1       2.313   3.185  16.905  0.00  0.00    +0.000 C 
ATOM     13  C   UNL     1       4.429   4.583  17.375  0.00  0.00    +0.000 C 
ATOM     14  C   UNL     1       5.323   3.705  16.442  0.00  0.00    +0.000 C 
ATOM     15  O   UNL     1       5.217   2.492  16.299  0.00  0.00    +0.000 OA
ENDROOT
BRANCH   4  16
ATOM     16  C   UNL     1       6.968   7.655  17.072  0.00  0.00    +0.000 C 
ATOM     17  C   UNL     1       7.878   7.940  18.025  0.00  0.00    +0.000 C 
BRANCH  17  18
ATOM     18  C   UNL     1       8.387   9.252  18.300  0.00  0.00    +0.000 A 
ATOM     19  C   UNL     1       9.318   9.687  19.298  0.00  0.00    +0.000 A 
ATOM     20  C   UNL     1       9.565  11.017  19.050  0.00  0.00    +0.000 A 
ATOM     21  O   UNL     1       8.836  11.437  17.980  0.00  0.00    +0.000 OA
ATOM     22  C   UNL     1       8.120  10.370  17.539  0.00  0.00    +0.000 A 
ENDBRANCH  17  18
ENDBRANCH   4  16
BRANCH   1  23
ATOM     23  O   UNL     1       5.779   4.934  14.403  0.00  0.00    +0.000 OA
BRANCH  23  25
ATOM     24  C   UNL     1       6.362   3.544  12.599  0.00  0.00    +0.000 C 
ATOM     25  C   UNL     1       6.733   4.733  13.432  0.00  0.00    +0.000 C 
ATOM     26  O   UNL     1       7.756   5.383  13.245  0.00  0.00    +0.000 OA
ENDBRANCH  23  25
ENDBRANCH   1  23
TORSDOF 4
ENDMDL
MODEL 5
REMARK VINA RESULT:      -6.8      2.848      7.349
REMARK  Name = 
REMARK  9 active torsions:
REMARK  status: ('A' for Active; 'I' for Inactive)
REMARK    1  A    between atoms: C_1  and  C_2
REMARK    2  A    between atoms: C_2  and  O_4
REMARK    3  A    between atoms: O_4  and  C_5
REMARK    4  A    between atoms: C_6  and  C_7
REMARK    5  A    between atoms: C_8  and  C_9
REMARK    6  A    between atoms: C_10  and  C_11
REMARK    7  A    between atoms: C_16  and  C_17
REMARK    8  A    between atoms: C_21  and  C_22
REMARK    9  A    between atoms: C_21  and  C_23
REMARK                            x       y       z     vdW  Elec       q    Type
REMARK                         _______ _______ _______ _____ _____    ______ ____
ROOT
ATOM      1  C   UNL     1       3.086   3.491  19.037  0.00  0.00    +0.000 C 
ATOM      2  C   UNL     1       2.286   4.573  18.909  0.00  0.00    +0.000 C 
ATOM      3  C   UNL     1       1.371   4.484  17.692  0.00  0.00    +0.000 C 
ATOM      4  C   UNL     1       2.880   5.940  19.380  0.00  0.00    +0.000 C 
ATOM      5  C   UNL     1       3.739   6.460  18.145  0.00  0.00    +0.000 C 
ATOM      6  C   UNL     1       2.698   7.105  17.163  0.00  0.00    +0.000 C 
ATOM      7  C   UNL     1       4.753   7.646  18.264  0.00  0.00    +0.000 C 
ATOM      8  C   UNL     1       5.601   7.709  16.959  0.00  0.00    +0.000 C 
ATOM      9  C   UNL     1       6.618   6.588  16.967  0.00  0.00    +0.000 C 
ATOM     10  C   UNL     1       5.951   5.200  16.905  0.00  0.00    +0.000 C 
ATOM     11  C   UNL     1       5.518   4.839  15.472  0.00  0.00    +0.000 C 
ATOM     12  C   UNL     1       7.072   4.200  17.335  0.00  0.00    +0.000 C 
ATOM     13  C   UNL     1       4.739   5.145  17.896  0.00  0.00    +0.000 C 
ATOM     14  C   UNL     1       4.080   3.728  17.947  0.00  0.00    +0.000 C 
ATOM     15  O   UNL     1       4.376   2.786  17.220  0.00  0.00    +0.000 OA
ENDROOT
BRANCH   4  16
ATOM     16  C   UNL     1       1.823   6.681  20.157  0.00  0.00    +0.000 C 
ATOM     17  C   UNL     1       1.765   8.015  20.349  0.00  0.00    +0.000 C 
BRANCH  17  18
ATOM     18  C   UNL     1       1.045   8.654  21.412  0.00  0.00    +0.000 A 
ATOM     19  C   UNL     1      -0.364   8.711  21.665  0.00  0.00    +0.000 A 
ATOM     20  C   UNL     1      -0.519   9.336  22.880  0.00  0.00    +0.000 A 
ATOM     21  O   UNL     1       0.696   9.686  23.385  0.00  0.00    +0.000 OA
ATOM     22  C   UNL     1       1.634   9.281  22.490  0.00  0.00    +0.000 A 
ENDBRANCH  17  18
ENDBRANCH   4  16
BRANCH   1  23
ATOM     23  O   UNL     1       3.659   3.138  20.259  0.00  0.00    +0.000 OA
BRANCH  23  25
ATOM     24  C   UNL     1       1.634   1.942  20.275  0.00  0.00    +0.000 C 
ATOM     25  C   UNL     1       2.621   2.740  21.072  0.00  0.00    +0.000 C 
ATOM     26  O   UNL     1       2.470   2.987  22.263  0.00  0.00    +0.000 OA
ENDBRANCH  23  25
ENDBRANCH   1  23
TORSDOF 4
ENDMDL
MODEL 6
REMARK VINA RESULT:      -6.8      7.898     10.647
REMARK  Name = 
REMARK  9 active torsions:
REMARK  status: ('A' for Active; 'I' for Inactive)
REMARK    1  A    between atoms: C_1  and  C_2
REMARK    2  A    between atoms: C_2  and  O_4
REMARK    3  A    between atoms: O_4  and  C_5
REMARK    4  A    between atoms: C_6  and  C_7
REMARK    5  A    between atoms: C_8  and  C_9
REMARK    6  A    between atoms: C_10  and  C_11
REMARK    7  A    between atoms: C_16  and  C_17
REMARK    8  A    between atoms: C_21  and  C_22
REMARK    9  A    between atoms: C_21  and  C_23
REMARK                            x       y       z     vdW  Elec       q    Type
REMARK                         _______ _______ _______ _____ _____    ______ ____
ROOT
ATOM      1  C   UNL     1      -1.100  12.610  19.238  0.00  0.00    +0.000 C 
ATOM      2  C   UNL     1       0.076  12.034  19.571  0.00  0.00    +0.000 C 
ATOM      3  C   UNL     1       0.294  11.977  21.081  0.00  0.00    +0.000 C 
ATOM      4  C   UNL     1       1.269  12.263  18.587  0.00  0.00    +0.000 C 
ATOM      5  C   UNL     1       1.872  13.678  18.999  0.00  0.00    +0.000 C 
ATOM      6  C   UNL     1       2.787  13.388  20.241  0.00  0.00    +0.000 C 
ATOM      7  C   UNL     1       2.894  14.452  18.100  0.00  0.00    +0.000 C 
ATOM      8  C   UNL     1       3.061  15.893  18.665  0.00  0.00    +0.000 C 
ATOM      9  C   UNL     1       1.840  16.715  18.314  0.00  0.00    +0.000 C 
ATOM     10  C   UNL     1       0.570  16.192  19.015  0.00  0.00    +0.000 C 
ATOM     11  C   UNL     1       0.498  16.652  20.482  0.00  0.00    +0.000 C 
ATOM     12  C   UNL     1      -0.613  16.860  18.243  0.00  0.00    +0.000 C 
ATOM     13  C   UNL     1       0.503  14.631  18.904  0.00  0.00    +0.000 C 
ATOM     14  C   UNL     1      -0.813  14.050  19.514  0.00  0.00    +0.000 C 
ATOM     15  O   UNL     1      -1.656  14.701  20.122  0.00  0.00    +0.000 OA
ENDROOT
BRANCH   4  16
ATOM     16  C   UNL     1       1.998  10.958  18.403  0.00  0.00    +0.000 C 
ATOM     17  C   UNL     1       1.434   9.760  18.151  0.00  0.00    +0.000 C 
BRANCH  17  18
ATOM     18  C   UNL     1       2.059   8.494  18.407  0.00  0.00    +0.000 A 
ATOM     19  C   UNL     1       3.002   7.758  17.620  0.00  0.00    +0.000 A 
ATOM     20  C   UNL     1       3.381   6.673  18.375  0.00  0.00    +0.000 A 
ATOM     21  O   UNL     1       2.723   6.679  19.566  0.00  0.00    +0.000 OA
ATOM     22  C   UNL     1       1.919   7.775  19.575  0.00  0.00    +0.000 A 
ENDBRANCH  17  18
ENDBRANCH   4  16
BRANCH   1  23
ATOM     23  O   UNL     1      -1.711  12.379  18.005  0.00  0.00    +0.000 OA
BRANCH  23  25
ATOM     24  C   UNL     1      -2.380  10.155  17.642  0.00  0.00    +0.000 C 
ATOM     25  C   UNL     1      -2.730  11.484  18.239  0.00  0.00    +0.000 C 
ATOM     26  O   UNL     1      -3.787  11.694  18.824  0.00  0.00    +0.000 OA
ENDBRANCH  23  25
ENDBRANCH   1  23
TORSDOF 4
ENDMDL
MODEL 7
REMARK VINA RESULT:      -6.7      7.331     11.117
REMARK  Name = 
REMARK  9 active torsions:
REMARK  status: ('A' for Active; 'I' for Inactive)
REMARK    1  A    between atoms: C_1  and  C_2
REMARK    2  A    between atoms: C_2  and  O_4
REMARK    3  A    between atoms: O_4  and  C_5
REMARK    4  A    between atoms: C_6  and  C_7
REMARK    5  A    between atoms: C_8  and  C_9
REMARK    6  A    between atoms: C_10  and  C_11
REMARK    7  A    between atoms: C_16  and  C_17
REMARK    8  A    between atoms: C_21  and  C_22
REMARK    9  A    between atoms: C_21  and  C_23
REMARK                            x       y       z     vdW  Elec       q    Type
REMARK                         _______ _______ _______ _____ _____    ______ ____
ROOT
ATOM      1  C   UNL     1       8.417  13.861  20.605  0.00  0.00    +0.000 C 
ATOM      2  C   UNL     1       9.014  12.649  20.567  0.00  0.00    +0.000 C 
ATOM      3  C   UNL     1      10.012  12.452  21.705  0.00  0.00    +0.000 C 
ATOM      4  C   UNL     1       9.270  12.040  19.150  0.00  0.00    +0.000 C 
ATOM      5  C   UNL     1      10.633  12.701  18.661  0.00  0.00    +0.000 C 
ATOM      6  C   UNL     1      11.766  11.871  19.362  0.00  0.00    +0.000 C 
ATOM      7  C   UNL     1      11.126  12.613  17.178  0.00  0.00    +0.000 C 
ATOM      8  C   UNL     1      12.333  13.581  16.998  0.00  0.00    +0.000 C 
ATOM      9  C   UNL     1      11.829  15.007  16.945  0.00  0.00    +0.000 C 
ATOM     10  C   UNL     1      11.203  15.449  18.283  0.00  0.00    +0.000 C 
ATOM     11  C   UNL     1      12.277  15.832  19.317  0.00  0.00    +0.000 C 
ATOM     12  C   UNL     1      10.389  16.737  17.935  0.00  0.00    +0.000 C 
ATOM     13  C   UNL     1      10.262  14.321  18.830  0.00  0.00    +0.000 C 
ATOM     14  C   UNL     1       9.523  14.751  20.138  0.00  0.00    +0.000 C 
ATOM     15  O   UNL     1       9.725  15.792  20.754  0.00  0.00    +0.000 OA
ENDROOT
BRANCH   4  16
ATOM     16  C   UNL     1       8.901  10.580  19.181  0.00  0.00    +0.000 C 
ATOM     17  C   UNL     1       8.886   9.740  18.127  0.00  0.00    +0.000 C 
BRANCH  17  18
ATOM     18  C   UNL     1       8.140   8.516  18.070  0.00  0.00    +0.000 A 
ATOM     19  C   UNL     1       7.057   8.138  17.212  0.00  0.00    +0.000 A 
ATOM     20  C   UNL     1       6.788   6.816  17.481  0.00  0.00    +0.000 A 
ATOM     21  O   UNL     1       7.617   6.359  18.459  0.00  0.00    +0.000 OA
ATOM     22  C   UNL     1       8.423   7.392  18.816  0.00  0.00    +0.000 A 
ENDBRANCH  17  18
ENDBRANCH   4  16
BRANCH   1  23
ATOM     23  O   UNL     1       7.194  14.099  19.977  0.00  0.00    +0.000 OA
BRANCH  23  25
ATOM     24  C   UNL     1       6.293  14.304  22.139  0.00  0.00    +0.000 C 
ATOM     25  C   UNL     1       6.495  14.950  20.803  0.00  0.00    +0.000 C 
ATOM     26  O   UNL     1       6.065  16.067  20.532  0.00  0.00    +0.000 OA
ENDBRANCH  23  25
ENDBRANCH   1  23
TORSDOF 4
ENDMDL
MODEL 8
REMARK VINA RESULT:      -6.5      7.817     10.505
REMARK  Name = 
REMARK  9 active torsions:
REMARK  status: ('A' for Active; 'I' for Inactive)
REMARK    1  A    between atoms: C_1  and  C_2
REMARK    2  A    between atoms: C_2  and  O_4
REMARK    3  A    between atoms: O_4  and  C_5
REMARK    4  A    between atoms: C_6  and  C_7
REMARK    5  A    between atoms: C_8  and  C_9
REMARK    6  A    between atoms: C_10  and  C_11
REMARK    7  A    between atoms: C_16  and  C_17
REMARK    8  A    between atoms: C_21  and  C_22
REMARK    9  A    between atoms: C_21  and  C_23
REMARK                            x       y       z     vdW  Elec       q    Type
REMARK                         _______ _______ _______ _____ _____    ______ ____
ROOT
ATOM      1  C   UNL     1      -1.057  12.513  19.106  0.00  0.00    +0.000 C 
ATOM      2  C   UNL     1       0.101  11.936  19.498  0.00  0.00    +0.000 C 
ATOM      3  C   UNL     1       0.224  11.842  21.017  0.00  0.00    +0.000 C 
ATOM      4  C   UNL     1       1.352  12.196  18.597  0.00  0.00    +0.000 C 
ATOM      5  C   UNL     1       1.918  13.603  19.081  0.00  0.00    +0.000 C 
ATOM      6  C   UNL     1       2.754  13.287  20.371  0.00  0.00    +0.000 C 
ATOM      7  C   UNL     1       2.988  14.404  18.267  0.00  0.00    +0.000 C 
ATOM      8  C   UNL     1       3.110  15.832  18.878  0.00  0.00    +0.000 C 
ATOM      9  C   UNL     1       1.908  16.656  18.471  0.00  0.00    +0.000 C 
ATOM     10  C   UNL     1       0.600  16.109  19.077  0.00  0.00    +0.000 C 
ATOM     11  C   UNL     1       0.433  16.531  20.548  0.00  0.00    +0.000 C 
ATOM     12  C   UNL     1      -0.537  16.789  18.249  0.00  0.00    +0.000 C 
ATOM     13  C   UNL     1       0.551  14.550  18.924  0.00  0.00    +0.000 C 
ATOM     14  C   UNL     1      -0.797  13.948  19.435  0.00  0.00    +0.000 C 
ATOM     15  O   UNL     1      -1.681  14.578  20.005  0.00  0.00    +0.000 OA
ENDROOT
BRANCH   4  16
ATOM     16  C   UNL     1       2.100  10.899  18.428  0.00  0.00    +0.000 C 
ATOM     17  C   UNL     1       1.553   9.690  18.190  0.00  0.00    +0.000 C 
BRANCH  17  18
ATOM     18  C   UNL     1       2.197   8.437  18.460  0.00  0.00    +0.000 A 
ATOM     19  C   UNL     1       2.081   7.569  19.593  0.00  0.00    +0.000 A 
ATOM     20  C   UNL     1       2.808   6.439  19.297  0.00  0.00    +0.000 A 
ATOM     21  O   UNL     1       3.379   6.558  18.067  0.00  0.00    +0.000 OA
ATOM     22  C   UNL     1       3.014   7.770  17.572  0.00  0.00    +0.000 A 
ENDBRANCH  17  18
ENDBRANCH   4  16
BRANCH   1  23
ATOM     23  O   UNL     1      -1.587  12.310  17.832  0.00  0.00    +0.000 OA
BRANCH  23  25
ATOM     24  C   UNL     1      -3.715  11.587  18.520  0.00  0.00    +0.000 C 
ATOM     25  C   UNL     1      -2.397  11.201  17.922  0.00  0.00    +0.000 C 
ATOM     26  O   UNL     1      -2.125  10.051  17.595  0.00  0.00    +0.000 OA
ENDBRANCH  23  25
ENDBRANCH   1  23
TORSDOF 4
ENDMDL
MODEL 9
REMARK VINA RESULT:      -6.5      9.330     11.826
REMARK  Name = 
REMARK  9 active torsions:
REMARK  status: ('A' for Active; 'I' for Inactive)
REMARK    1  A    between atoms: C_1  and  C_2
REMARK    2  A    between atoms: C_2  and  O_4
REMARK    3  A    between atoms: O_4  and  C_5
REMARK    4  A    between atoms: C_6  and  C_7
REMARK    5  A    between atoms: C_8  and  C_9
REMARK    6  A    between atoms: C_10  and  C_11
REMARK    7  A    between atoms: C_16  and  C_17
REMARK    8  A    between atoms: C_21  and  C_22
REMARK    9  A    between atoms: C_21  and  C_23
REMARK                            x       y       z     vdW  Elec       q    Type
REMARK                         _______ _______ _______ _____ _____    ______ ____
ROOT
ATOM      1  C   UNL     1      -1.498  12.610  21.855  0.00  0.00    +0.000 C 
ATOM      2  C   UNL     1      -2.033  13.045  20.692  0.00  0.00    +0.000 C 
ATOM      3  C   UNL     1      -1.813  14.538  20.467  0.00  0.00    +0.000 C 
ATOM      4  C   UNL     1      -3.346  12.339  20.220  0.00  0.00    +0.000 C 
ATOM      5  C   UNL     1      -4.514  13.079  21.007  0.00  0.00    +0.000 C 
ATOM      6  C   UNL     1      -4.782  14.398  20.198  0.00  0.00    +0.000 C 
ATOM      7  C   UNL     1      -5.973  12.516  21.074  0.00  0.00    +0.000 C 
ATOM      8  C   UNL     1      -6.774  13.334  22.130  0.00  0.00    +0.000 C 
ATOM      9  C   UNL     1      -6.344  12.915  23.520  0.00  0.00    +0.000 C 
ATOM     10  C   UNL     1      -4.876  13.284  23.808  0.00  0.00    +0.000 C 
ATOM     11  C   UNL     1      -4.722  14.771  24.174  0.00  0.00    +0.000 C 
ATOM     12  C   UNL     1      -4.491  12.438  25.064  0.00  0.00    +0.000 C 
ATOM     13  C   UNL     1      -3.979  12.905  22.580  0.00  0.00    +0.000 C 
ATOM     14  C   UNL     1      -2.463  13.168  22.851  0.00  0.00    +0.000 C 
ATOM     15  O   UNL     1      -2.009  13.718  23.848  0.00  0.00    +0.000 OA
ENDROOT
BRANCH   4  16
ATOM     16  C   UNL     1      -3.242  12.071  18.741  0.00  0.00    +0.000 C 
ATOM     17  C   UNL     1      -3.941  11.150  18.048  0.00  0.00    +0.000 C 
BRANCH  17  18
ATOM     18  C   UNL     1      -3.544  10.609  16.780  0.00  0.00    +0.000 A 
ATOM     19  C   UNL     1      -4.032  10.895  15.464  0.00  0.00    +0.000 A 
ATOM     20  C   UNL     1      -3.228  10.204  14.589  0.00  0.00    +0.000 A 
ATOM     21  O   UNL     1      -2.288   9.497  15.275  0.00  0.00    +0.000 OA
ATOM     22  C   UNL     1      -2.491   9.738  16.597  0.00  0.00    +0.000 A 
ENDBRANCH  17  18
ENDBRANCH   4  16
BRANCH   1  23
ATOM     23  O   UNL     1      -1.180  11.268  22.064  0.00  0.00    +0.000 OA
BRANCH  23  25
ATOM     24  C   UNL     1      -0.270   9.930  20.358  0.00  0.00    +0.000 C 
ATOM     25  C   UNL     1      -0.029  11.028  21.349  0.00  0.00    +0.000 C 
ATOM     26  O   UNL     1       1.057  11.583  21.475  0.00  0.00    +0.000 OA
ENDBRANCH  23  25
ENDBRANCH   1  23
TORSDOF 4
ENDMDL
