MODEL 1
REMARK VINA RESULT:      -8.0      0.000      0.000
REMARK  Name = 
REMARK  8 active torsions:
REMARK  status: ('A' for Active; 'I' for Inactive)
REMARK    1  A    between atoms: C_1  and  C_2
REMARK    2  A    between atoms: C_4  and  N_5
REMARK    3  A    between atoms: C_7  and  C_8
REMARK    4  A    between atoms: C_9  and  C_10
REMARK    5  A    between atoms: C_10  and  N_11
REMARK    6  A    between atoms: C_12  and  C_14
REMARK    7  A    between atoms: N_17  and  C_18
REMARK    8  A    between atoms: C_18  and  C_19
REMARK                            x       y       z     vdW  Elec       q    Type
REMARK                         _______ _______ _______ _____ _____    ______ ____
ROOT
ATOM      1  N   UNL     1       1.903   5.726  20.869  0.00  0.00    +0.000 N 
ATOM      2  C   UNL     1       1.620   4.445  20.382  0.00  0.00    +0.000 C 
ATOM      3  O   UNL     1       0.959   3.668  21.077  0.00  0.00    +0.000 OA
ATOM      4  H   UNL     1       1.639   5.889  21.830  0.00  0.00    +0.000 HD
ENDROOT
BRANCH   2   5
ATOM      5  C   UNL     1       2.119   4.058  19.049  0.00  0.00    +0.000 A 
ATOM      6  C   UNL     1       1.424   3.990  17.823  0.00  0.00    +0.000 A 
ATOM      7  N   UNL     1       2.240   3.593  16.833  0.00  0.00    +0.000 NA
ATOM      8  N   UNL     1       3.402   3.412  17.500  0.00  0.00    +0.000 N 
ATOM      9  N   UNL     1       3.389   3.680  18.809  0.00  0.00    +0.000 NA
BRANCH   8  10
ATOM     10  C   UNL     1       4.676   3.176  16.828  0.00  0.00    +0.000 C 
BRANCH  10  11
ATOM     11  C   UNL     1       5.633   4.309  16.981  0.00  0.00    +0.000 A 
ATOM     12  C   UNL     1       5.842   5.474  16.269  0.00  0.00    +0.000 A 
ATOM     13  C   UNL     1       6.722   6.278  17.040  0.00  0.00    +0.000 A 
ATOM     14  C   UNL     1       7.230   7.586  16.939  0.00  0.00    +0.000 A 
ATOM     15  C   UNL     1       8.069   8.066  17.954  0.00  0.00    +0.000 A 
ATOM     16  C   UNL     1       8.425   7.255  19.034  0.00  0.00    +0.000 A 
ATOM     17  C   UNL     1       7.940   5.947  19.148  0.00  0.00    +0.000 A 
ATOM     18  C   UNL     1       7.076   5.509  18.142  0.00  0.00    +0.000 A 
ATOM     19  O   UNL     1       6.423   4.308  18.103  0.00  0.00    +0.000 OA
ENDBRANCH  10  11
ENDBRANCH   8  10
ENDBRANCH   2   5
BRANCH   1  20
ATOM     20  C   UNL     1       2.683   6.705  20.148  0.00  0.00    +0.000 C 
BRANCH  20  28
ATOM     21  C   UNL     1       1.018   8.455  21.907  0.00  0.00    +0.000 C 
ATOM     22  C   UNL     1       1.222   8.747  20.446  0.00  0.00    +0.000 A 
ATOM     23  C   UNL     1       0.757   9.961  19.931  0.00  0.00    +0.000 A 
ATOM     24  C   UNL     1       0.998  10.278  18.608  0.00  0.00    +0.000 A 
ATOM     25  N   UNL     1       1.668   9.471  17.776  0.00  0.00    +0.000 NA
ATOM     26  C   UNL     1       2.152   8.303  18.265  0.00  0.00    +0.000 A 
ATOM     27  C   UNL     1       3.011   7.521  17.307  0.00  0.00    +0.000 C 
ATOM     28  C   UNL     1       1.958   7.898  19.597  0.00  0.00    +0.000 A 
BRANCH  24  29
ATOM     29  N   UNL     1       0.611  11.515  18.098  0.00  0.00    +0.000 N 
ATOM     30  H   UNL     1       0.353  11.452  17.120  0.00  0.00    +0.000 HD
ATOM     31  H   UNL     1       1.384  12.155  18.257  0.00  0.00    +0.000 HD
ENDBRANCH  24  29
ENDBRANCH  20  28
ENDBRANCH   1  20
TORSDOF 6
ENDMDL
MODEL 2
REMARK VINA RESULT:      -8.0      0.584      1.661
REMARK  Name = 
REMARK  8 active torsions:
REMARK  status: ('A' for Active; 'I' for Inactive)
REMARK    1  A    between atoms: C_1  and  C_2
REMARK    2  A    between atoms: C_4  and  N_5
REMARK    3  A    between atoms: C_7  and  C_8
REMARK    4  A    between atoms: C_9  and  C_10
REMARK    5  A    between atoms: C_10  and  N_11
REMARK    6  A    between atoms: C_12  and  C_14
REMARK    7  A    between atoms: N_17  and  C_18
REMARK    8  A    between atoms: C_18  and  C_19
REMARK                            x       y       z     vdW  Elec       q    Type
REMARK                         _______ _______ _______ _____ _____    ______ ____
ROOT
ATOM      1  N   UNL     1       1.970   5.710  20.877  0.00  0.00    +0.000 N 
ATOM      2  C   UNL     1       1.645   4.446  20.374  0.00  0.00    +0.000 C 
ATOM      3  O   UNL     1       0.932   3.694  21.046  0.00  0.00    +0.000 OA
ATOM      4  H   UNL     1       1.688   5.879  21.831  0.00  0.00    +0.000 HD
ENDROOT
BRANCH   2   5
ATOM      5  C   UNL     1       2.164   4.043  19.052  0.00  0.00    +0.000 A 
ATOM      6  C   UNL     1       1.478   3.932  17.824  0.00  0.00    +0.000 A 
ATOM      7  N   UNL     1       2.311   3.536  16.848  0.00  0.00    +0.000 NA
ATOM      8  N   UNL     1       3.473   3.400  17.525  0.00  0.00    +0.000 N 
ATOM      9  N   UNL     1       3.444   3.695  18.828  0.00  0.00    +0.000 NA
BRANCH   8  10
ATOM     10  C   UNL     1       4.757   3.184  16.867  0.00  0.00    +0.000 C 
BRANCH  10  11
ATOM     11  C   UNL     1       5.677   4.351  16.988  0.00  0.00    +0.000 A 
ATOM     12  C   UNL     1       5.822   5.520  16.266  0.00  0.00    +0.000 A 
ATOM     13  C   UNL     1       6.695   6.357  17.008  0.00  0.00    +0.000 A 
ATOM     14  C   UNL     1       7.153   7.683  16.889  0.00  0.00    +0.000 A 
ATOM     15  C   UNL     1       8.005   8.196  17.877  0.00  0.00    +0.000 A 
ATOM     16  C   UNL     1       8.424   7.402  18.946  0.00  0.00    +0.000 A 
ATOM     17  C   UNL     1       7.990   6.077  19.078  0.00  0.00    +0.000 A 
ATOM     18  C   UNL     1       7.111   5.606  18.101  0.00  0.00    +0.000 A 
ATOM     19  O   UNL     1       6.501   4.382  18.084  0.00  0.00    +0.000 OA
ENDBRANCH  10  11
ENDBRANCH   8  10
ENDBRANCH   2   5
BRANCH   1  20
ATOM     20  C   UNL     1       2.812   6.657  20.184  0.00  0.00    +0.000 C 
BRANCH  20  28
ATOM     21  C   UNL     1       3.149   7.392  17.307  0.00  0.00    +0.000 C 
ATOM     22  C   UNL     1       2.274   8.183  18.240  0.00  0.00    +0.000 A 
ATOM     23  C   UNL     1       1.465   9.192  17.710  0.00  0.00    +0.000 A 
ATOM     24  C   UNL     1       0.600   9.880  18.540  0.00  0.00    +0.000 A 
ATOM     25  N   UNL     1       0.493   9.628  19.851  0.00  0.00    +0.000 NA
ATOM     26  C   UNL     1       1.249   8.633  20.377  0.00  0.00    +0.000 A 
ATOM     27  C   UNL     1       0.968   8.319  21.822  0.00  0.00    +0.000 C 
ATOM     28  C   UNL     1       2.153   7.878  19.609  0.00  0.00    +0.000 A 
BRANCH  24  29
ATOM     29  N   UNL     1      -0.269  10.834  18.017  0.00  0.00    +0.000 N 
ATOM     30  H   UNL     1       0.120  11.283  17.196  0.00  0.00    +0.000 HD
ATOM     31  H   UNL     1      -0.468  11.494  18.764  0.00  0.00    +0.000 HD
ENDBRANCH  24  29
ENDBRANCH  20  28
ENDBRANCH   1  20
TORSDOF 6
ENDMDL
MODEL 3
REMARK VINA RESULT:      -7.9      2.059      2.978
REMARK  Name = 
REMARK  8 active torsions:
REMARK  status: ('A' for Active; 'I' for Inactive)
REMARK    1  A    between atoms: C_1  and  C_2
REMARK    2  A    between atoms: C_4  and  N_5
REMARK    3  A    between atoms: C_7  and  C_8
REMARK    4  A    between atoms: C_9  and  C_10
REMARK    5  A    between atoms: C_10  and  N_11
REMARK    6  A    between atoms: C_12  and  C_14
REMARK    7  A    between atoms: N_17  and  C_18
REMARK    8  A    between atoms: C_18  and  C_19
REMARK                            x       y       z     vdW  Elec       q    Type
REMARK                         _______ _______ _______ _____ _____    ______ ____
ROOT
ATOM      1  N   UNL     1       1.615   6.445  21.034  0.00  0.00    +0.000 N 
ATOM      2  C   UNL     1       1.893   5.178  20.509  0.00  0.00    +0.000 C 
ATOM      3  O   UNL     1       1.384   4.183  21.033  0.00  0.00    +0.000 OA
ATOM      4  H   UNL     1       1.096   6.447  21.899  0.00  0.00    +0.000 HD
ENDROOT
BRANCH   2   5
ATOM      5  C   UNL     1       2.789   5.065  19.342  0.00  0.00    +0.000 A 
ATOM      6  C   UNL     1       2.458   4.956  17.974  0.00  0.00    +0.000 A 
ATOM      7  N   UNL     1       3.568   4.876  17.221  0.00  0.00    +0.000 NA
ATOM      8  N   UNL     1       4.536   4.918  18.164  0.00  0.00    +0.000 N 
ATOM      9  N   UNL     1       4.131   5.037  19.432  0.00  0.00    +0.000 NA
BRANCH   8  10
ATOM     10  C   UNL     1       5.951   5.072  17.845  0.00  0.00    +0.000 C 
BRANCH  10  11
ATOM     11  C   UNL     1       6.281   4.668  16.449  0.00  0.00    +0.000 A 
ATOM     12  C   UNL     1       5.792   3.688  15.607  0.00  0.00    +0.000 A 
ATOM     13  C   UNL     1       6.319   3.952  14.316  0.00  0.00    +0.000 A 
ATOM     14  C   UNL     1       6.133   3.414  13.029  0.00  0.00    +0.000 A 
ATOM     15  C   UNL     1       6.820   3.987  11.950  0.00  0.00    +0.000 A 
ATOM     16  C   UNL     1       7.701   5.052  12.145  0.00  0.00    +0.000 A 
ATOM     17  C   UNL     1       7.910   5.596  13.418  0.00  0.00    +0.000 A 
ATOM     18  C   UNL     1       7.183   5.030  14.468  0.00  0.00    +0.000 A 
ATOM     19  O   UNL     1       7.169   5.460  15.765  0.00  0.00    +0.000 OA
ENDBRANCH  10  11
ENDBRANCH   8  10
ENDBRANCH   2   5
BRANCH   1  20
ATOM     20  C   UNL     1       2.173   7.670  20.511  0.00  0.00    +0.000 C 
BRANCH  20  28
ATOM     21  C   UNL     1       0.023   9.042  22.070  0.00  0.00    +0.000 C 
ATOM     22  C   UNL     1       0.256   9.317  20.609  0.00  0.00    +0.000 A 
ATOM     23  C   UNL     1      -0.444  10.364  20.002  0.00  0.00    +0.000 A 
ATOM     24  C   UNL     1      -0.190  10.679  18.681  0.00  0.00    +0.000 A 
ATOM     25  N   UNL     1       0.708  10.023  17.935  0.00  0.00    +0.000 NA
ATOM     26  C   UNL     1       1.416   9.023  18.515  0.00  0.00    +0.000 A 
ATOM     27  C   UNL     1       2.500   8.431  17.654  0.00  0.00    +0.000 C 
ATOM     28  C   UNL     1       1.229   8.635  19.853  0.00  0.00    +0.000 A 
BRANCH  24  29
ATOM     29  N   UNL     1      -0.819  11.768  18.083  0.00  0.00    +0.000 N 
ATOM     30  H   UNL     1      -0.655  11.791  17.083  0.00  0.00    +0.000 HD
ATOM     31  H   UNL     1      -0.478  12.601  18.553  0.00  0.00    +0.000 HD
ENDBRANCH  24  29
ENDBRANCH  20  28
ENDBRANCH   1  20
TORSDOF 6
ENDMDL
MODEL 4
REMARK VINA RESULT:      -7.9      1.992      3.103
REMARK  Name = 
REMARK  8 active torsions:
REMARK  status: ('A' for Active; 'I' for Inactive)
REMARK    1  A    between atoms: C_1  and  C_2
REMARK    2  A    between atoms: C_4  and  N_5
REMARK    3  A    between atoms: C_7  and  C_8
REMARK    4  A    between atoms: C_9  and  C_10
REMARK    5  A    between atoms: C_10  and  N_11
REMARK    6  A    between atoms: C_12  and  C_14
REMARK    7  A    between atoms: N_17  and  C_18
REMARK    8  A    between atoms: C_18  and  C_19
REMARK                            x       y       z     vdW  Elec       q    Type
REMARK                         _______ _______ _______ _____ _____    ______ ____
ROOT
ATOM      1  N   UNL     1       1.472   5.847  20.314  0.00  0.00    +0.000 N 
ATOM      2  C   UNL     1       1.986   4.577  20.029  0.00  0.00    +0.000 C 
ATOM      3  O   UNL     1       1.246   3.593  20.124  0.00  0.00    +0.000 OA
ATOM      4  H   UNL     1       0.540   5.858  20.700  0.00  0.00    +0.000 HD
ENDROOT
BRANCH   2   5
ATOM      5  C   UNL     1       3.398   4.448  19.622  0.00  0.00    +0.000 A 
ATOM      6  C   UNL     1       4.282   3.365  19.811  0.00  0.00    +0.000 A 
ATOM      7  N   UNL     1       5.490   3.639  19.289  0.00  0.00    +0.000 NA
ATOM      8  N   UNL     1       5.300   4.892  18.819  0.00  0.00    +0.000 N 
ATOM      9  N   UNL     1       4.081   5.415  18.981  0.00  0.00    +0.000 NA
BRANCH   8  10
ATOM     10  C   UNL     1       6.265   5.576  17.964  0.00  0.00    +0.000 C 
BRANCH  10  11
ATOM     11  C   UNL     1       6.380   4.963  16.610  0.00  0.00    +0.000 A 
ATOM     12  C   UNL     1       5.653   3.995  15.945  0.00  0.00    +0.000 A 
ATOM     13  C   UNL     1       6.083   4.012  14.592  0.00  0.00    +0.000 A 
ATOM     14  C   UNL     1       5.681   3.372  13.405  0.00  0.00    +0.000 A 
ATOM     15  C   UNL     1       6.340   3.687  12.209  0.00  0.00    +0.000 A 
ATOM     16  C   UNL     1       7.401   4.595  12.193  0.00  0.00    +0.000 A 
ATOM     17  C   UNL     1       7.825   5.235  13.364  0.00  0.00    +0.000 A 
ATOM     18  C   UNL     1       7.124   4.931  14.533  0.00  0.00    +0.000 A 
ATOM     19  O   UNL     1       7.313   5.502  15.761  0.00  0.00    +0.000 OA
ENDBRANCH  10  11
ENDBRANCH   8  10
ENDBRANCH   2   5
BRANCH   1  20
ATOM     20  C   UNL     1       2.254   7.060  20.253  0.00  0.00    +0.000 C 
BRANCH  20  28
ATOM     21  C   UNL     1       0.552   8.784  22.004  0.00  0.00    +0.000 C 
ATOM     22  C   UNL     1       0.828   9.125  20.565  0.00  0.00    +0.000 A 
ATOM     23  C   UNL     1       0.413  10.368  20.078  0.00  0.00    +0.000 A 
ATOM     24  C   UNL     1       0.721  10.729  18.780  0.00  0.00    +0.000 A 
ATOM     25  N   UNL     1       1.409   9.938  17.947  0.00  0.00    +0.000 NA
ATOM     26  C   UNL     1       1.844   8.741  18.412  0.00  0.00    +0.000 A 
ATOM     27  C   UNL     1       2.726   7.975  17.463  0.00  0.00    +0.000 C 
ATOM     28  C   UNL     1       1.581   8.291  19.718  0.00  0.00    +0.000 A 
BRANCH  24  29
ATOM     29  N   UNL     1       0.385  11.993  18.302  0.00  0.00    +0.000 N 
ATOM     30  H   UNL     1      -0.592  12.207  18.467  0.00  0.00    +0.000 HD
ATOM     31  H   UNL     1       0.626  12.009  17.315  0.00  0.00    +0.000 HD
ENDBRANCH  24  29
ENDBRANCH  20  28
ENDBRANCH   1  20
TORSDOF 6
ENDMDL
MODEL 5
REMARK VINA RESULT:      -7.9      2.383      3.798
REMARK  Name = 
REMARK  8 active torsions:
REMARK  status: ('A' for Active; 'I' for Inactive)
REMARK    1  A    between atoms: C_1  and  C_2
REMARK    2  A    between atoms: C_4  and  N_5
REMARK    3  A    between atoms: C_7  and  C_8
REMARK    4  A    between atoms: C_9  and  C_10
REMARK    5  A    between atoms: C_10  and  N_11
REMARK    6  A    between atoms: C_12  and  C_14
REMARK    7  A    between atoms: N_17  and  C_18
REMARK    8  A    between atoms: C_18  and  C_19
REMARK                            x       y       z     vdW  Elec       q    Type
REMARK                         _______ _______ _______ _____ _____    ______ ____
ROOT
ATOM      1  N   UNL     1       1.557   5.965  19.855  0.00  0.00    +0.000 N 
ATOM      2  C   UNL     1       2.252   4.883  19.302  0.00  0.00    +0.000 C 
ATOM      3  O   UNL     1       1.628   3.868  18.977  0.00  0.00    +0.000 OA
ATOM      4  H   UNL     1       0.585   5.791  20.062  0.00  0.00    +0.000 HD
ENDROOT
BRANCH   2   5
ATOM      5  C   UNL     1       3.713   4.984  19.123  0.00  0.00    +0.000 A 
ATOM      6  C   UNL     1       4.743   4.338  19.837  0.00  0.00    +0.000 A 
ATOM      7  N   UNL     1       5.949   4.696  19.363  0.00  0.00    +0.000 NA
ATOM      8  N   UNL     1       5.605   5.566  18.387  0.00  0.00    +0.000 N 
ATOM      9  N   UNL     1       4.298   5.767  18.197  0.00  0.00    +0.000 NA
BRANCH   8  10
ATOM     10  C   UNL     1       6.560   6.090  17.416  0.00  0.00    +0.000 C 
BRANCH  10  11
ATOM     11  C   UNL     1       6.583   5.312  16.144  0.00  0.00    +0.000 A 
ATOM     12  C   UNL     1       5.797   4.292  15.645  0.00  0.00    +0.000 A 
ATOM     13  C   UNL     1       6.148   4.130  14.280  0.00  0.00    +0.000 A 
ATOM     14  C   UNL     1       5.664   3.361  13.205  0.00  0.00    +0.000 A 
ATOM     15  C   UNL     1       6.259   3.508  11.945  0.00  0.00    +0.000 A 
ATOM     16  C   UNL     1       7.337   4.376  11.757  0.00  0.00    +0.000 A 
ATOM     17  C   UNL     1       7.842   5.142  12.815  0.00  0.00    +0.000 A 
ATOM     18  C   UNL     1       7.204   5.004  14.049  0.00  0.00    +0.000 A 
ATOM     19  O   UNL     1       7.477   5.715  15.185  0.00  0.00    +0.000 OA
ENDBRANCH  10  11
ENDBRANCH   8  10
ENDBRANCH   2   5
BRANCH   1  20
ATOM     20  C   UNL     1       2.191   7.189  20.287  0.00  0.00    +0.000 C 
BRANCH  20  28
ATOM     21  C   UNL     1       2.578   8.381  17.574  0.00  0.00    +0.000 C 
ATOM     22  C   UNL     1       1.677   9.006  18.604  0.00  0.00    +0.000 A 
ATOM     23  C   UNL     1       0.869  10.082  18.227  0.00  0.00    +0.000 A 
ATOM     24  C   UNL     1      -0.017  10.622  19.139  0.00  0.00    +0.000 A 
ATOM     25  N   UNL     1      -0.148  10.160  20.389  0.00  0.00    +0.000 NA
ATOM     26  C   UNL     1       0.607   9.099  20.763  0.00  0.00    +0.000 A 
ATOM     27  C   UNL     1       0.300   8.553  22.133  0.00  0.00    +0.000 C 
ATOM     28  C   UNL     1       1.532   8.482  19.903  0.00  0.00    +0.000 A 
BRANCH  24  29
ATOM     29  N   UNL     1      -0.884  11.643  18.759  0.00  0.00    +0.000 N 
ATOM     30  H   UNL     1      -1.854  11.368  18.862  0.00  0.00    +0.000 HD
ATOM     31  H   UNL     1      -0.649  11.890  17.802  0.00  0.00    +0.000 HD
ENDBRANCH  24  29
ENDBRANCH  20  28
ENDBRANCH   1  20
TORSDOF 6
ENDMDL
MODEL 6
REMARK VINA RESULT:      -7.8      2.324      3.465
REMARK  Name = 
REMARK  8 active torsions:
REMARK  status: ('A' for Active; 'I' for Inactive)
REMARK    1  A    between atoms: C_1  and  C_2
REMARK    2  A    between atoms: C_4  and  N_5
REMARK    3  A    between atoms: C_7  and  C_8
REMARK    4  A    between atoms: C_9  and  C_10
REMARK    5  A    between atoms: C_10  and  N_11
REMARK    6  A    between atoms: C_12  and  C_14
REMARK    7  A    between atoms: N_17  and  C_18
REMARK    8  A    between atoms: C_18  and  C_19
REMARK                            x       y       z     vdW  Elec       q    Type
REMARK                         _______ _______ _______ _____ _____    ______ ____
ROOT
ATOM      1  N   UNL     1       1.409   7.229  21.007  0.00  0.00    +0.000 N 
ATOM      2  C   UNL     1       1.947   6.069  20.441  0.00  0.00    +0.000 C 
ATOM      3  O   UNL     1       1.604   4.968  20.881  0.00  0.00    +0.000 OA
ATOM      4  H   UNL     1       0.851   7.085  21.835  0.00  0.00    +0.000 HD
ENDROOT
BRANCH   2   5
ATOM      5  C   UNL     1       2.912   6.192  19.331  0.00  0.00    +0.000 A 
ATOM      6  C   UNL     1       2.796   6.919  18.128  0.00  0.00    +0.000 A 
ATOM      7  N   UNL     1       3.900   6.775  17.376  0.00  0.00    +0.000 NA
ATOM      8  N   UNL     1       4.641   5.946  18.144  0.00  0.00    +0.000 N 
ATOM      9  N   UNL     1       4.109   5.577  19.313  0.00  0.00    +0.000 NA
BRANCH   8  10
ATOM     10  C   UNL     1       6.042   5.643  17.866  0.00  0.00    +0.000 C 
BRANCH  10  11
ATOM     11  C   UNL     1       6.249   5.030  16.523  0.00  0.00    +0.000 A 
ATOM     12  C   UNL     1       5.592   4.036  15.825  0.00  0.00    +0.000 A 
ATOM     13  C   UNL     1       6.092   4.064  14.497  0.00  0.00    +0.000 A 
ATOM     14  C   UNL     1       5.775   3.406  13.293  0.00  0.00    +0.000 A 
ATOM     15  C   UNL     1       6.486   3.741  12.132  0.00  0.00    +0.000 A 
ATOM     16  C   UNL     1       7.514   4.685  12.167  0.00  0.00    +0.000 A 
ATOM     17  C   UNL     1       7.853   5.343  13.356  0.00  0.00    +0.000 A 
ATOM     18  C   UNL     1       7.102   5.018  14.488  0.00  0.00    +0.000 A 
ATOM     19  O   UNL     1       7.207   5.599  15.721  0.00  0.00    +0.000 OA
ENDBRANCH  10  11
ENDBRANCH   8  10
ENDBRANCH   2   5
BRANCH   1  20
ATOM     20  C   UNL     1       1.757   8.566  20.582  0.00  0.00    +0.000 C 
BRANCH  20  28
ATOM     21  C   UNL     1       0.105   9.587  22.854  0.00  0.00    +0.000 C 
ATOM     22  C   UNL     1      -0.103  10.051  21.438  0.00  0.00    +0.000 A 
ATOM     23  C   UNL     1      -0.981  11.112  21.199  0.00  0.00    +0.000 A 
ATOM     24  C   UNL     1      -1.129  11.600  19.915  0.00  0.00    +0.000 A 
ATOM     25  N   UNL     1      -0.464  11.102  18.865  0.00  0.00    +0.000 NA
ATOM     26  C   UNL     1       0.413  10.092  19.082  0.00  0.00    +0.000 A 
ATOM     27  C   UNL     1       1.222   9.684  17.879  0.00  0.00    +0.000 C 
ATOM     28  C   UNL     1       0.633   9.534  20.354  0.00  0.00    +0.000 A 
BRANCH  24  29
ATOM     29  N   UNL     1      -1.939  12.706  19.671  0.00  0.00    +0.000 N 
ATOM     30  H   UNL     1      -2.399  13.026  20.515  0.00  0.00    +0.000 HD
ATOM     31  H   UNL     1      -2.599  12.435  18.947  0.00  0.00    +0.000 HD
ENDBRANCH  24  29
ENDBRANCH  20  28
ENDBRANCH   1  20
TORSDOF 6
ENDMDL
MODEL 7
REMARK VINA RESULT:      -7.7      1.989      3.340
REMARK  Name = 
REMARK  8 active torsions:
REMARK  status: ('A' for Active; 'I' for Inactive)
REMARK    1  A    between atoms: C_1  and  C_2
REMARK    2  A    between atoms: C_4  and  N_5
REMARK    3  A    between atoms: C_7  and  C_8
REMARK    4  A    between atoms: C_9  and  C_10
REMARK    5  A    between atoms: C_10  and  N_11
REMARK    6  A    between atoms: C_12  and  C_14
REMARK    7  A    between atoms: N_17  and  C_18
REMARK    8  A    between atoms: C_18  and  C_19
REMARK                            x       y       z     vdW  Elec       q    Type
REMARK                         _______ _______ _______ _____ _____    ______ ____
ROOT
ATOM      1  N   UNL     1       1.512   6.125  20.928  0.00  0.00    +0.000 N 
ATOM      2  C   UNL     1       1.590   4.850  20.357  0.00  0.00    +0.000 C 
ATOM      3  O   UNL     1       0.867   3.949  20.795  0.00  0.00    +0.000 OA
ATOM      4  H   UNL     1       0.941   6.192  21.756  0.00  0.00    +0.000 HD
ENDROOT
BRANCH   2   5
ATOM      5  C   UNL     1       2.532   4.616  19.247  0.00  0.00    +0.000 A 
ATOM      6  C   UNL     1       2.260   4.404  17.878  0.00  0.00    +0.000 A 
ATOM      7  N   UNL     1       3.399   4.231  17.188  0.00  0.00    +0.000 NA
ATOM      8  N   UNL     1       4.325   4.322  18.169  0.00  0.00    +0.000 N 
ATOM      9  N   UNL     1       3.868   4.557  19.402  0.00  0.00    +0.000 NA
BRANCH   8  10
ATOM     10  C   UNL     1       5.757   4.409  17.905  0.00  0.00    +0.000 C 
BRANCH  10  11
ATOM     11  C   UNL     1       6.074   4.584  16.459  0.00  0.00    +0.000 A 
ATOM     12  C   UNL     1       7.031   5.315  15.782  0.00  0.00    +0.000 A 
ATOM     13  C   UNL     1       6.998   4.885  14.430  0.00  0.00    +0.000 A 
ATOM     14  C   UNL     1       7.766   5.143  13.278  0.00  0.00    +0.000 A 
ATOM     15  C   UNL     1       7.447   4.473  12.089  0.00  0.00    +0.000 A 
ATOM     16  C   UNL     1       6.368   3.588  12.031  0.00  0.00    +0.000 A 
ATOM     17  C   UNL     1       5.584   3.326  13.161  0.00  0.00    +0.000 A 
ATOM     18  C   UNL     1       5.949   3.978  14.341  0.00  0.00    +0.000 A 
ATOM     19  O   UNL     1       5.380   3.802  15.571  0.00  0.00    +0.000 OA
ENDBRANCH  10  11
ENDBRANCH   8  10
ENDBRANCH   2   5
BRANCH   1  20
ATOM     20  C   UNL     1       2.325   7.243  20.506  0.00  0.00    +0.000 C 
BRANCH  20  28
ATOM     21  C   UNL     1       2.821   7.901  17.634  0.00  0.00    +0.000 C 
ATOM     22  C   UNL     1       1.827   8.659  18.471  0.00  0.00    +0.000 A 
ATOM     23  C   UNL     1       0.991   9.589  17.845  0.00  0.00    +0.000 A 
ATOM     24  C   UNL     1       0.023  10.241  18.584  0.00  0.00    +0.000 A 
ATOM     25  N   UNL     1      -0.163  10.026  19.892  0.00  0.00    +0.000 NA
ATOM     26  C   UNL     1       0.619   9.107  20.509  0.00  0.00    +0.000 A 
ATOM     27  C   UNL     1       0.255   8.824  21.943  0.00  0.00    +0.000 C 
ATOM     28  C   UNL     1       1.627   8.393  19.839  0.00  0.00    +0.000 A 
BRANCH  24  29
ATOM     29  N   UNL     1      -0.869  11.112  17.963  0.00  0.00    +0.000 N 
ATOM     30  H   UNL     1      -1.653  10.616  17.555  0.00  0.00    +0.000 HD
ATOM     31  H   UNL     1      -0.338  11.636  17.274  0.00  0.00    +0.000 HD
ENDBRANCH  24  29
ENDBRANCH  20  28
ENDBRANCH   1  20
TORSDOF 6
ENDMDL
MODEL 8
REMARK VINA RESULT:      -7.7      3.462      5.369
REMARK  Name = 
REMARK  8 active torsions:
REMARK  status: ('A' for Active; 'I' for Inactive)
REMARK    1  A    between atoms: C_1  and  C_2
REMARK    2  A    between atoms: C_4  and  N_5
REMARK    3  A    between atoms: C_7  and  C_8
REMARK    4  A    between atoms: C_9  and  C_10
REMARK    5  A    between atoms: C_10  and  N_11
REMARK    6  A    between atoms: C_12  and  C_14
REMARK    7  A    between atoms: N_17  and  C_18
REMARK    8  A    between atoms: C_18  and  C_19
REMARK                            x       y       z     vdW  Elec       q    Type
REMARK                         _______ _______ _______ _____ _____    ______ ____
ROOT
ATOM      1  N   UNL     1       0.121  10.757  17.909  0.00  0.00    +0.000 N 
ATOM      2  C   UNL     1       1.370  10.320  18.365  0.00  0.00    +0.000 C 
ATOM      3  O   UNL     1       2.390  10.885  17.961  0.00  0.00    +0.000 OA
ATOM      4  H   UNL     1       0.149  11.446  17.173  0.00  0.00    +0.000 HD
ENDROOT
BRANCH   2   5
ATOM      5  C   UNL     1       1.434   9.194  19.316  0.00  0.00    +0.000 A 
ATOM      6  C   UNL     1       1.080   9.162  20.681  0.00  0.00    +0.000 A 
ATOM      7  N   UNL     1       1.285   7.939  21.198  0.00  0.00    +0.000 NA
ATOM      8  N   UNL     1       1.778   7.275  20.129  0.00  0.00    +0.000 N 
ATOM      9  N   UNL     1       1.879   7.966  18.990  0.00  0.00    +0.000 NA
BRANCH   8  10
ATOM     10  C   UNL     1       1.970   5.829  20.110  0.00  0.00    +0.000 C 
BRANCH  10  11
ATOM     11  C   UNL     1       3.086   5.401  19.218  0.00  0.00    +0.000 A 
ATOM     12  C   UNL     1       3.133   4.930  17.921  0.00  0.00    +0.000 A 
ATOM     13  C   UNL     1       4.497   4.933  17.529  0.00  0.00    +0.000 A 
ATOM     14  C   UNL     1       5.197   4.681  16.334  0.00  0.00    +0.000 A 
ATOM     15  C   UNL     1       6.590   4.833  16.321  0.00  0.00    +0.000 A 
ATOM     16  C   UNL     1       7.283   5.195  17.478  0.00  0.00    +0.000 A 
ATOM     17  C   UNL     1       6.609   5.438  18.681  0.00  0.00    +0.000 A 
ATOM     18  C   UNL     1       5.218   5.318  18.654  0.00  0.00    +0.000 A 
ATOM     19  O   UNL     1       4.362   5.593  19.684  0.00  0.00    +0.000 OA
ENDBRANCH  10  11
ENDBRANCH   8  10
ENDBRANCH   2   5
BRANCH   1  20
ATOM     20  C   UNL     1      -1.132  10.154  18.301  0.00  0.00    +0.000 C 
BRANCH  20  28
ATOM     21  C   UNL     1      -2.409   9.518  15.675  0.00  0.00    +0.000 C 
ATOM     22  C   UNL     1      -3.018  10.489  16.649  0.00  0.00    +0.000 A 
ATOM     23  C   UNL     1      -4.300  10.983  16.394  0.00  0.00    +0.000 A 
ATOM     24  C   UNL     1      -4.905  11.819  17.314  0.00  0.00    +0.000 A 
ATOM     25  N   UNL     1      -4.318  12.188  18.460  0.00  0.00    +0.000 NA
ATOM     26  C   UNL     1      -3.086  11.695  18.737  0.00  0.00    +0.000 A 
ATOM     27  C   UNL     1      -2.556  12.043  20.103  0.00  0.00    +0.000 C 
ATOM     28  C   UNL     1      -2.395  10.837  17.864  0.00  0.00    +0.000 A 
BRANCH  24  29
ATOM     29  N   UNL     1      -6.211  12.258  17.114  0.00  0.00    +0.000 N 
ATOM     30  H   UNL     1      -6.616  12.627  17.967  0.00  0.00    +0.000 HD
ATOM     31  H   UNL     1      -6.734  11.470  16.743  0.00  0.00    +0.000 HD
ENDBRANCH  24  29
ENDBRANCH  20  28
ENDBRANCH   1  20
TORSDOF 6
ENDMDL
MODEL 9
REMARK VINA RESULT:      -7.6      1.922      2.858
REMARK  Name = 
REMARK  8 active torsions:
REMARK  status: ('A' for Active; 'I' for Inactive)
REMARK    1  A    between atoms: C_1  and  C_2
REMARK    2  A    between atoms: C_4  and  N_5
REMARK    3  A    between atoms: C_7  and  C_8
REMARK    4  A    between atoms: C_9  and  C_10
REMARK    5  A    between atoms: C_10  and  N_11
REMARK    6  A    between atoms: C_12  and  C_14
REMARK    7  A    between atoms: N_17  and  C_18
REMARK    8  A    between atoms: C_18  and  C_19
REMARK                            x       y       z     vdW  Elec       q    Type
REMARK                         _______ _______ _______ _____ _____    ______ ____
ROOT
ATOM      1  N   UNL     1       1.470   5.596  20.672  0.00  0.00    +0.000 N 
ATOM      2  C   UNL     1       1.505   4.363  20.013  0.00  0.00    +0.000 C 
ATOM      3  O   UNL     1       0.703   3.482  20.338  0.00  0.00    +0.000 OA
ATOM      4  H   UNL     1       0.852   5.641  21.469  0.00  0.00    +0.000 HD
ENDROOT
BRANCH   2   5
ATOM      5  C   UNL     1       2.499   4.147  18.944  0.00  0.00    +0.000 A 
ATOM      6  C   UNL     1       2.290   3.869  17.577  0.00  0.00    +0.000 A 
ATOM      7  N   UNL     1       3.462   3.741  16.932  0.00  0.00    +0.000 NA
ATOM      8  N   UNL     1       4.344   3.926  17.940  0.00  0.00    +0.000 N 
ATOM      9  N   UNL     1       3.829   4.178  19.147  0.00  0.00    +0.000 NA
BRANCH   8  10
ATOM     10  C   UNL     1       5.777   4.093  17.722  0.00  0.00    +0.000 C 
BRANCH  10  11
ATOM     11  C   UNL     1       6.118   4.410  16.305  0.00  0.00    +0.000 A 
ATOM     12  C   UNL     1       6.946   5.346  15.718  0.00  0.00    +0.000 A 
ATOM     13  C   UNL     1       7.055   4.999  14.347  0.00  0.00    +0.000 A 
ATOM     14  C   UNL     1       7.809   5.465  13.252  0.00  0.00    +0.000 A 
ATOM     15  C   UNL     1       7.676   4.818  12.016  0.00  0.00    +0.000 A 
ATOM     16  C   UNL     1       6.790   3.752  11.855  0.00  0.00    +0.000 A 
ATOM     17  C   UNL     1       6.022   3.280  12.927  0.00  0.00    +0.000 A 
ATOM     18  C   UNL     1       6.204   3.918  14.156  0.00  0.00    +0.000 A 
ATOM     19  O   UNL     1       5.625   3.564  15.343  0.00  0.00    +0.000 OA
ENDBRANCH  10  11
ENDBRANCH   8  10
ENDBRANCH   2   5
BRANCH   1  20
ATOM     20  C   UNL     1       2.374   6.686  20.384  0.00  0.00    +0.000 C 
BRANCH  20  28
ATOM     21  C   UNL     1       0.556   8.509  21.902  0.00  0.00    +0.000 C 
ATOM     22  C   UNL     1       0.984   8.796  20.489  0.00  0.00    +0.000 A 
ATOM     23  C   UNL     1       0.657  10.033  19.925  0.00  0.00    +0.000 A 
ATOM     24  C   UNL     1       1.104  10.344  18.655  0.00  0.00    +0.000 A 
ATOM     25  N   UNL     1       1.849   9.508  17.920  0.00  0.00    +0.000 NA
ATOM     26  C   UNL     1       2.200   8.316  18.462  0.00  0.00    +0.000 A 
ATOM     27  C   UNL     1       3.151   7.497  17.630  0.00  0.00    +0.000 C 
ATOM     28  C   UNL     1       1.795   7.916  19.747  0.00  0.00    +0.000 A 
BRANCH  24  29
ATOM     29  N   UNL     1       0.855  11.599  18.108  0.00  0.00    +0.000 N 
ATOM     30  H   UNL     1       1.172  12.343  18.720  0.00  0.00    +0.000 HD
ATOM     31  H   UNL     1      -0.142  11.648  17.921  0.00  0.00    +0.000 HD
ENDBRANCH  24  29
ENDBRANCH  20  28
ENDBRANCH   1  20
TORSDOF 6
ENDMDL
