MODEL 1
REMARK VINA RESULT:      -7.4      0.000      0.000
REMARK  Name = 
REMARK  5 active torsions:
REMARK  status: ('A' for Active; 'I' for Inactive)
REMARK    1  A    between atoms: N_4  and  N_5
REMARK    2  A    between atoms: N_5  and  S_6
REMARK    3  A    between atoms: S_6  and  C_9
REMARK    4  A    between atoms: C_12  and  C_13
REMARK    5  A    between atoms: C_13  and  O_15
REMARK                            x       y       z     vdW  Elec       q    Type
REMARK                         _______ _______ _______ _____ _____    ______ ____
ROOT
ATOM      1  S   UNL     1       6.373   5.341  18.517  0.00  0.00    +0.000 S 
ATOM      2  O   UNL     1       7.035   5.335  19.805  0.00  0.00    +0.000 OA
ATOM      3  O   UNL     1       6.153   6.578  17.798  0.00  0.00    +0.000 OA
ENDROOT
BRANCH   1   4
ATOM      4  C   UNL     1       4.781   4.581  18.753  0.00  0.00    +0.000 A 
ATOM      5  C   UNL     1       4.621   3.381  19.445  0.00  0.00    +0.000 A 
ATOM      6  C   UNL     1       3.340   2.838  19.588  0.00  0.00    +0.000 A 
ATOM      7  C   UNL     1       2.223   3.478  19.032  0.00  0.00    +0.000 A 
ATOM      8  C   UNL     1       2.388   4.695  18.356  0.00  0.00    +0.000 A 
ATOM      9  C   UNL     1       3.668   5.241  18.212  0.00  0.00    +0.000 A 
BRANCH   7  10
ATOM     10  C   UNL     1       0.894   2.843  19.227  0.00  0.00    +0.000 C 
ATOM     11  O   UNL     1       0.360   2.163  18.366  0.00  0.00    +0.000 OA
BRANCH  10  12
ATOM     12  O   UNL     1       0.311   3.119  20.411  0.00  0.00    +0.000 OA
ATOM     13  H   UNL     1      -0.442   2.553  20.654  0.00  0.00    +0.000 HD
ENDBRANCH  10  12
ENDBRANCH   7  10
ENDBRANCH   1   4
BRANCH   1  14
ATOM     14  N   UNL     1       7.238   4.309  17.505  0.00  0.00    +0.000 NA
ATOM     15  H   UNL     1       8.226   4.508  17.307  0.00  0.00    +0.000 HD
BRANCH  14  19
ATOM     16  N   UNL     1       7.559   5.397  15.036  0.00  0.00    +0.000 NA
ATOM     17  C   UNL     1       6.686   4.455  15.175  0.00  0.00    +0.000 C 
ATOM     18  N   UNL     1       5.856   4.079  14.178  0.00  0.00    +0.000 N 
ATOM     19  N   UNL     1       6.533   3.758  16.333  0.00  0.00    +0.000 N 
ATOM     20  H   UNL     1       7.529   5.746  14.076  0.00  0.00    +0.000 HD
ATOM     21  H   UNL     1       5.808   4.709  13.386  0.00  0.00    +0.000 HD
ATOM     22  H   UNL     1       4.931   3.786  14.468  0.00  0.00    +0.000 HD
ATOM     23  H   UNL     1       5.764   3.117  16.500  0.00  0.00    +0.000 HD
ENDBRANCH  14  19
ENDBRANCH   1  14
TORSDOF 5
ENDMDL
MODEL 2
REMARK VINA RESULT:      -7.4      0.130      1.177
REMARK  Name = 
REMARK  5 active torsions:
REMARK  status: ('A' for Active; 'I' for Inactive)
REMARK    1  A    between atoms: N_4  and  N_5
REMARK    2  A    between atoms: N_5  and  S_6
REMARK    3  A    between atoms: S_6  and  C_9
REMARK    4  A    between atoms: C_12  and  C_13
REMARK    5  A    between atoms: C_13  and  O_15
REMARK                            x       y       z     vdW  Elec       q    Type
REMARK                         _______ _______ _______ _____ _____    ______ ____
ROOT
ATOM      1  S   UNL     1       6.328   5.334  18.432  0.00  0.00    +0.000 S 
ATOM      2  O   UNL     1       6.975   5.316  19.728  0.00  0.00    +0.000 OA
ATOM      3  O   UNL     1       6.145   6.574  17.707  0.00  0.00    +0.000 OA
ENDROOT
BRANCH   1   4
ATOM      4  C   UNL     1       4.716   4.612  18.651  0.00  0.00    +0.000 A 
ATOM      5  C   UNL     1       3.581   5.111  18.013  0.00  0.00    +0.000 A 
ATOM      6  C   UNL     1       2.344   4.497  18.234  0.00  0.00    +0.000 A 
ATOM      7  C   UNL     1       2.234   3.398  19.098  0.00  0.00    +0.000 A 
ATOM      8  C   UNL     1       3.382   2.887  19.719  0.00  0.00    +0.000 A 
ATOM      9  C   UNL     1       4.621   3.499  19.499  0.00  0.00    +0.000 A 
BRANCH   7  10
ATOM     10  C   UNL     1       0.888   2.797  19.282  0.00  0.00    +0.000 C 
ATOM     11  O   UNL     1       0.304   2.209  18.387  0.00  0.00    +0.000 OA
BRANCH  10  12
ATOM     12  O   UNL     1       0.349   2.996  20.503  0.00  0.00    +0.000 OA
ATOM     13  H   UNL     1      -0.497   2.546  20.670  0.00  0.00    +0.000 HD
ENDBRANCH  10  12
ENDBRANCH   7  10
ENDBRANCH   1   4
BRANCH   1  14
ATOM     14  N   UNL     1       7.180   4.279  17.432  0.00  0.00    +0.000 NA
ATOM     15  H   UNL     1       8.177   4.452  17.250  0.00  0.00    +0.000 HD
BRANCH  14  19
ATOM     16  N   UNL     1       7.557   5.364  14.971  0.00  0.00    +0.000 NA
ATOM     17  C   UNL     1       6.662   4.442  15.096  0.00  0.00    +0.000 C 
ATOM     18  N   UNL     1       5.837   4.087  14.088  0.00  0.00    +0.000 N 
ATOM     19  N   UNL     1       6.479   3.746  16.250  0.00  0.00    +0.000 N 
ATOM     20  H   UNL     1       7.547   5.716  14.011  0.00  0.00    +0.000 HD
ATOM     21  H   UNL     1       5.813   4.719  13.297  0.00  0.00    +0.000 HD
ATOM     22  H   UNL     1       4.902   3.813  14.365  0.00  0.00    +0.000 HD
ATOM     23  H   UNL     1       5.694   3.122  16.406  0.00  0.00    +0.000 HD
ENDBRANCH  14  19
ENDBRANCH   1  14
TORSDOF 5
ENDMDL
MODEL 3
REMARK VINA RESULT:      -7.2      1.966      2.935
REMARK  Name = 
REMARK  5 active torsions:
REMARK  status: ('A' for Active; 'I' for Inactive)
REMARK    1  A    between atoms: N_4  and  N_5
REMARK    2  A    between atoms: N_5  and  S_6
REMARK    3  A    between atoms: S_6  and  C_9
REMARK    4  A    between atoms: C_12  and  C_13
REMARK    5  A    between atoms: C_13  and  O_15
REMARK                            x       y       z     vdW  Elec       q    Type
REMARK                         _______ _______ _______ _____ _____    ______ ____
ROOT
ATOM      1  S   UNL     1       6.100   5.866  16.290  0.00  0.00    +0.000 S 
ATOM      2  O   UNL     1       6.064   7.241  16.745  0.00  0.00    +0.000 OA
ATOM      3  O   UNL     1       6.046   5.546  14.879  0.00  0.00    +0.000 OA
ENDROOT
BRANCH   1   4
ATOM      4  C   UNL     1       4.736   5.030  17.070  0.00  0.00    +0.000 A 
ATOM      5  C   UNL     1       4.429   3.696  16.807  0.00  0.00    +0.000 A 
ATOM      6  C   UNL     1       3.339   3.103  17.452  0.00  0.00    +0.000 A 
ATOM      7  C   UNL     1       2.548   3.838  18.346  0.00  0.00    +0.000 A 
ATOM      8  C   UNL     1       2.874   5.173  18.623  0.00  0.00    +0.000 A 
ATOM      9  C   UNL     1       3.965   5.769  17.979  0.00  0.00    +0.000 A 
BRANCH   7  10
ATOM     10  C   UNL     1       1.408   3.141  18.995  0.00  0.00    +0.000 C 
ATOM     11  O   UNL     1       0.729   3.662  19.864  0.00  0.00    +0.000 OA
BRANCH  10  12
ATOM     12  O   UNL     1       1.219   1.872  18.578  0.00  0.00    +0.000 OA
ATOM     13  H   UNL     1       2.014   1.410  18.258  0.00  0.00    +0.000 HD
ENDBRANCH  10  12
ENDBRANCH   7  10
ENDBRANCH   1   4
BRANCH   1  14
ATOM     14  N   UNL     1       7.497   5.167  16.919  0.00  0.00    +0.000 NA
ATOM     15  H   UNL     1       8.027   4.497  16.348  0.00  0.00    +0.000 HD
BRANCH  14  19
ATOM     16  N   UNL     1       8.264   6.947  18.823  0.00  0.00    +0.000 NA
ATOM     17  C   UNL     1       8.003   5.738  19.193  0.00  0.00    +0.000 C 
ATOM     18  N   UNL     1       8.209   5.303  20.455  0.00  0.00    +0.000 N 
ATOM     19  N   UNL     1       7.493   4.803  18.348  0.00  0.00    +0.000 N 
ATOM     20  H   UNL     1       8.592   7.484  19.629  0.00  0.00    +0.000 HD
ATOM     21  H   UNL     1       8.771   5.908  21.042  0.00  0.00    +0.000 HD
ATOM     22  H   UNL     1       8.501   4.337  20.541  0.00  0.00    +0.000 HD
ATOM     23  H   UNL     1       7.415   3.819  18.586  0.00  0.00    +0.000 HD
ENDBRANCH  14  19
ENDBRANCH   1  14
TORSDOF 5
ENDMDL
MODEL 4
REMARK VINA RESULT:      -7.2      0.992      1.273
REMARK  Name = 
REMARK  5 active torsions:
REMARK  status: ('A' for Active; 'I' for Inactive)
REMARK    1  A    between atoms: N_4  and  N_5
REMARK    2  A    between atoms: N_5  and  S_6
REMARK    3  A    between atoms: S_6  and  C_9
REMARK    4  A    between atoms: C_12  and  C_13
REMARK    5  A    between atoms: C_13  and  O_15
REMARK                            x       y       z     vdW  Elec       q    Type
REMARK                         _______ _______ _______ _____ _____    ______ ____
ROOT
ATOM      1  S   UNL     1       6.379   5.327  18.487  0.00  0.00    +0.000 S 
ATOM      2  O   UNL     1       7.345   5.514  19.550  0.00  0.00    +0.000 OA
ATOM      3  O   UNL     1       5.942   6.440  17.671  0.00  0.00    +0.000 OA
ENDROOT
BRANCH   1   4
ATOM      4  C   UNL     1       4.925   4.620  19.231  0.00  0.00    +0.000 A 
ATOM      5  C   UNL     1       4.789   3.250  19.451  0.00  0.00    +0.000 A 
ATOM      6  C   UNL     1       3.616   2.762  20.036  0.00  0.00    +0.000 A 
ATOM      7  C   UNL     1       2.575   3.633  20.389  0.00  0.00    +0.000 A 
ATOM      8  C   UNL     1       2.727   5.011  20.186  0.00  0.00    +0.000 A 
ATOM      9  C   UNL     1       3.899   5.502  19.601  0.00  0.00    +0.000 A 
BRANCH   7  10
ATOM     10  C   UNL     1       1.360   3.043  21.008  0.00  0.00    +0.000 C 
ATOM     11  O   UNL     1       1.374   2.520  22.110  0.00  0.00    +0.000 OA
BRANCH  10  12
ATOM     12  O   UNL     1       0.258   3.092  20.232  0.00  0.00    +0.000 OA
ATOM     13  H   UNL     1      -0.143   3.972  20.124  0.00  0.00    +0.000 HD
ENDBRANCH  10  12
ENDBRANCH   7  10
ENDBRANCH   1   4
BRANCH   1  14
ATOM     14  N   UNL     1       6.994   4.148  17.453  0.00  0.00    +0.000 NA
ATOM     15  H   UNL     1       8.000   4.134  17.245  0.00  0.00    +0.000 HD
BRANCH  14  19
ATOM     16  N   UNL     1       7.488   5.207  15.000  0.00  0.00    +0.000 NA
ATOM     17  C   UNL     1       6.448   4.454  15.137  0.00  0.00    +0.000 C 
ATOM     18  N   UNL     1       5.545   4.274  14.149  0.00  0.00    +0.000 N 
ATOM     19  N   UNL     1       6.177   3.774  16.284  0.00  0.00    +0.000 N 
ATOM     20  H   UNL     1       7.514   5.577  14.048  0.00  0.00    +0.000 HD
ATOM     21  H   UNL     1       5.612   4.918  13.371  0.00  0.00    +0.000 HD
ATOM     22  H   UNL     1       4.585   4.163  14.451  0.00  0.00    +0.000 HD
ATOM     23  H   UNL     1       5.298   3.295  16.453  0.00  0.00    +0.000 HD
ENDBRANCH  14  19
ENDBRANCH   1  14
TORSDOF 5
ENDMDL
MODEL 5
REMARK VINA RESULT:      -7.2      2.005      3.033
REMARK  Name = 
REMARK  5 active torsions:
REMARK  status: ('A' for Active; 'I' for Inactive)
REMARK    1  A    between atoms: N_4  and  N_5
REMARK    2  A    between atoms: N_5  and  S_6
REMARK    3  A    between atoms: S_6  and  C_9
REMARK    4  A    between atoms: C_12  and  C_13
REMARK    5  A    between atoms: C_13  and  O_15
REMARK                            x       y       z     vdW  Elec       q    Type
REMARK                         _______ _______ _______ _____ _____    ______ ____
ROOT
ATOM      1  S   UNL     1       5.982   5.194  15.822  0.00  0.00    +0.000 S 
ATOM      2  O   UNL     1       6.065   6.640  15.815  0.00  0.00    +0.000 OA
ATOM      3  O   UNL     1       5.852   4.449  14.588  0.00  0.00    +0.000 OA
ENDROOT
BRANCH   1   4
ATOM      4  C   UNL     1       4.590   4.762  16.845  0.00  0.00    +0.000 A 
ATOM      5  C   UNL     1       3.937   5.695  17.649  0.00  0.00    +0.000 A 
ATOM      6  C   UNL     1       2.852   5.285  18.431  0.00  0.00    +0.000 A 
ATOM      7  C   UNL     1       2.428   3.948  18.424  0.00  0.00    +0.000 A 
ATOM      8  C   UNL     1       3.075   3.020  17.597  0.00  0.00    +0.000 A 
ATOM      9  C   UNL     1       4.160   3.428  16.813  0.00  0.00    +0.000 A 
BRANCH   7  10
ATOM     10  C   UNL     1       1.267   3.587  19.279  0.00  0.00    +0.000 C 
ATOM     11  O   UNL     1       0.950   4.236  20.262  0.00  0.00    +0.000 OA
BRANCH  10  12
ATOM     12  O   UNL     1       0.628   2.460  18.905  0.00  0.00    +0.000 OA
ATOM     13  H   UNL     1       1.172   1.653  18.884  0.00  0.00    +0.000 HD
ENDBRANCH  10  12
ENDBRANCH   7  10
ENDBRANCH   1   4
BRANCH   1  14
ATOM     14  N   UNL     1       7.347   4.618  16.624  0.00  0.00    +0.000 NA
ATOM     15  H   UNL     1       7.896   3.858  16.203  0.00  0.00    +0.000 HD
BRANCH  14  19
ATOM     16  N   UNL     1       7.895   6.753  18.212  0.00  0.00    +0.000 NA
ATOM     17  C   UNL     1       7.684   5.613  18.781  0.00  0.00    +0.000 C 
ATOM     18  N   UNL     1       7.840   5.422  20.108  0.00  0.00    +0.000 N 
ATOM     19  N   UNL     1       7.279   4.511  18.093  0.00  0.00    +0.000 N 
ATOM     20  H   UNL     1       8.144   7.444  18.923  0.00  0.00    +0.000 HD
ATOM     21  H   UNL     1       8.330   6.158  20.603  0.00  0.00    +0.000 HD
ATOM     22  H   UNL     1       8.182   4.509  20.380  0.00  0.00    +0.000 HD
ATOM     23  H   UNL     1       7.245   3.582  18.500  0.00  0.00    +0.000 HD
ENDBRANCH  14  19
ENDBRANCH   1  14
TORSDOF 5
ENDMDL
MODEL 6
REMARK VINA RESULT:      -7.1      2.060      3.097
REMARK  Name = 
REMARK  5 active torsions:
REMARK  status: ('A' for Active; 'I' for Inactive)
REMARK    1  A    between atoms: N_4  and  N_5
REMARK    2  A    between atoms: N_5  and  S_6
REMARK    3  A    between atoms: S_6  and  C_9
REMARK    4  A    between atoms: C_12  and  C_13
REMARK    5  A    between atoms: C_13  and  O_15
REMARK                            x       y       z     vdW  Elec       q    Type
REMARK                         _______ _______ _______ _____ _____    ______ ____
ROOT
ATOM      1  S   UNL     1       5.857   4.891  16.335  0.00  0.00    +0.000 S 
ATOM      2  O   UNL     1       5.843   6.317  16.084  0.00  0.00    +0.000 OA
ATOM      3  O   UNL     1       5.557   3.945  15.281  0.00  0.00    +0.000 OA
ENDROOT
BRANCH   1   4
ATOM      4  C   UNL     1       4.702   4.588  17.655  0.00  0.00    +0.000 A 
ATOM      5  C   UNL     1       4.271   5.596  18.516  0.00  0.00    +0.000 A 
ATOM      6  C   UNL     1       3.364   5.286  19.535  0.00  0.00    +0.000 A 
ATOM      7  C   UNL     1       2.900   3.974  19.707  0.00  0.00    +0.000 A 
ATOM      8  C   UNL     1       3.320   2.970  18.825  0.00  0.00    +0.000 A 
ATOM      9  C   UNL     1       4.226   3.277  17.803  0.00  0.00    +0.000 A 
BRANCH   7  10
ATOM     10  C   UNL     1       1.937   3.721  20.810  0.00  0.00    +0.000 C 
ATOM     11  O   UNL     1       2.292   3.372  21.923  0.00  0.00    +0.000 OA
BRANCH  10  12
ATOM     12  O   UNL     1       0.641   3.863  20.463  0.00  0.00    +0.000 OA
ATOM     13  H   UNL     1       0.135   4.514  20.980  0.00  0.00    +0.000 HD
ENDBRANCH  10  12
ENDBRANCH   7  10
ENDBRANCH   1   4
BRANCH   1  14
ATOM     14  N   UNL     1       7.378   4.506  16.948  0.00  0.00    +0.000 NA
ATOM     15  H   UNL     1       7.955   3.806  16.464  0.00  0.00    +0.000 HD
BRANCH  14  19
ATOM     16  N   UNL     1       7.920   6.726  18.417  0.00  0.00    +0.000 NA
ATOM     17  C   UNL     1       7.904   5.586  19.024  0.00  0.00    +0.000 C 
ATOM     18  N   UNL     1       8.258   5.447  20.320  0.00  0.00    +0.000 N 
ATOM     19  N   UNL     1       7.522   4.432  18.414  0.00  0.00    +0.000 N 
ATOM     20  H   UNL     1       8.192   7.456  19.078  0.00  0.00    +0.000 HD
ATOM     21  H   UNL     1       8.734   6.240  20.733  0.00  0.00    +0.000 HD
ATOM     22  H   UNL     1       8.724   4.579  20.554  0.00  0.00    +0.000 HD
ATOM     23  H   UNL     1       7.638   3.515  18.833  0.00  0.00    +0.000 HD
ENDBRANCH  14  19
ENDBRANCH   1  14
TORSDOF 5
ENDMDL
MODEL 7
REMARK VINA RESULT:      -7.1      2.269      3.297
REMARK  Name = 
REMARK  5 active torsions:
REMARK  status: ('A' for Active; 'I' for Inactive)
REMARK    1  A    between atoms: N_4  and  N_5
REMARK    2  A    between atoms: N_5  and  S_6
REMARK    3  A    between atoms: S_6  and  C_9
REMARK    4  A    between atoms: C_12  and  C_13
REMARK    5  A    between atoms: C_13  and  O_15
REMARK                            x       y       z     vdW  Elec       q    Type
REMARK                         _______ _______ _______ _____ _____    ______ ____
ROOT
ATOM      1  S   UNL     1       6.146   4.738  15.834  0.00  0.00    +0.000 S 
ATOM      2  O   UNL     1       6.094   5.972  15.076  0.00  0.00    +0.000 OA
ATOM      3  O   UNL     1       5.985   3.455  15.182  0.00  0.00    +0.000 OA
ENDROOT
BRANCH   1   4
ATOM      4  C   UNL     1       4.889   4.850  17.088  0.00  0.00    +0.000 A 
ATOM      5  C   UNL     1       4.415   6.072  17.564  0.00  0.00    +0.000 A 
ATOM      6  C   UNL     1       3.428   6.086  18.555  0.00  0.00    +0.000 A 
ATOM      7  C   UNL     1       2.924   4.888  19.082  0.00  0.00    +0.000 A 
ATOM      8  C   UNL     1       3.388   3.663  18.583  0.00  0.00    +0.000 A 
ATOM      9  C   UNL     1       4.375   3.646  17.591  0.00  0.00    +0.000 A 
BRANCH   7  10
ATOM     10  C   UNL     1       1.876   4.982  20.130  0.00  0.00    +0.000 C 
ATOM     11  O   UNL     1       0.925   4.219  20.177  0.00  0.00    +0.000 OA
BRANCH  10  12
ATOM     12  O   UNL     1       2.039   6.006  20.993  0.00  0.00    +0.000 OA
ATOM     13  H   UNL     1       1.938   6.897  20.614  0.00  0.00    +0.000 HD
ENDBRANCH  10  12
ENDBRANCH   7  10
ENDBRANCH   1   4
BRANCH   1  14
ATOM     14  N   UNL     1       7.620   4.714  16.651  0.00  0.00    +0.000 NA
ATOM     15  H   UNL     1       8.430   4.254  16.216  0.00  0.00    +0.000 HD
BRANCH  14  19
ATOM     16  N   UNL     1       7.905   6.813  18.350  0.00  0.00    +0.000 NA
ATOM     17  C   UNL     1       7.851   5.627  18.857  0.00  0.00    +0.000 C 
ATOM     18  N   UNL     1       8.047   5.386  20.171  0.00  0.00    +0.000 N 
ATOM     19  N   UNL     1       7.585   4.520  18.112  0.00  0.00    +0.000 N 
ATOM     20  H   UNL     1       8.070   7.491  19.097  0.00  0.00    +0.000 HD
ATOM     21  H   UNL     1       8.443   6.152  20.703  0.00  0.00    +0.000 HD
ATOM     22  H   UNL     1       8.508   4.512  20.390  0.00  0.00    +0.000 HD
ATOM     23  H   UNL     1       7.677   3.573  18.467  0.00  0.00    +0.000 HD
ENDBRANCH  14  19
ENDBRANCH   1  14
TORSDOF 5
ENDMDL
MODEL 8
REMARK VINA RESULT:      -7.1      2.338      3.188
REMARK  Name = 
REMARK  5 active torsions:
REMARK  status: ('A' for Active; 'I' for Inactive)
REMARK    1  A    between atoms: N_4  and  N_5
REMARK    2  A    between atoms: N_5  and  S_6
REMARK    3  A    between atoms: S_6  and  C_9
REMARK    4  A    between atoms: C_12  and  C_13
REMARK    5  A    between atoms: C_13  and  O_15
REMARK                            x       y       z     vdW  Elec       q    Type
REMARK                         _______ _______ _______ _____ _____    ______ ____
ROOT
ATOM      1  S   UNL     1       5.687   5.690  16.350  0.00  0.00    +0.000 S 
ATOM      2  O   UNL     1       5.188   6.538  15.287  0.00  0.00    +0.000 OA
ATOM      3  O   UNL     1       6.635   4.631  16.076  0.00  0.00    +0.000 OA
ENDROOT
BRANCH   1   4
ATOM      4  C   UNL     1       4.268   4.937  17.117  0.00  0.00    +0.000 A 
ATOM      5  C   UNL     1       3.274   5.686  17.746  0.00  0.00    +0.000 A 
ATOM      6  C   UNL     1       2.188   5.028  18.332  0.00  0.00    +0.000 A 
ATOM      7  C   UNL     1       2.099   3.628  18.307  0.00  0.00    +0.000 A 
ATOM      8  C   UNL     1       3.090   2.883  17.655  0.00  0.00    +0.000 A 
ATOM      9  C   UNL     1       4.177   3.539  17.066  0.00  0.00    +0.000 A 
BRANCH   7  10
ATOM     10  C   UNL     1       0.915   3.000  18.949  0.00  0.00    +0.000 C 
ATOM     11  O   UNL     1       0.278   2.107  18.417  0.00  0.00    +0.000 OA
BRANCH  10  12
ATOM     12  O   UNL     1       0.580   3.531  20.143  0.00  0.00    +0.000 OA
ATOM     13  H   UNL     1       0.023   2.972  20.713  0.00  0.00    +0.000 HD
ENDBRANCH  10  12
ENDBRANCH   7  10
ENDBRANCH   1   4
BRANCH   1  14
ATOM     14  N   UNL     1       6.369   6.697  17.516  0.00  0.00    +0.000 NA
ATOM     15  H   UNL     1       6.369   7.714  17.366  0.00  0.00    +0.000 HD
BRANCH  14  19
ATOM     16  N   UNL     1       6.248   5.214  19.789  0.00  0.00    +0.000 NA
ATOM     17  C   UNL     1       7.410   5.593  19.373  0.00  0.00    +0.000 C 
ATOM     18  N   UNL     1       8.541   5.384  20.082  0.00  0.00    +0.000 N 
ATOM     19  N   UNL     1       7.596   6.230  18.185  0.00  0.00    +0.000 N 
ATOM     20  H   UNL     1       6.352   4.719  20.677  0.00  0.00    +0.000 HD
ATOM     21  H   UNL     1       8.409   5.102  21.046  0.00  0.00    +0.000 HD
ATOM     22  H   UNL     1       9.244   6.108  20.006  0.00  0.00    +0.000 HD
ATOM     23  H   UNL     1       8.476   6.655  17.912  0.00  0.00    +0.000 HD
ENDBRANCH  14  19
ENDBRANCH   1  14
TORSDOF 5
ENDMDL
MODEL 9
REMARK VINA RESULT:      -7.1      0.819      1.647
REMARK  Name = 
REMARK  5 active torsions:
REMARK  status: ('A' for Active; 'I' for Inactive)
REMARK    1  A    between atoms: N_4  and  N_5
REMARK    2  A    between atoms: N_5  and  S_6
REMARK    3  A    between atoms: S_6  and  C_9
REMARK    4  A    between atoms: C_12  and  C_13
REMARK    5  A    between atoms: C_13  and  O_15
REMARK                            x       y       z     vdW  Elec       q    Type
REMARK                         _______ _______ _______ _____ _____    ______ ____
ROOT
ATOM      1  S   UNL     1       7.144   5.535  18.213  0.00  0.00    +0.000 S 
ATOM      2  O   UNL     1       7.809   5.344  19.486  0.00  0.00    +0.000 OA
ATOM      3  O   UNL     1       7.151   6.825  17.555  0.00  0.00    +0.000 OA
ENDROOT
BRANCH   1   4
ATOM      4  C   UNL     1       5.441   5.075  18.447  0.00  0.00    +0.000 A 
ATOM      5  C   UNL     1       4.387   5.817  17.917  0.00  0.00    +0.000 A 
ATOM      6  C   UNL     1       3.072   5.399  18.144  0.00  0.00    +0.000 A 
ATOM      7  C   UNL     1       2.805   4.254  18.909  0.00  0.00    +0.000 A 
ATOM      8  C   UNL     1       3.869   3.501  19.421  0.00  0.00    +0.000 A 
ATOM      9  C   UNL     1       5.187   3.916  19.195  0.00  0.00    +0.000 A 
BRANCH   7  10
ATOM     10  C   UNL     1       1.383   3.871  19.106  0.00  0.00    +0.000 C 
ATOM     11  O   UNL     1       0.773   4.121  20.132  0.00  0.00    +0.000 OA
BRANCH  10  12
ATOM     12  O   UNL     1       0.842   3.185  18.078  0.00  0.00    +0.000 OA
ATOM     13  H   UNL     1       1.290   3.288  17.220  0.00  0.00    +0.000 HD
ENDBRANCH  10  12
ENDBRANCH   7  10
ENDBRANCH   1   4
BRANCH   1  14
ATOM     14  N   UNL     1       7.789   4.410  17.138  0.00  0.00    +0.000 NA
ATOM     15  H   UNL     1       8.743   4.544  16.780  0.00  0.00    +0.000 HD
BRANCH  14  19
ATOM     16  N   UNL     1       7.643   5.476  14.643  0.00  0.00    +0.000 NA
ATOM     17  C   UNL     1       6.816   4.532  14.949  0.00  0.00    +0.000 C 
ATOM     18  N   UNL     1       5.819   4.144  14.125  0.00  0.00    +0.000 N 
ATOM     19  N   UNL     1       6.884   3.845  16.121  0.00  0.00    +0.000 N 
ATOM     20  H   UNL     1       7.435   5.815  13.702  0.00  0.00    +0.000 HD
ATOM     21  H   UNL     1       5.622   4.765  13.350  0.00  0.00    +0.000 HD
ATOM     22  H   UNL     1       4.965   3.849  14.583  0.00  0.00    +0.000 HD
ATOM     23  H   UNL     1       6.162   3.203  16.433  0.00  0.00    +0.000 HD
ENDBRANCH  14  19
ENDBRANCH   1  14
TORSDOF 5
ENDMDL
