MODEL 1
REMARK VINA RESULT:      -8.2      0.000      0.000
REMARK  Name = 
REMARK  8 active torsions:
REMARK  status: ('A' for Active; 'I' for Inactive)
REMARK    1  A    between atoms: C_2  and  O_3
REMARK    2  A    between atoms: C_2  and  C_4
REMARK    3  A    between atoms: C_6  and  C_7
REMARK    4  A    between atoms: C_11  and  N_12
REMARK    5  A    between atoms: N_12  and  S_13
REMARK    6  A    between atoms: S_13  and  C_16
REMARK    7  A    between atoms: C_22  and  O_23
REMARK    8  A    between atoms: C_24  and  O_25
REMARK                            x       y       z     vdW  Elec       q    Type
REMARK                         _______ _______ _______ _____ _____    ______ ____
ROOT
ATOM      1  C   UNL     1       6.875   5.369  17.959  0.00  0.00    +0.000 A 
ATOM      2  C   UNL     1       6.940   5.487  16.565  0.00  0.00    +0.000 A 
ATOM      3  C   UNL     1       6.110   4.730  15.715  0.00  0.00    +0.000 A 
ATOM      4  C   UNL     1       5.206   3.831  16.312  0.00  0.00    +0.000 A 
ATOM      5  C   UNL     1       5.111   3.726  17.699  0.00  0.00    +0.000 A 
ATOM      6  C   UNL     1       5.931   4.510  18.515  0.00  0.00    +0.000 A 
ENDROOT
BRANCH   3   7
ATOM      7  C   UNL     1       6.146   4.928  14.220  0.00  0.00    +0.000 C 
ATOM      8  C   UNL     1       6.799   3.905  13.321  0.00  0.00    +0.000 C 
ATOM      9  C   UNL     1       5.308   4.055  13.319  0.00  0.00    +0.000 C 
ENDBRANCH   3   7
BRANCH   1  11
ATOM     10  O   UNL     1       8.131   7.319  18.460  0.00  0.00    +0.000 OA
ATOM     11  C   UNL     1       7.794   6.191  18.781  0.00  0.00    +0.000 C 
BRANCH  11  12
ATOM     12  O   UNL     1       8.293   5.555  19.862  0.00  0.00    +0.000 OA
ATOM     13  H   UNL     1       9.267   5.438  19.812  0.00  0.00    +0.000 HD
ENDBRANCH  11  12
ENDBRANCH   1  11
BRANCH   5  14
ATOM     14  N   UNL     1       4.161   2.859  18.314  0.00  0.00    +0.000 N 
ATOM     15  H   UNL     1       4.393   2.428  19.208  0.00  0.00    +0.000 HD
BRANCH  14  16
ATOM     16  S   UNL     1       2.507   3.216  18.199  0.00  0.00    +0.000 S 
ATOM     17  O   UNL     1       2.219   3.413  16.792  0.00  0.00    +0.000 OA
ATOM     18  O   UNL     1       1.781   2.232  18.972  0.00  0.00    +0.000 OA
BRANCH  16  19
ATOM     19  C   UNL     1       2.359   4.786  19.006  0.00  0.00    +0.000 A 
ATOM     20  C   UNL     1       2.455   5.948  18.231  0.00  0.00    +0.000 A 
ATOM     21  C   UNL     1       2.211   7.185  18.824  0.00  0.00    +0.000 A 
ATOM     22 BR   UNL     1       2.273   8.755  17.776  0.00  0.00    +0.000 Br
ATOM     23  C   UNL     1       1.889   7.273  20.178  0.00  0.00    +0.000 A 
ATOM     24  C   UNL     1       1.831   6.117  20.957  0.00  0.00    +0.000 A 
ATOM     25  C   UNL     1       2.070   4.874  20.370  0.00  0.00    +0.000 A 
BRANCH  25  26
ATOM     26  O   UNL     1       1.899   3.748  21.126  0.00  0.00    +0.000 OA
ATOM     27  H   UNL     1       2.163   2.967  20.604  0.00  0.00    +0.000 HD
ENDBRANCH  25  26
ENDBRANCH  16  19
ENDBRANCH  14  16
ENDBRANCH   5  14
BRANCH   6  28
ATOM     28  O   UNL     1       5.774   4.463  19.876  0.00  0.00    +0.000 OA
ATOM     29  H   UNL     1       5.065   3.801  20.041  0.00  0.00    +0.000 HD
ENDBRANCH   6  28
TORSDOF 8
ENDMDL
MODEL 2
REMARK VINA RESULT:      -7.8      2.660      5.837
REMARK  Name = 
REMARK  8 active torsions:
REMARK  status: ('A' for Active; 'I' for Inactive)
REMARK    1  A    between atoms: C_2  and  O_3
REMARK    2  A    between atoms: C_2  and  C_4
REMARK    3  A    between atoms: C_6  and  C_7
REMARK    4  A    between atoms: C_11  and  N_12
REMARK    5  A    between atoms: N_12  and  S_13
REMARK    6  A    between atoms: S_13  and  C_16
REMARK    7  A    between atoms: C_22  and  O_23
REMARK    8  A    between atoms: C_24  and  O_25
REMARK                            x       y       z     vdW  Elec       q    Type
REMARK                         _______ _______ _______ _____ _____    ______ ____
ROOT
ATOM      1  C   UNL     1       2.418   5.194  19.436  0.00  0.00    +0.000 A 
ATOM      2  C   UNL     1       2.155   6.565  19.323  0.00  0.00    +0.000 A 
ATOM      3  C   UNL     1       2.704   7.345  18.288  0.00  0.00    +0.000 A 
ATOM      4  C   UNL     1       3.546   6.704  17.359  0.00  0.00    +0.000 A 
ATOM      5  C   UNL     1       3.793   5.335  17.443  0.00  0.00    +0.000 A 
ATOM      6  C   UNL     1       3.212   4.583  18.469  0.00  0.00    +0.000 A 
ENDROOT
BRANCH   3   7
ATOM      7  C   UNL     1       2.346   8.804  18.144  0.00  0.00    +0.000 C 
ATOM      8  C   UNL     1       0.991   9.217  17.617  0.00  0.00    +0.000 C 
ATOM      9  C   UNL     1       1.326   9.428  19.063  0.00  0.00    +0.000 C 
ENDBRANCH   3   7
BRANCH   1  11
ATOM     10  O   UNL     1       2.444   4.137  21.560  0.00  0.00    +0.000 OA
ATOM     11  C   UNL     1       1.812   4.449  20.564  0.00  0.00    +0.000 C 
BRANCH  11  12
ATOM     12  O   UNL     1       0.533   4.071  20.358  0.00  0.00    +0.000 OA
ATOM     13  H   UNL     1      -0.011   4.786  19.962  0.00  0.00    +0.000 HD
ENDBRANCH  11  12
ENDBRANCH   1  11
BRANCH   5  14
ATOM     14  N   UNL     1       4.600   4.666  16.477  0.00  0.00    +0.000 N 
ATOM     15  H   UNL     1       4.168   3.965  15.875  0.00  0.00    +0.000 HD
BRANCH  14  16
ATOM     16  S   UNL     1       5.820   5.523  15.670  0.00  0.00    +0.000 S 
ATOM     17  O   UNL     1       6.546   4.559  14.867  0.00  0.00    +0.000 OA
ATOM     18  O   UNL     1       5.222   6.691  15.063  0.00  0.00    +0.000 OA
BRANCH  16  19
ATOM     19  C   UNL     1       6.893   6.055  16.976  0.00  0.00    +0.000 A 
ATOM     20  C   UNL     1       7.281   7.399  17.016  0.00  0.00    +0.000 A 
ATOM     21  C   UNL     1       8.015   7.864  18.106  0.00  0.00    +0.000 A 
ATOM     22 BR   UNL     1       8.490   9.690  18.205  0.00  0.00    +0.000 Br
ATOM     23  C   UNL     1       8.376   7.002  19.141  0.00  0.00    +0.000 A 
ATOM     24  C   UNL     1       8.020   5.653  19.080  0.00  0.00    +0.000 A 
ATOM     25  C   UNL     1       7.281   5.181  17.995  0.00  0.00    +0.000 A 
BRANCH  25  26
ATOM     26  O   UNL     1       6.850   3.884  18.010  0.00  0.00    +0.000 OA
ATOM     27  H   UNL     1       7.344   3.389  18.690  0.00  0.00    +0.000 HD
ENDBRANCH  25  26
ENDBRANCH  16  19
ENDBRANCH  14  16
ENDBRANCH   5  14
BRANCH   6  28
ATOM     28  O   UNL     1       3.391   3.225  18.496  0.00  0.00    +0.000 OA
ATOM     29  H   UNL     1       3.908   3.039  19.313  0.00  0.00    +0.000 HD
ENDBRANCH   6  28
TORSDOF 8
ENDMDL
MODEL 3
REMARK VINA RESULT:      -7.7      2.618      5.927
REMARK  Name = 
REMARK  8 active torsions:
REMARK  status: ('A' for Active; 'I' for Inactive)
REMARK    1  A    between atoms: C_2  and  O_3
REMARK    2  A    between atoms: C_2  and  C_4
REMARK    3  A    between atoms: C_6  and  C_7
REMARK    4  A    between atoms: C_11  and  N_12
REMARK    5  A    between atoms: N_12  and  S_13
REMARK    6  A    between atoms: S_13  and  C_16
REMARK    7  A    between atoms: C_22  and  O_23
REMARK    8  A    between atoms: C_24  and  O_25
REMARK                            x       y       z     vdW  Elec       q    Type
REMARK                         _______ _______ _______ _____ _____    ______ ____
ROOT
ATOM      1  C   UNL     1       2.044   4.358  18.592  0.00  0.00    +0.000 A 
ATOM      2  C   UNL     1       1.932   5.739  18.801  0.00  0.00    +0.000 A 
ATOM      3  C   UNL     1       2.845   6.652  18.240  0.00  0.00    +0.000 A 
ATOM      4  C   UNL     1       3.896   6.133  17.458  0.00  0.00    +0.000 A 
ATOM      5  C   UNL     1       4.001   4.764  17.220  0.00  0.00    +0.000 A 
ATOM      6  C   UNL     1       3.064   3.885  17.771  0.00  0.00    +0.000 A 
ENDROOT
BRANCH   3   7
ATOM      7  C   UNL     1       2.661   8.139  18.416  0.00  0.00    +0.000 C 
ATOM      8  C   UNL     1       1.530   8.864  17.724  0.00  0.00    +0.000 C 
ATOM      9  C   UNL     1       1.493   8.669  19.210  0.00  0.00    +0.000 C 
ENDBRANCH   3   7
BRANCH   1  11
ATOM     10  O   UNL     1       0.613   2.467  18.682  0.00  0.00    +0.000 OA
ATOM     11  C   UNL     1       1.050   3.465  19.232  0.00  0.00    +0.000 C 
BRANCH  11  12
ATOM     12  O   UNL     1       0.606   3.896  20.432  0.00  0.00    +0.000 OA
ATOM     13  H   UNL     1       0.067   4.714  20.361  0.00  0.00    +0.000 HD
ENDBRANCH  11  12
ENDBRANCH   1  11
BRANCH   5  14
ATOM     14  N   UNL     1       5.029   4.233  16.386  0.00  0.00    +0.000 N 
ATOM     15  H   UNL     1       4.825   3.414  15.814  0.00  0.00    +0.000 HD
BRANCH  14  16
ATOM     16  S   UNL     1       6.105   5.290  15.612  0.00  0.00    +0.000 S 
ATOM     17  O   UNL     1       6.983   4.471  14.799  0.00  0.00    +0.000 OA
ATOM     18  O   UNL     1       5.335   6.361  15.019  0.00  0.00    +0.000 OA
BRANCH  16  19
ATOM     19  C   UNL     1       7.067   5.958  16.942  0.00  0.00    +0.000 A 
ATOM     20  C   UNL     1       7.375   7.323  16.924  0.00  0.00    +0.000 A 
ATOM     21  C   UNL     1       8.015   7.892  18.023  0.00  0.00    +0.000 A 
ATOM     22 BR   UNL     1       8.378   9.745  18.040  0.00  0.00    +0.000 Br
ATOM     23  C   UNL     1       8.363   7.111  19.125  0.00  0.00    +0.000 A 
ATOM     24  C   UNL     1       8.089   5.743  19.125  0.00  0.00    +0.000 A 
ATOM     25  C   UNL     1       7.444   5.167  18.030  0.00  0.00    +0.000 A 
BRANCH  25  26
ATOM     26  O   UNL     1       7.087   3.849  18.098  0.00  0.00    +0.000 OA
ATOM     27  H   UNL     1       6.997   3.494  17.194  0.00  0.00    +0.000 HD
ENDBRANCH  25  26
ENDBRANCH  16  19
ENDBRANCH  14  16
ENDBRANCH   5  14
BRANCH   6  28
ATOM     28  O   UNL     1       3.125   2.551  17.464  0.00  0.00    +0.000 OA
ATOM     29  H   UNL     1       3.306   2.507  16.498  0.00  0.00    +0.000 HD
ENDBRANCH   6  28
TORSDOF 8
ENDMDL
MODEL 4
REMARK VINA RESULT:      -7.6      0.992      1.087
REMARK  Name = 
REMARK  8 active torsions:
REMARK  status: ('A' for Active; 'I' for Inactive)
REMARK    1  A    between atoms: C_2  and  O_3
REMARK    2  A    between atoms: C_2  and  C_4
REMARK    3  A    between atoms: C_6  and  C_7
REMARK    4  A    between atoms: C_11  and  N_12
REMARK    5  A    between atoms: N_12  and  S_13
REMARK    6  A    between atoms: S_13  and  C_16
REMARK    7  A    between atoms: C_22  and  O_23
REMARK    8  A    between atoms: C_24  and  O_25
REMARK                            x       y       z     vdW  Elec       q    Type
REMARK                         _______ _______ _______ _____ _____    ______ ____
ROOT
ATOM      1  C   UNL     1       7.100   6.394  17.578  0.00  0.00    +0.000 A 
ATOM      2  C   UNL     1       6.882   6.232  16.204  0.00  0.00    +0.000 A 
ATOM      3  C   UNL     1       6.179   5.126  15.688  0.00  0.00    +0.000 A 
ATOM      4  C   UNL     1       5.702   4.167  16.603  0.00  0.00    +0.000 A 
ATOM      5  C   UNL     1       5.887   4.332  17.975  0.00  0.00    +0.000 A 
ATOM      6  C   UNL     1       6.567   5.455  18.456  0.00  0.00    +0.000 A 
ENDROOT
BRANCH   3   7
ATOM      7  C   UNL     1       5.892   5.011  14.212  0.00  0.00    +0.000 C 
ATOM      8  C   UNL     1       6.972   4.586  13.246  0.00  0.00    +0.000 C 
ATOM      9  C   UNL     1       5.839   3.655  13.553  0.00  0.00    +0.000 C 
ENDBRANCH   3   7
BRANCH   1  11
ATOM     10  O   UNL     1       7.825   8.650  17.453  0.00  0.00    +0.000 OA
ATOM     11  C   UNL     1       7.862   7.580  18.036  0.00  0.00    +0.000 C 
BRANCH  11  12
ATOM     12  O   UNL     1       8.665   7.348  19.097  0.00  0.00    +0.000 OA
ATOM     13  H   UNL     1       8.463   6.496  19.541  0.00  0.00    +0.000 HD
ENDBRANCH  11  12
ENDBRANCH   1  11
BRANCH   5  14
ATOM     14  N   UNL     1       5.361   3.396  18.912  0.00  0.00    +0.000 N 
ATOM     15  H   UNL     1       5.777   3.343  19.842  0.00  0.00    +0.000 HD
BRANCH  14  16
ATOM     16  S   UNL     1       3.692   3.103  18.953  0.00  0.00    +0.000 S 
ATOM     17  O   UNL     1       3.271   2.891  17.582  0.00  0.00    +0.000 OA
ATOM     18  O   UNL     1       3.436   2.104  19.968  0.00  0.00    +0.000 OA
BRANCH  16  19
ATOM     19  C   UNL     1       3.008   4.644  19.496  0.00  0.00    +0.000 A 
ATOM     20  C   UNL     1       3.061   5.741  18.629  0.00  0.00    +0.000 A 
ATOM     21  C   UNL     1       2.413   6.923  18.984  0.00  0.00    +0.000 A 
ATOM     22 BR   UNL     1       2.421   8.390  17.794  0.00  0.00    +0.000 Br
ATOM     23  C   UNL     1       1.731   7.023  20.196  0.00  0.00    +0.000 A 
ATOM     24  C   UNL     1       1.711   5.940  21.076  0.00  0.00    +0.000 A 
ATOM     25  C   UNL     1       2.353   4.752  20.726  0.00  0.00    +0.000 A 
BRANCH  25  26
ATOM     26  O   UNL     1       2.228   3.670  21.552  0.00  0.00    +0.000 OA
ATOM     27  H   UNL     1       2.781   2.942  21.213  0.00  0.00    +0.000 HD
ENDBRANCH  25  26
ENDBRANCH  16  19
ENDBRANCH  14  16
ENDBRANCH   5  14
BRANCH   6  28
ATOM     28  O   UNL     1       6.672   5.653  19.808  0.00  0.00    +0.000 OA
ATOM     29  H   UNL     1       6.846   4.766  20.196  0.00  0.00    +0.000 HD
ENDBRANCH   6  28
TORSDOF 8
ENDMDL
MODEL 5
REMARK VINA RESULT:      -7.2      3.047      6.605
REMARK  Name = 
REMARK  8 active torsions:
REMARK  status: ('A' for Active; 'I' for Inactive)
REMARK    1  A    between atoms: C_2  and  O_3
REMARK    2  A    between atoms: C_2  and  C_4
REMARK    3  A    between atoms: C_6  and  C_7
REMARK    4  A    between atoms: C_11  and  N_12
REMARK    5  A    between atoms: N_12  and  S_13
REMARK    6  A    between atoms: S_13  and  C_16
REMARK    7  A    between atoms: C_22  and  O_23
REMARK    8  A    between atoms: C_24  and  O_25
REMARK                            x       y       z     vdW  Elec       q    Type
REMARK                         _______ _______ _______ _____ _____    ______ ____
ROOT
ATOM      1  C   UNL     1       2.070   7.377  19.596  0.00  0.00    +0.000 A 
ATOM      2  C   UNL     1       1.825   6.347  20.514  0.00  0.00    +0.000 A 
ATOM      3  C   UNL     1       2.414   5.076  20.379  0.00  0.00    +0.000 A 
ATOM      4  C   UNL     1       3.260   4.858  19.275  0.00  0.00    +0.000 A 
ATOM      5  C   UNL     1       3.534   5.883  18.370  0.00  0.00    +0.000 A 
ATOM      6  C   UNL     1       2.954   7.142  18.547  0.00  0.00    +0.000 A 
ENDROOT
BRANCH   3   7
ATOM      7  C   UNL     1       2.196   4.007  21.421  0.00  0.00    +0.000 C 
ATOM      8  C   UNL     1       1.223   2.877  21.176  0.00  0.00    +0.000 C 
ATOM      9  C   UNL     1       2.696   2.603  21.183  0.00  0.00    +0.000 C 
ENDBRANCH   3   7
BRANCH   1  11
ATOM     10  O   UNL     1       1.106   9.424  18.880  0.00  0.00    +0.000 OA
ATOM     11  C   UNL     1       1.398   8.682  19.803  0.00  0.00    +0.000 C 
BRANCH  11  12
ATOM     12  O   UNL     1       1.220   9.015  21.100  0.00  0.00    +0.000 OA
ATOM     13  H   UNL     1       1.834   9.722  21.393  0.00  0.00    +0.000 HD
ENDBRANCH  11  12
ENDBRANCH   1  11
BRANCH   5  14
ATOM     14  N   UNL     1       4.432   5.690  17.280  0.00  0.00    +0.000 N 
ATOM     15  H   UNL     1       4.986   6.480  16.952  0.00  0.00    +0.000 HD
BRANCH  14  16
ATOM     16  S   UNL     1       5.281   4.228  17.145  0.00  0.00    +0.000 S 
ATOM     17  O   UNL     1       6.325   4.257  18.150  0.00  0.00    +0.000 OA
ATOM     18  O   UNL     1       4.316   3.151  17.112  0.00  0.00    +0.000 OA
BRANCH  16  19
ATOM     19  C   UNL     1       6.057   4.338  15.556  0.00  0.00    +0.000 A 
ATOM     20  C   UNL     1       5.556   3.552  14.512  0.00  0.00    +0.000 A 
ATOM     21  C   UNL     1       6.065   3.721  13.226  0.00  0.00    +0.000 A 
ATOM     22 BR   UNL     1       5.353   2.714  11.795  0.00  0.00    +0.000 Br
ATOM     23  C   UNL     1       7.076   4.650  12.978  0.00  0.00    +0.000 A 
ATOM     24  C   UNL     1       7.600   5.406  14.028  0.00  0.00    +0.000 A 
ATOM     25  C   UNL     1       7.091   5.246  15.318  0.00  0.00    +0.000 A 
BRANCH  25  26
ATOM     26  O   UNL     1       7.542   6.073  16.308  0.00  0.00    +0.000 OA
ATOM     27  H   UNL     1       7.153   5.797  17.159  0.00  0.00    +0.000 HD
ENDBRANCH  25  26
ENDBRANCH  16  19
ENDBRANCH  14  16
ENDBRANCH   5  14
BRANCH   6  28
ATOM     28  O   UNL     1       3.293   8.168  17.703  0.00  0.00    +0.000 OA
ATOM     29  H   UNL     1       3.157   7.821  16.792  0.00  0.00    +0.000 HD
ENDBRANCH   6  28
TORSDOF 8
ENDMDL
MODEL 6
REMARK VINA RESULT:      -7.1      2.954      3.966
REMARK  Name = 
REMARK  8 active torsions:
REMARK  status: ('A' for Active; 'I' for Inactive)
REMARK    1  A    between atoms: C_2  and  O_3
REMARK    2  A    between atoms: C_2  and  C_4
REMARK    3  A    between atoms: C_6  and  C_7
REMARK    4  A    between atoms: C_11  and  N_12
REMARK    5  A    between atoms: N_12  and  S_13
REMARK    6  A    between atoms: S_13  and  C_16
REMARK    7  A    between atoms: C_22  and  O_23
REMARK    8  A    between atoms: C_24  and  O_25
REMARK                            x       y       z     vdW  Elec       q    Type
REMARK                         _______ _______ _______ _____ _____    ______ ____
ROOT
ATOM      1  C   UNL     1       4.252   3.783  18.096  0.00  0.00    +0.000 A 
ATOM      2  C   UNL     1       4.845   3.856  16.828  0.00  0.00    +0.000 A 
ATOM      3  C   UNL     1       4.986   5.078  16.144  0.00  0.00    +0.000 A 
ATOM      4  C   UNL     1       4.501   6.242  16.770  0.00  0.00    +0.000 A 
ATOM      5  C   UNL     1       3.935   6.187  18.043  0.00  0.00    +0.000 A 
ATOM      6  C   UNL     1       3.832   4.961  18.708  0.00  0.00    +0.000 A 
ENDROOT
BRANCH   3   7
ATOM      7  C   UNL     1       5.695   5.143  14.813  0.00  0.00    +0.000 C 
ATOM      8  C   UNL     1       7.171   4.839  14.710  0.00  0.00    +0.000 C 
ATOM      9  C   UNL     1       6.171   3.877  14.145  0.00  0.00    +0.000 C 
ENDBRANCH   3   7
BRANCH   1  11
ATOM     10  O   UNL     1       3.281   1.641  18.411  0.00  0.00    +0.000 OA
ATOM     11  C   UNL     1       4.128   2.455  18.741  0.00  0.00    +0.000 C 
BRANCH  11  12
ATOM     12  O   UNL     1       4.970   2.261  19.779  0.00  0.00    +0.000 OA
ATOM     13  H   UNL     1       5.613   1.538  19.610  0.00  0.00    +0.000 HD
ENDBRANCH  11  12
ENDBRANCH   1  11
BRANCH   5  14
ATOM     14  N   UNL     1       3.490   7.366  18.709  0.00  0.00    +0.000 N 
ATOM     15  H   UNL     1       4.184   8.025  19.060  0.00  0.00    +0.000 HD
BRANCH  14  16
ATOM     16  S   UNL     1       2.092   8.155  18.165  0.00  0.00    +0.000 S 
ATOM     17  O   UNL     1       2.527   9.203  17.264  0.00  0.00    +0.000 OA
ATOM     18  O   UNL     1       1.150   7.149  17.728  0.00  0.00    +0.000 OA
BRANCH  16  19
ATOM     19  C   UNL     1       1.451   8.929  19.625  0.00  0.00    +0.000 A 
ATOM     20  C   UNL     1       0.957  10.235  19.527  0.00  0.00    +0.000 A 
ATOM     21  C   UNL     1       0.330  10.811  20.630  0.00  0.00    +0.000 A 
ATOM     22 BR   UNL     1      -0.400  12.547  20.492  0.00  0.00    +0.000 Br
ATOM     23  C   UNL     1       0.208  10.106  21.827  0.00  0.00    +0.000 A 
ATOM     24  C   UNL     1       0.735   8.818  21.934  0.00  0.00    +0.000 A 
ATOM     25  C   UNL     1       1.360   8.232  20.832  0.00  0.00    +0.000 A 
BRANCH  25  26
ATOM     26  O   UNL     1       1.771   6.932  20.925  0.00  0.00    +0.000 OA
ATOM     27  H   UNL     1       1.593   6.602  21.826  0.00  0.00    +0.000 HD
ENDBRANCH  25  26
ENDBRANCH  16  19
ENDBRANCH  14  16
ENDBRANCH   5  14
BRANCH   6  28
ATOM     28  O   UNL     1       3.353   4.926  19.991  0.00  0.00    +0.000 OA
ATOM     29  H   UNL     1       3.181   5.863  20.239  0.00  0.00    +0.000 HD
ENDBRANCH   6  28
TORSDOF 8
ENDMDL
MODEL 7
REMARK VINA RESULT:      -7.1      1.915      3.278
REMARK  Name = 
REMARK  8 active torsions:
REMARK  status: ('A' for Active; 'I' for Inactive)
REMARK    1  A    between atoms: C_2  and  O_3
REMARK    2  A    between atoms: C_2  and  C_4
REMARK    3  A    between atoms: C_6  and  C_7
REMARK    4  A    between atoms: C_11  and  N_12
REMARK    5  A    between atoms: N_12  and  S_13
REMARK    6  A    between atoms: S_13  and  C_16
REMARK    7  A    between atoms: C_22  and  O_23
REMARK    8  A    between atoms: C_24  and  O_25
REMARK                            x       y       z     vdW  Elec       q    Type
REMARK                         _______ _______ _______ _____ _____    ______ ____
ROOT
ATOM      1  C   UNL     1       6.574   4.910  15.407  0.00  0.00    +0.000 A 
ATOM      2  C   UNL     1       6.930   6.101  16.054  0.00  0.00    +0.000 A 
ATOM      3  C   UNL     1       6.565   6.359  17.389  0.00  0.00    +0.000 A 
ATOM      4  C   UNL     1       5.814   5.379  18.066  0.00  0.00    +0.000 A 
ATOM      5  C   UNL     1       5.479   4.178  17.443  0.00  0.00    +0.000 A 
ATOM      6  C   UNL     1       5.878   3.941  16.124  0.00  0.00    +0.000 A 
ENDROOT
BRANCH   3   7
ATOM      7  C   UNL     1       7.023   7.615  18.088  0.00  0.00    +0.000 C 
ATOM      8  C   UNL     1       8.421   7.719  18.651  0.00  0.00    +0.000 C 
ATOM      9  C   UNL     1       8.045   8.515  17.438  0.00  0.00    +0.000 C 
ENDBRANCH   3   7
BRANCH   1  11
ATOM     10  O   UNL     1       6.474   3.889  13.268  0.00  0.00    +0.000 OA
ATOM     11  C   UNL     1       6.985   4.724  13.996  0.00  0.00    +0.000 C 
BRANCH  11  12
ATOM     12  O   UNL     1       8.027   5.493  13.614  0.00  0.00    +0.000 OA
ATOM     13  H   UNL     1       8.401   5.215  12.750  0.00  0.00    +0.000 HD
ENDBRANCH  11  12
ENDBRANCH   1  11
BRANCH   5  14
ATOM     14  N   UNL     1       4.766   3.156  18.136  0.00  0.00    +0.000 N 
ATOM     15  H   UNL     1       5.143   2.802  19.014  0.00  0.00    +0.000 HD
BRANCH  14  16
ATOM     16  S   UNL     1       3.070   3.179  18.142  0.00  0.00    +0.000 S 
ATOM     17  O   UNL     1       2.649   3.317  16.763  0.00  0.00    +0.000 OA
ATOM     18  O   UNL     1       2.610   2.069  18.948  0.00  0.00    +0.000 OA
BRANCH  16  19
ATOM     19  C   UNL     1       2.674   4.687  18.983  0.00  0.00    +0.000 A 
ATOM     20  C   UNL     1       2.640   5.875  18.244  0.00  0.00    +0.000 A 
ATOM     21  C   UNL     1       2.202   7.047  18.857  0.00  0.00    +0.000 A 
ATOM     22 BR   UNL     1       2.089   8.644  17.855  0.00  0.00    +0.000 Br
ATOM     23  C   UNL     1       1.816   7.047  20.197  0.00  0.00    +0.000 A 
ATOM     24  C   UNL     1       1.886   5.869  20.943  0.00  0.00    +0.000 A 
ATOM     25  C   UNL     1       2.319   4.690  20.334  0.00  0.00    +0.000 A 
BRANCH  25  26
ATOM     26  O   UNL     1       2.275   3.528  21.052  0.00  0.00    +0.000 OA
ATOM     27  H   UNL     1       1.357   3.199  21.075  0.00  0.00    +0.000 HD
ENDBRANCH  25  26
ENDBRANCH  16  19
ENDBRANCH  14  16
ENDBRANCH   5  14
BRANCH   6  28
ATOM     28  O   UNL     1       5.618   2.726  15.547  0.00  0.00    +0.000 OA
ATOM     29  H   UNL     1       6.312   2.600  14.861  0.00  0.00    +0.000 HD
ENDBRANCH   6  28
TORSDOF 8
ENDMDL
MODEL 8
REMARK VINA RESULT:      -7.1      2.903      6.904
REMARK  Name = 
REMARK  8 active torsions:
REMARK  status: ('A' for Active; 'I' for Inactive)
REMARK    1  A    between atoms: C_2  and  O_3
REMARK    2  A    between atoms: C_2  and  C_4
REMARK    3  A    between atoms: C_6  and  C_7
REMARK    4  A    between atoms: C_11  and  N_12
REMARK    5  A    between atoms: N_12  and  S_13
REMARK    6  A    between atoms: S_13  and  C_16
REMARK    7  A    between atoms: C_22  and  O_23
REMARK    8  A    between atoms: C_24  and  O_25
REMARK                            x       y       z     vdW  Elec       q    Type
REMARK                         _______ _______ _______ _____ _____    ______ ____
ROOT
ATOM      1  C   UNL     1       2.307   4.057  18.600  0.00  0.00    +0.000 A 
ATOM      2  C   UNL     1       2.181   5.445  18.748  0.00  0.00    +0.000 A 
ATOM      3  C   UNL     1       3.100   6.340  18.168  0.00  0.00    +0.000 A 
ATOM      4  C   UNL     1       4.171   5.797  17.433  0.00  0.00    +0.000 A 
ATOM      5  C   UNL     1       4.291   4.419  17.255  0.00  0.00    +0.000 A 
ATOM      6  C   UNL     1       3.347   3.558  17.822  0.00  0.00    +0.000 A 
ENDROOT
BRANCH   3   7
ATOM      7  C   UNL     1       2.902   7.831  18.278  0.00  0.00    +0.000 C 
ATOM      8  C   UNL     1       1.721   8.504  17.619  0.00  0.00    +0.000 C 
ATOM      9  C   UNL     1       1.775   8.388  19.112  0.00  0.00    +0.000 C 
ENDBRANCH   3   7
BRANCH   1  11
ATOM     10  O   UNL     1       1.144   3.161  20.465  0.00  0.00    +0.000 OA
ATOM     11  C   UNL     1       1.304   3.184  19.256  0.00  0.00    +0.000 C 
BRANCH  11  12
ATOM     12  O   UNL     1       0.650   2.358  18.411  0.00  0.00    +0.000 OA
ATOM     13  H   UNL     1      -0.050   1.838  18.863  0.00  0.00    +0.000 HD
ENDBRANCH  11  12
ENDBRANCH   1  11
BRANCH   5  14
ATOM     14  N   UNL     1       5.340   3.862  16.467  0.00  0.00    +0.000 N 
ATOM     15  H   UNL     1       5.111   3.150  15.774  0.00  0.00    +0.000 HD
BRANCH  14  16
ATOM     16  S   UNL     1       6.615   4.853  15.951  0.00  0.00    +0.000 S 
ATOM     17  O   UNL     1       6.181   6.223  16.140  0.00  0.00    +0.000 OA
ATOM     18  O   UNL     1       7.834   4.373  16.564  0.00  0.00    +0.000 OA
BRANCH  16  19
ATOM     19  C   UNL     1       6.705   4.550  14.208  0.00  0.00    +0.000 A 
ATOM     20  C   UNL     1       5.679   3.814  13.604  0.00  0.00    +0.000 A 
ATOM     21  C   UNL     1       5.663   3.677  12.218  0.00  0.00    +0.000 A 
ATOM     22 BR   UNL     1       4.250   2.742  11.384  0.00  0.00    +0.000 Br
ATOM     23  C   UNL     1       6.664   4.252  11.435  0.00  0.00    +0.000 A 
ATOM     24  C   UNL     1       7.706   4.955  12.042  0.00  0.00    +0.000 A 
ATOM     25  C   UNL     1       7.727   5.099  13.430  0.00  0.00    +0.000 A 
BRANCH  25  26
ATOM     26  O   UNL     1       8.695   5.883  13.993  0.00  0.00    +0.000 OA
ATOM     27  H   UNL     1       9.557   5.666  13.592  0.00  0.00    +0.000 HD
ENDBRANCH  25  26
ENDBRANCH  16  19
ENDBRANCH  14  16
ENDBRANCH   5  14
BRANCH   6  28
ATOM     28  O   UNL     1       3.424   2.213  17.572  0.00  0.00    +0.000 OA
ATOM     29  H   UNL     1       2.699   1.801  18.095  0.00  0.00    +0.000 HD
ENDBRANCH   6  28
TORSDOF 8
ENDMDL
MODEL 9
REMARK VINA RESULT:      -6.9      3.874      7.285
REMARK  Name = 
REMARK  8 active torsions:
REMARK  status: ('A' for Active; 'I' for Inactive)
REMARK    1  A    between atoms: C_2  and  O_3
REMARK    2  A    between atoms: C_2  and  C_4
REMARK    3  A    between atoms: C_6  and  C_7
REMARK    4  A    between atoms: C_11  and  N_12
REMARK    5  A    between atoms: N_12  and  S_13
REMARK    6  A    between atoms: S_13  and  C_16
REMARK    7  A    between atoms: C_22  and  O_23
REMARK    8  A    between atoms: C_24  and  O_25
REMARK                            x       y       z     vdW  Elec       q    Type
REMARK                         _______ _______ _______ _____ _____    ______ ____
ROOT
ATOM      1  C   UNL     1       0.040   9.504  20.955  0.00  0.00    +0.000 A 
ATOM      2  C   UNL     1      -0.777  10.120  19.999  0.00  0.00    +0.000 A 
ATOM      3  C   UNL     1      -0.487  10.058  18.623  0.00  0.00    +0.000 A 
ATOM      4  C   UNL     1       0.668   9.358  18.226  0.00  0.00    +0.000 A 
ATOM      5  C   UNL     1       1.473   8.716  19.166  0.00  0.00    +0.000 A 
ATOM      6  C   UNL     1       1.144   8.775  20.523  0.00  0.00    +0.000 A 
ENDROOT
BRANCH   3   7
ATOM      7  C   UNL     1      -1.422  10.665  17.606  0.00  0.00    +0.000 C 
ATOM      8  C   UNL     1      -2.655   9.921  17.150  0.00  0.00    +0.000 C 
ATOM      9  C   UNL     1      -2.795  11.132  18.022  0.00  0.00    +0.000 C 
ENDBRANCH   3   7
BRANCH   1  11
ATOM     10  O   UNL     1      -0.083  10.630  23.041  0.00  0.00    +0.000 OA
ATOM     11  C   UNL     1      -0.328   9.630  22.386  0.00  0.00    +0.000 C 
BRANCH  11  12
ATOM     12  O   UNL     1      -0.875   8.517  22.919  0.00  0.00    +0.000 OA
ATOM     13  H   UNL     1      -0.329   8.142  23.644  0.00  0.00    +0.000 HD
ENDBRANCH  11  12
ENDBRANCH   1  11
BRANCH   5  14
ATOM     14  N   UNL     1       2.615   7.958  18.771  0.00  0.00    +0.000 N 
ATOM     15  H   UNL     1       3.524   8.196  19.165  0.00  0.00    +0.000 HD
BRANCH  14  16
ATOM     16  S   UNL     1       2.461   6.290  18.507  0.00  0.00    +0.000 S 
ATOM     17  O   UNL     1       2.414   5.664  19.813  0.00  0.00    +0.000 OA
ATOM     18  O   UNL     1       1.396   6.084  17.550  0.00  0.00    +0.000 OA
BRANCH  16  19
ATOM     19  C   UNL     1       3.997   5.842  17.747  0.00  0.00    +0.000 A 
ATOM     20  C   UNL     1       5.057   6.754  17.793  0.00  0.00    +0.000 A 
ATOM     21  C   UNL     1       6.309   6.368  17.318  0.00  0.00    +0.000 A 
ATOM     22 BR   UNL     1       7.765   7.566  17.434  0.00  0.00    +0.000 Br
ATOM     23  C   UNL     1       6.506   5.094  16.786  0.00  0.00    +0.000 A 
ATOM     24  C   UNL     1       5.438   4.199  16.707  0.00  0.00    +0.000 A 
ATOM     25  C   UNL     1       4.183   4.576  17.185  0.00  0.00    +0.000 A 
BRANCH  25  26
ATOM     26  O   UNL     1       3.180   3.647  17.198  0.00  0.00    +0.000 OA
ATOM     27  H   UNL     1       3.412   2.933  17.821  0.00  0.00    +0.000 HD
ENDBRANCH  25  26
ENDBRANCH  16  19
ENDBRANCH  14  16
ENDBRANCH   5  14
BRANCH   6  28
ATOM     28  O   UNL     1       1.892   8.072  21.432  0.00  0.00    +0.000 OA
ATOM     29  H   UNL     1       2.796   8.458  21.389  0.00  0.00    +0.000 HD
ENDBRANCH   6  28
TORSDOF 8
ENDMDL
