MODEL 1
REMARK VINA RESULT:      -6.8      0.000      0.000
REMARK  Name = 
REMARK  8 active torsions:
REMARK  status: ('A' for Active; 'I' for Inactive)
REMARK    1  A    between atoms: C_1  and  C_2
REMARK    2  A    between atoms: N_4  and  C_5
REMARK    3  A    between atoms: C_9  and  N_10
REMARK    4  A    between atoms: C_11  and  C_13
REMARK    5  A    between atoms: C_13  and  O_14
REMARK    6  A    between atoms: O_14  and  C_15
REMARK    7  A    between atoms: C_15  and  C_16
REMARK    8  A    between atoms: C_15  and  C_17
REMARK                            x       y       z     vdW  Elec       q    Type
REMARK                         _______ _______ _______ _____ _____    ______ ____
ROOT
ATOM      1  C   UNL     1       6.528   5.061  15.825  0.00  0.00    +0.000 A 
ATOM      2  C   UNL     1       5.246   4.520  15.725  0.00  0.00    +0.000 A 
ATOM      3  C   UNL     1       4.490   4.270  16.870  0.00  0.00    +0.000 A 
ATOM      4 CL   UNL     1       2.911   3.584  16.665  0.00  0.00    +0.000 Cl
ATOM      5  C   UNL     1       5.002   4.528  18.149  0.00  0.00    +0.000 A 
ATOM      6  C   UNL     1       6.309   5.042  18.251  0.00  0.00    +0.000 A 
ATOM      7 CL   UNL     1       6.991   5.580  19.749  0.00  0.00    +0.000 Cl
ATOM      8  C   UNL     1       7.068   5.286  17.097  0.00  0.00    +0.000 A 
ENDROOT
BRANCH   1  12
ATOM      9  C   UNL     1       8.217   5.373  12.462  0.00  0.00    +0.000 C 
ATOM     10  C   UNL     1       7.222   4.819  13.448  0.00  0.00    +0.000 C 
ATOM     11  O   UNL     1       6.439   3.936  13.111  0.00  0.00    +0.000 OA
ATOM     12  N   UNL     1       7.302   5.416  14.697  0.00  0.00    +0.000 N 
ATOM     13  H   UNL     1       7.858   6.260  14.767  0.00  0.00    +0.000 HD
ENDBRANCH   1  12
BRANCH   5  14
ATOM     14  N   UNL     1       4.155   4.305  19.266  0.00  0.00    +0.000 N 
ATOM     15  C   UNL     1       3.288   5.274  19.748  0.00  0.00    +0.000 C 
ATOM     16  O   UNL     1       3.154   6.404  19.292  0.00  0.00    +0.000 OA
ATOM     17  H   UNL     1       4.541   3.716  20.005  0.00  0.00    +0.000 HD
BRANCH  15  18
ATOM     18  C   UNL     1       2.558   4.812  21.009  0.00  0.00    +0.000 C 
BRANCH  18  19
ATOM     19  O   UNL     1       1.188   4.485  20.817  0.00  0.00    +0.000 OA
BRANCH  19  20
ATOM     20  C   UNL     1       0.900   3.081  20.760  0.00  0.00    +0.000 C 
ATOM     21  C   UNL     1       0.864   2.540  19.333  0.00  0.00    +0.000 C 
ATOM     22  C   UNL     1       1.992   2.380  21.563  0.00  0.00    +0.000 C 
ENDBRANCH  19  20
ENDBRANCH  18  19
ENDBRANCH  15  18
ENDBRANCH   5  14
TORSDOF 5
ENDMDL
MODEL 2
REMARK VINA RESULT:      -6.7      1.383      1.639
REMARK  Name = 
REMARK  8 active torsions:
REMARK  status: ('A' for Active; 'I' for Inactive)
REMARK    1  A    between atoms: C_1  and  C_2
REMARK    2  A    between atoms: N_4  and  C_5
REMARK    3  A    between atoms: C_9  and  N_10
REMARK    4  A    between atoms: C_11  and  C_13
REMARK    5  A    between atoms: C_13  and  O_14
REMARK    6  A    between atoms: O_14  and  C_15
REMARK    7  A    between atoms: C_15  and  C_16
REMARK    8  A    between atoms: C_15  and  C_17
REMARK                            x       y       z     vdW  Elec       q    Type
REMARK                         _______ _______ _______ _____ _____    ______ ____
ROOT
ATOM      1  C   UNL     1       6.455   5.020  15.857  0.00  0.00    +0.000 A 
ATOM      2  C   UNL     1       5.168   4.483  15.820  0.00  0.00    +0.000 A 
ATOM      3  C   UNL     1       4.482   4.200  17.002  0.00  0.00    +0.000 A 
ATOM      4 CL   UNL     1       2.892   3.521  16.874  0.00  0.00    +0.000 Cl
ATOM      5  C   UNL     1       5.073   4.419  18.254  0.00  0.00    +0.000 A 
ATOM      6  C   UNL     1       6.385   4.929  18.290  0.00  0.00    +0.000 A 
ATOM      7 CL   UNL     1       7.160   5.422  19.759  0.00  0.00    +0.000 Cl
ATOM      8  C   UNL     1       7.073   5.206  17.099  0.00  0.00    +0.000 A 
ENDROOT
BRANCH   1  12
ATOM      9  C   UNL     1       8.047   5.352  12.449  0.00  0.00    +0.000 C 
ATOM     10  C   UNL     1       7.151   4.728  13.486  0.00  0.00    +0.000 C 
ATOM     11  O   UNL     1       6.497   3.724  13.220  0.00  0.00    +0.000 OA
ATOM     12  N   UNL     1       7.158   5.408  14.694  0.00  0.00    +0.000 N 
ATOM     13  H   UNL     1       7.590   6.325  14.702  0.00  0.00    +0.000 HD
ENDBRANCH   1  12
BRANCH   5  14
ATOM     14  N   UNL     1       4.296   4.163  19.414  0.00  0.00    +0.000 N 
ATOM     15  C   UNL     1       4.115   2.885  19.921  0.00  0.00    +0.000 C 
ATOM     16  O   UNL     1       4.578   1.855  19.446  0.00  0.00    +0.000 OA
ATOM     17  H   UNL     1       3.477   4.760  19.540  0.00  0.00    +0.000 HD
BRANCH  15  18
ATOM     18  C   UNL     1       3.165   2.875  21.119  0.00  0.00    +0.000 C 
BRANCH  18  19
ATOM     19  O   UNL     1       1.938   2.190  20.900  0.00  0.00    +0.000 OA
BRANCH  19  20
ATOM     20  C   UNL     1       0.848   3.018  20.471  0.00  0.00    +0.000 C 
ATOM     21  C   UNL     1       1.153   4.509  20.588  0.00  0.00    +0.000 C 
ATOM     22  C   UNL     1       0.567   2.650  19.018  0.00  0.00    +0.000 C 
ENDBRANCH  19  20
ENDBRANCH  18  19
ENDBRANCH  15  18
ENDBRANCH   5  14
TORSDOF 5
ENDMDL
MODEL 3
REMARK VINA RESULT:      -6.4      1.707      1.721
REMARK  Name = 
REMARK  8 active torsions:
REMARK  status: ('A' for Active; 'I' for Inactive)
REMARK    1  A    between atoms: C_1  and  C_2
REMARK    2  A    between atoms: N_4  and  C_5
REMARK    3  A    between atoms: C_9  and  N_10
REMARK    4  A    between atoms: C_11  and  C_13
REMARK    5  A    between atoms: C_13  and  O_14
REMARK    6  A    between atoms: O_14  and  C_15
REMARK    7  A    between atoms: C_15  and  C_16
REMARK    8  A    between atoms: C_15  and  C_17
REMARK                            x       y       z     vdW  Elec       q    Type
REMARK                         _______ _______ _______ _____ _____    ______ ____
ROOT
ATOM      1  C   UNL     1       5.775   4.533  15.140  0.00  0.00    +0.000 A 
ATOM      2  C   UNL     1       5.289   3.416  15.821  0.00  0.00    +0.000 A 
ATOM      3  C   UNL     1       4.431   3.567  16.910  0.00  0.00    +0.000 A 
ATOM      4 CL   UNL     1       3.881   2.132  17.714  0.00  0.00    +0.000 Cl
ATOM      5  C   UNL     1       4.055   4.837  17.368  0.00  0.00    +0.000 A 
ATOM      6  C   UNL     1       4.572   5.964  16.701  0.00  0.00    +0.000 A 
ATOM      7 CL   UNL     1       4.044   7.579  17.040  0.00  0.00    +0.000 Cl
ATOM      8  C   UNL     1       5.440   5.808  15.610  0.00  0.00    +0.000 A 
ENDROOT
BRANCH   1  12
ATOM      9  C   UNL     1       7.257   3.884  11.728  0.00  0.00    +0.000 C 
ATOM     10  C   UNL     1       6.164   3.908  12.764  0.00  0.00    +0.000 C 
ATOM     11  O   UNL     1       5.040   3.496  12.490  0.00  0.00    +0.000 OA
ATOM     12  N   UNL     1       6.573   4.436  13.978  0.00  0.00    +0.000 N 
ATOM     13  H   UNL     1       7.467   4.913  13.993  0.00  0.00    +0.000 HD
ENDBRANCH   1  12
BRANCH   5  14
ATOM     14  N   UNL     1       3.132   4.914  18.445  0.00  0.00    +0.000 N 
ATOM     15  C   UNL     1       3.539   5.018  19.766  0.00  0.00    +0.000 C 
ATOM     16  O   UNL     1       4.700   5.049  20.157  0.00  0.00    +0.000 OA
ATOM     17  H   UNL     1       2.276   4.369  18.335  0.00  0.00    +0.000 HD
BRANCH  15  18
ATOM     18  C   UNL     1       2.354   4.993  20.732  0.00  0.00    +0.000 C 
BRANCH  18  19
ATOM     19  O   UNL     1       1.114   4.624  20.143  0.00  0.00    +0.000 OA
BRANCH  19  20
ATOM     20  C   UNL     1       0.689   3.280  20.411  0.00  0.00    +0.000 C 
ATOM     21  C   UNL     1       0.730   2.387  19.175  0.00  0.00    +0.000 C 
ATOM     22  C   UNL     1       1.623   2.736  21.488  0.00  0.00    +0.000 C 
ENDBRANCH  19  20
ENDBRANCH  18  19
ENDBRANCH  15  18
ENDBRANCH   5  14
TORSDOF 5
ENDMDL
MODEL 4
REMARK VINA RESULT:      -6.4      3.683      7.542
REMARK  Name = 
REMARK  8 active torsions:
REMARK  status: ('A' for Active; 'I' for Inactive)
REMARK    1  A    between atoms: C_1  and  C_2
REMARK    2  A    between atoms: N_4  and  C_5
REMARK    3  A    between atoms: C_9  and  N_10
REMARK    4  A    between atoms: C_11  and  C_13
REMARK    5  A    between atoms: C_13  and  O_14
REMARK    6  A    between atoms: O_14  and  C_15
REMARK    7  A    between atoms: C_15  and  C_16
REMARK    8  A    between atoms: C_15  and  C_17
REMARK                            x       y       z     vdW  Elec       q    Type
REMARK                         _______ _______ _______ _____ _____    ______ ____
ROOT
ATOM      1  C   UNL     1       0.932   8.109  20.708  0.00  0.00    +0.000 A 
ATOM      2  C   UNL     1       1.595   8.441  19.526  0.00  0.00    +0.000 A 
ATOM      3  C   UNL     1       2.375   7.496  18.859  0.00  0.00    +0.000 A 
ATOM      4 CL   UNL     1       3.179   7.989  17.404  0.00  0.00    +0.000 Cl
ATOM      5  C   UNL     1       2.538   6.200  19.368  0.00  0.00    +0.000 A 
ATOM      6  C   UNL     1       1.897   5.875  20.578  0.00  0.00    +0.000 A 
ATOM      7 CL   UNL     1       1.859   4.266  21.218  0.00  0.00    +0.000 Cl
ATOM      8  C   UNL     1       1.118   6.831  21.249  0.00  0.00    +0.000 A 
ENDROOT
BRANCH   1  12
ATOM      9  C   UNL     1      -0.814  10.488  23.062  0.00  0.00    +0.000 C 
ATOM     10  C   UNL     1       0.336   9.652  22.565  0.00  0.00    +0.000 C 
ATOM     11  O   UNL     1       1.389   9.608  23.193  0.00  0.00    +0.000 OA
ATOM     12  N   UNL     1       0.060   8.998  21.374  0.00  0.00    +0.000 N 
ATOM     13  H   UNL     1      -0.774   9.285  20.875  0.00  0.00    +0.000 HD
ENDBRANCH   1  12
BRANCH   5  14
ATOM     14  N   UNL     1       3.298   5.273  18.607  0.00  0.00    +0.000 N 
ATOM     15  C   UNL     1       2.713   4.384  17.719  0.00  0.00    +0.000 C 
ATOM     16  O   UNL     1       1.513   4.284  17.493  0.00  0.00    +0.000 OA
ATOM     17  H   UNL     1       4.121   4.887  19.072  0.00  0.00    +0.000 HD
BRANCH  15  18
ATOM     18  C   UNL     1       3.741   3.438  17.097  0.00  0.00    +0.000 C 
BRANCH  18  19
ATOM     19  O   UNL     1       5.048   3.983  16.965  0.00  0.00    +0.000 OA
BRANCH  19  20
ATOM     20  C   UNL     1       5.262   4.766  15.782  0.00  0.00    +0.000 C 
ATOM     21  C   UNL     1       5.969   6.088  16.065  0.00  0.00    +0.000 C 
ATOM     22  C   UNL     1       6.103   3.909  14.840  0.00  0.00    +0.000 C 
ENDBRANCH  19  20
ENDBRANCH  18  19
ENDBRANCH  15  18
ENDBRANCH   5  14
TORSDOF 5
ENDMDL
MODEL 5
REMARK VINA RESULT:      -6.3      3.299      7.445
REMARK  Name = 
REMARK  8 active torsions:
REMARK  status: ('A' for Active; 'I' for Inactive)
REMARK    1  A    between atoms: C_1  and  C_2
REMARK    2  A    between atoms: N_4  and  C_5
REMARK    3  A    between atoms: C_9  and  N_10
REMARK    4  A    between atoms: C_11  and  C_13
REMARK    5  A    between atoms: C_13  and  O_14
REMARK    6  A    between atoms: O_14  and  C_15
REMARK    7  A    between atoms: C_15  and  C_16
REMARK    8  A    between atoms: C_15  and  C_17
REMARK                            x       y       z     vdW  Elec       q    Type
REMARK                         _______ _______ _______ _____ _____    ______ ____
ROOT
ATOM      1  C   UNL     1       1.260   7.611  20.665  0.00  0.00    +0.000 A 
ATOM      2  C   UNL     1       1.861   8.117  19.512  0.00  0.00    +0.000 A 
ATOM      3  C   UNL     1       2.645   7.296  18.701  0.00  0.00    +0.000 A 
ATOM      4 CL   UNL     1       3.371   8.002  17.293  0.00  0.00    +0.000 Cl
ATOM      5  C   UNL     1       2.873   5.953  19.032  0.00  0.00    +0.000 A 
ATOM      6  C   UNL     1       2.294   5.452  20.213  0.00  0.00    +0.000 A 
ATOM      7 CL   UNL     1       2.338   3.774  20.640  0.00  0.00    +0.000 Cl
ATOM      8  C   UNL     1       1.512   6.283  21.029  0.00  0.00    +0.000 A 
ENDROOT
BRANCH   1  12
ATOM      9  C   UNL     1      -0.385   9.875  23.199  0.00  0.00    +0.000 C 
ATOM     10  C   UNL     1       0.776   9.255  22.467  0.00  0.00    +0.000 C 
ATOM     11  O   UNL     1       1.929   9.555  22.764  0.00  0.00    +0.000 OA
ATOM     12  N   UNL     1       0.386   8.372  21.472  0.00  0.00    +0.000 N 
ATOM     13  H   UNL     1      -0.594   8.377  21.213  0.00  0.00    +0.000 HD
ENDBRANCH   1  12
BRANCH   5  14
ATOM     14  N   UNL     1       3.632   5.162  18.130  0.00  0.00    +0.000 N 
ATOM     15  C   UNL     1       4.964   4.848  18.355  0.00  0.00    +0.000 C 
ATOM     16  O   UNL     1       5.630   5.207  19.320  0.00  0.00    +0.000 OA
ATOM     17  H   UNL     1       3.416   5.287  17.140  0.00  0.00    +0.000 HD
BRANCH  15  18
ATOM     18  C   UNL     1       5.571   4.064  17.192  0.00  0.00    +0.000 C 
BRANCH  18  19
ATOM     19  O   UNL     1       4.909   4.241  15.945  0.00  0.00    +0.000 OA
BRANCH  19  20
ATOM     20  C   UNL     1       5.721   4.793  14.899  0.00  0.00    +0.000 C 
ATOM     21  C   UNL     1       7.187   4.934  15.298  0.00  0.00    +0.000 C 
ATOM     22  C   UNL     1       5.587   3.855  13.704  0.00  0.00    +0.000 C 
ENDBRANCH  19  20
ENDBRANCH  18  19
ENDBRANCH  15  18
ENDBRANCH   5  14
TORSDOF 5
ENDMDL
MODEL 6
REMARK VINA RESULT:      -6.3      2.303      7.062
REMARK  Name = 
REMARK  8 active torsions:
REMARK  status: ('A' for Active; 'I' for Inactive)
REMARK    1  A    between atoms: C_1  and  C_2
REMARK    2  A    between atoms: N_4  and  C_5
REMARK    3  A    between atoms: C_9  and  N_10
REMARK    4  A    between atoms: C_11  and  C_13
REMARK    5  A    between atoms: C_13  and  O_14
REMARK    6  A    between atoms: O_14  and  C_15
REMARK    7  A    between atoms: C_15  and  C_16
REMARK    8  A    between atoms: C_15  and  C_17
REMARK                            x       y       z     vdW  Elec       q    Type
REMARK                         _______ _______ _______ _____ _____    ______ ____
ROOT
ATOM      1  C   UNL     1       3.243   5.813  19.454  0.00  0.00    +0.000 A 
ATOM      2  C   UNL     1       4.569   6.155  19.189  0.00  0.00    +0.000 A 
ATOM      3  C   UNL     1       5.286   5.496  18.189  0.00  0.00    +0.000 A 
ATOM      4 CL   UNL     1       6.934   5.967  17.929  0.00  0.00    +0.000 Cl
ATOM      5  C   UNL     1       4.707   4.459  17.445  0.00  0.00    +0.000 A 
ATOM      6  C   UNL     1       3.379   4.092  17.735  0.00  0.00    +0.000 A 
ATOM      7 CL   UNL     1       2.485   2.964  16.772  0.00  0.00    +0.000 Cl
ATOM      8  C   UNL     1       2.665   4.753  18.746  0.00  0.00    +0.000 A 
ENDROOT
BRANCH   1  12
ATOM      9  C   UNL     1       1.106   8.252  21.389  0.00  0.00    +0.000 C 
ATOM     10  C   UNL     1       1.846   7.739  20.182  0.00  0.00    +0.000 C 
ATOM     11  O   UNL     1       1.867   8.391  19.142  0.00  0.00    +0.000 OA
ATOM     12  N   UNL     1       2.444   6.506  20.392  0.00  0.00    +0.000 N 
ATOM     13  H   UNL     1       2.176   6.002  21.230  0.00  0.00    +0.000 HD
ENDBRANCH   1  12
BRANCH   5  14
ATOM     14  N   UNL     1       5.475   3.874  16.404  0.00  0.00    +0.000 N 
ATOM     15  C   UNL     1       5.668   4.497  15.181  0.00  0.00    +0.000 C 
ATOM     16  O   UNL     1       5.212   5.586  14.853  0.00  0.00    +0.000 OA
ATOM     17  H   UNL     1       5.415   2.858  16.327  0.00  0.00    +0.000 HD
BRANCH  15  18
ATOM     18  C   UNL     1       6.455   3.618  14.209  0.00  0.00    +0.000 C 
BRANCH  18  19
ATOM     19  O   UNL     1       6.157   3.836  12.835  0.00  0.00    +0.000 OA
BRANCH  19  20
ATOM     20  C   UNL     1       5.387   2.800  12.209  0.00  0.00    +0.000 C 
ATOM     21  C   UNL     1       4.240   3.343  11.361  0.00  0.00    +0.000 C 
ATOM     22  C   UNL     1       6.355   2.004  11.339  0.00  0.00    +0.000 C 
ENDBRANCH  19  20
ENDBRANCH  18  19
ENDBRANCH  15  18
ENDBRANCH   5  14
TORSDOF 5
ENDMDL
MODEL 7
REMARK VINA RESULT:      -6.3      3.200      4.066
REMARK  Name = 
REMARK  8 active torsions:
REMARK  status: ('A' for Active; 'I' for Inactive)
REMARK    1  A    between atoms: C_1  and  C_2
REMARK    2  A    between atoms: N_4  and  C_5
REMARK    3  A    between atoms: C_9  and  N_10
REMARK    4  A    between atoms: C_11  and  C_13
REMARK    5  A    between atoms: C_13  and  O_14
REMARK    6  A    between atoms: O_14  and  C_15
REMARK    7  A    between atoms: C_15  and  C_16
REMARK    8  A    between atoms: C_15  and  C_17
REMARK                            x       y       z     vdW  Elec       q    Type
REMARK                         _______ _______ _______ _____ _____    ______ ____
ROOT
ATOM      1  C   UNL     1       7.730   7.968  17.727  0.00  0.00    +0.000 A 
ATOM      2  C   UNL     1       6.651   7.470  16.996  0.00  0.00    +0.000 A 
ATOM      3  C   UNL     1       6.085   6.236  17.315  0.00  0.00    +0.000 A 
ATOM      4 CL   UNL     1       4.756   5.679  16.351  0.00  0.00    +0.000 Cl
ATOM      5  C   UNL     1       6.598   5.450  18.357  0.00  0.00    +0.000 A 
ATOM      6  C   UNL     1       7.708   5.937  19.073  0.00  0.00    +0.000 A 
ATOM      7 CL   UNL     1       8.319   5.163  20.497  0.00  0.00    +0.000 Cl
ATOM      8  C   UNL     1       8.277   7.177  18.744  0.00  0.00    +0.000 A 
ENDROOT
BRANCH   1  12
ATOM      9  C   UNL     1       9.335  11.378  17.940  0.00  0.00    +0.000 C 
ATOM     10  C   UNL     1       8.900  10.036  18.464  0.00  0.00    +0.000 C 
ATOM     11  O   UNL     1       9.111   9.727  19.633  0.00  0.00    +0.000 OA
ATOM     12  N   UNL     1       8.283   9.249  17.504  0.00  0.00    +0.000 N 
ATOM     13  H   UNL     1       8.357   9.557  16.541  0.00  0.00    +0.000 HD
ENDBRANCH   1  12
BRANCH   5  14
ATOM     14  N   UNL     1       5.936   4.233  18.665  0.00  0.00    +0.000 N 
ATOM     15  C   UNL     1       4.733   4.193  19.353  0.00  0.00    +0.000 C 
ATOM     16  O   UNL     1       4.117   5.166  19.773  0.00  0.00    +0.000 OA
ATOM     17  H   UNL     1       6.542   3.440  18.880  0.00  0.00    +0.000 HD
BRANCH  15  18
ATOM     18  C   UNL     1       4.281   2.760  19.632  0.00  0.00    +0.000 C 
BRANCH  18  19
ATOM     19  O   UNL     1       2.980   2.443  19.153  0.00  0.00    +0.000 OA
BRANCH  19  20
ATOM     20  C   UNL     1       1.954   2.408  20.156  0.00  0.00    +0.000 C 
ATOM     21  C   UNL     1       2.493   2.644  21.564  0.00  0.00    +0.000 C 
ATOM     22  C   UNL     1       0.948   3.494  19.787  0.00  0.00    +0.000 C 
ENDBRANCH  19  20
ENDBRANCH  18  19
ENDBRANCH  15  18
ENDBRANCH   5  14
TORSDOF 5
ENDMDL
MODEL 8
REMARK VINA RESULT:      -6.3      1.567      1.809
REMARK  Name = 
REMARK  8 active torsions:
REMARK  status: ('A' for Active; 'I' for Inactive)
REMARK    1  A    between atoms: C_1  and  C_2
REMARK    2  A    between atoms: N_4  and  C_5
REMARK    3  A    between atoms: C_9  and  N_10
REMARK    4  A    between atoms: C_11  and  C_13
REMARK    5  A    between atoms: C_13  and  O_14
REMARK    6  A    between atoms: O_14  and  C_15
REMARK    7  A    between atoms: C_15  and  C_16
REMARK    8  A    between atoms: C_15  and  C_17
REMARK                            x       y       z     vdW  Elec       q    Type
REMARK                         _______ _______ _______ _____ _____    ______ ____
ROOT
ATOM      1  C   UNL     1       6.149   4.073  15.157  0.00  0.00    +0.000 A 
ATOM      2  C   UNL     1       5.295   3.216  15.851  0.00  0.00    +0.000 A 
ATOM      3  C   UNL     1       4.670   3.633  17.026  0.00  0.00    +0.000 A 
ATOM      4 CL   UNL     1       3.634   2.505  17.839  0.00  0.00    +0.000 Cl
ATOM      5  C   UNL     1       4.902   4.909  17.557  0.00  0.00    +0.000 A 
ATOM      6  C   UNL     1       5.790   5.762  16.875  0.00  0.00    +0.000 A 
ATOM      7 CL   UNL     1       6.020   7.422  17.313  0.00  0.00    +0.000 Cl
ATOM      8  C   UNL     1       6.421   5.336  15.697  0.00  0.00    +0.000 A 
ENDROOT
BRANCH   1  12
ATOM      9  C   UNL     1       6.942   3.115  11.592  0.00  0.00    +0.000 C 
ATOM     10  C   UNL     1       6.048   3.524  12.733  0.00  0.00    +0.000 C 
ATOM     11  O   UNL     1       4.840   3.653  12.560  0.00  0.00    +0.000 OA
ATOM     12  N   UNL     1       6.737   3.734  13.918  0.00  0.00    +0.000 N 
ATOM     13  H   UNL     1       7.748   3.782  13.859  0.00  0.00    +0.000 HD
ENDBRANCH   1  12
BRANCH   5  14
ATOM     14  N   UNL     1       4.187   5.288  18.724  0.00  0.00    +0.000 N 
ATOM     15  C   UNL     1       2.863   5.697  18.685  0.00  0.00    +0.000 C 
ATOM     16  O   UNL     1       2.171   5.787  17.678  0.00  0.00    +0.000 OA
ATOM     17  H   UNL     1       4.731   5.772  19.440  0.00  0.00    +0.000 HD
BRANCH  15  18
ATOM     18  C   UNL     1       2.359   6.134  20.061  0.00  0.00    +0.000 C 
BRANCH  18  19
ATOM     19  O   UNL     1       1.522   5.189  20.715  0.00  0.00    +0.000 OA
BRANCH  19  20
ATOM     20  C   UNL     1       1.869   3.814  20.496  0.00  0.00    +0.000 C 
ATOM     21  C   UNL     1       2.294   3.098  21.774  0.00  0.00    +0.000 C 
ATOM     22  C   UNL     1       0.635   3.144  19.900  0.00  0.00    +0.000 C 
ENDBRANCH  19  20
ENDBRANCH  18  19
ENDBRANCH  15  18
ENDBRANCH   5  14
TORSDOF 5
ENDMDL
MODEL 9
REMARK VINA RESULT:      -6.3      1.625      1.998
REMARK  Name = 
REMARK  8 active torsions:
REMARK  status: ('A' for Active; 'I' for Inactive)
REMARK    1  A    between atoms: C_1  and  C_2
REMARK    2  A    between atoms: N_4  and  C_5
REMARK    3  A    between atoms: C_9  and  N_10
REMARK    4  A    between atoms: C_11  and  C_13
REMARK    5  A    between atoms: C_13  and  O_14
REMARK    6  A    between atoms: O_14  and  C_15
REMARK    7  A    between atoms: C_15  and  C_16
REMARK    8  A    between atoms: C_15  and  C_17
REMARK                            x       y       z     vdW  Elec       q    Type
REMARK                         _______ _______ _______ _____ _____    ______ ____
ROOT
ATOM      1  C   UNL     1       5.620   5.260  15.369  0.00  0.00    +0.000 A 
ATOM      2  C   UNL     1       5.076   6.430  15.901  0.00  0.00    +0.000 A 
ATOM      3  C   UNL     1       4.165   6.374  16.956  0.00  0.00    +0.000 A 
ATOM      4 CL   UNL     1       3.523   7.870  17.552  0.00  0.00    +0.000 Cl
ATOM      5  C   UNL     1       3.750   5.148  17.492  0.00  0.00    +0.000 A 
ATOM      6  C   UNL     1       4.273   3.966  16.933  0.00  0.00    +0.000 A 
ATOM      7 CL   UNL     1       3.993   2.400  17.618  0.00  0.00    +0.000 Cl
ATOM      8  C   UNL     1       5.184   4.027  15.868  0.00  0.00    +0.000 A 
ENDROOT
BRANCH   1  12
ATOM      9  C   UNL     1       7.819   4.664  12.358  0.00  0.00    +0.000 C 
ATOM     10  C   UNL     1       6.592   4.489  13.213  0.00  0.00    +0.000 C 
ATOM     11  O   UNL     1       5.694   3.728  12.863  0.00  0.00    +0.000 OA
ATOM     12  N   UNL     1       6.611   5.263  14.363  0.00  0.00    +0.000 N 
ATOM     13  H   UNL     1       7.322   5.984  14.418  0.00  0.00    +0.000 HD
ENDBRANCH   1  12
BRANCH   5  14
ATOM     14  N   UNL     1       2.865   5.168  18.603  0.00  0.00    +0.000 N 
ATOM     15  C   UNL     1       3.308   5.025  19.909  0.00  0.00    +0.000 C 
ATOM     16  O   UNL     1       4.472   4.861  20.255  0.00  0.00    +0.000 OA
ATOM     17  H   UNL     1       1.948   4.750  18.447  0.00  0.00    +0.000 HD
BRANCH  15  18
ATOM     18  C   UNL     1       2.149   4.993  20.905  0.00  0.00    +0.000 C 
BRANCH  18  19
ATOM     19  O   UNL     1       0.918   4.523  20.370  0.00  0.00    +0.000 OA
BRANCH  19  20
ATOM     20  C   UNL     1       0.696   3.112  20.503  0.00  0.00    +0.000 C 
ATOM     21  C   UNL     1       0.863   2.358  19.187  0.00  0.00    +0.000 C 
ATOM     22  C   UNL     1       1.705   2.608  21.531  0.00  0.00    +0.000 C 
ENDBRANCH  19  20
ENDBRANCH  18  19
ENDBRANCH  15  18
ENDBRANCH   5  14
TORSDOF 5
ENDMDL
