MODEL 1
REMARK VINA RESULT:      -7.1      0.000      0.000
REMARK  Name = 
REMARK  7 active torsions:
REMARK  status: ('A' for Active; 'I' for Inactive)
REMARK    1  A    between atoms: C_1  and  C_2
REMARK    2  A    between atoms: N_6  and  C_7
REMARK    3  A    between atoms: C_10  and  C_11
REMARK    4  A    between atoms: C_14  and  C_15
REMARK    5  A    between atoms: C_19  and  C_20
REMARK    6  A    between atoms: N_30  and  C_31
REMARK    7  A    between atoms: C_31  and  C_32
REMARK                            x       y       z     vdW  Elec       q    Type
REMARK                         _______ _______ _______ _____ _____    ______ ____
ROOT
ATOM      1  C   UNL     1      -3.349  13.028  20.201  0.00  0.00    +0.000 A 
ATOM      2  N   UNL     1      -3.273  12.219  19.145  0.00  0.00    +0.000 NA
ATOM      3  C   UNL     1      -1.954  11.861  19.068  0.00  0.00    +0.000 A 
ATOM      4  C   UNL     1      -1.269  10.887  18.329  0.00  0.00    +0.000 A 
ATOM      5  C   UNL     1       0.111  10.810  18.597  0.00  0.00    +0.000 A 
ATOM      6  C   UNL     1       0.760  12.007  18.909  0.00  0.00    +0.000 A 
ATOM      7  C   UNL     1       0.135  12.863  19.801  0.00  0.00    +0.000 A 
ATOM      8  C   UNL     1      -1.222  12.628  19.970  0.00  0.00    +0.000 A 
ATOM      9  N   UNL     1      -2.168  12.920  20.924  0.00  0.00    +0.000 N 
ENDROOT
BRANCH   5  10
ATOM     10  C   UNL     1       0.734   9.565  19.119  0.00  0.00    +0.000 A 
ATOM     11  C   UNL     1       0.718   9.183  20.451  0.00  0.00    +0.000 A 
ATOM     12  N   UNL     1       1.368   8.108  20.959  0.00  0.00    +0.000 NA
ATOM     13  C   UNL     1       2.119   7.410  20.105  0.00  0.00    +0.000 A 
ATOM     14  N   UNL     1       2.588   6.176  20.503  0.00  0.00    +0.000 N 
ATOM     15  N   UNL     1       2.313   7.733  18.832  0.00  0.00    +0.000 NA
ATOM     16  C   UNL     1       1.634   8.806  18.382  0.00  0.00    +0.000 A 
ATOM     17  H   UNL     1       1.958   5.829  21.215  0.00  0.00    +0.000 HD
ATOM     18  H   UNL     1       2.659   5.612  19.667  0.00  0.00    +0.000 HD
ENDBRANCH   5  10
BRANCH   1  24
ATOM     19  C   UNL     1      -5.784  13.732  20.451  0.00  0.00    +0.000 A 
ATOM     20  C   UNL     1      -6.661  14.774  20.787  0.00  0.00    +0.000 A 
ATOM     21  C   UNL     1      -6.155  16.012  21.190  0.00  0.00    +0.000 A 
ATOM     22  C   UNL     1      -4.780  16.178  21.239  0.00  0.00    +0.000 A 
ATOM     23  N   UNL     1      -3.919  15.185  20.928  0.00  0.00    +0.000 NA
ATOM     24  C   UNL     1      -4.418  13.964  20.558  0.00  0.00    +0.000 A 
BRANCH  19  30
ATOM     25  C   UNL     1      -6.525  12.820  17.532  0.00  0.00    +0.000 C 
ATOM     26  C   UNL     1      -6.704  12.058  18.792  0.00  0.00    +0.000 A 
ATOM     27  N   UNL     1      -7.164  10.825  18.871  0.00  0.00    +0.000 NA
ATOM     28  C   UNL     1      -7.029  10.526  20.190  0.00  0.00    +0.000 A 
ATOM     29  N   UNL     1      -6.588  11.519  20.958  0.00  0.00    +0.000 NA
ATOM     30  N   UNL     1      -6.301  12.480  20.052  0.00  0.00    +0.000 N 
ENDBRANCH  19  30
BRANCH  22  31
ATOM     31  C   UNL     1      -4.197  17.425  21.641  0.00  0.00    +0.000 C 
ATOM     32  N   UNL     1      -3.665  18.423  21.953  0.00  0.00    +0.000 NA
ENDBRANCH  22  31
ENDBRANCH   1  24
BRANCH   9  33
ATOM     33  C   UNL     1      -2.120  12.433  22.331  0.00  0.00    +0.000 C 
ATOM     34  C   UNL     1      -1.208  11.230  22.573  0.00  0.00    +0.000 C 
ATOM     35  C   UNL     1      -1.794  13.597  23.345  0.00  0.00    +0.000 C 
ATOM     36  C   UNL     1      -2.867  13.021  24.287  0.00  0.00    +0.000 C 
ATOM     37  C   UNL     1      -3.500  12.336  23.059  0.00  0.00    +0.000 C 
ENDBRANCH   9  33
TORSDOF 5
ENDMDL
MODEL 2
REMARK VINA RESULT:      -7.1      4.191      7.695
REMARK  Name = 
REMARK  7 active torsions:
REMARK  status: ('A' for Active; 'I' for Inactive)
REMARK    1  A    between atoms: C_1  and  C_2
REMARK    2  A    between atoms: N_6  and  C_7
REMARK    3  A    between atoms: C_10  and  C_11
REMARK    4  A    between atoms: C_14  and  C_15
REMARK    5  A    between atoms: C_19  and  C_20
REMARK    6  A    between atoms: N_30  and  C_31
REMARK    7  A    between atoms: C_31  and  C_32
REMARK                            x       y       z     vdW  Elec       q    Type
REMARK                         _______ _______ _______ _____ _____    ______ ____
ROOT
ATOM      1  C   UNL     1       2.340  13.610  20.541  0.00  0.00    +0.000 A 
ATOM      2  N   UNL     1       2.360  12.955  19.381  0.00  0.00    +0.000 NA
ATOM      3  C   UNL     1       1.333  12.052  19.467  0.00  0.00    +0.000 A 
ATOM      4  C   UNL     1       0.702  11.228  18.525  0.00  0.00    +0.000 A 
ATOM      5  C   UNL     1      -0.376  10.478  19.030  0.00  0.00    +0.000 A 
ATOM      6  C   UNL     1      -0.275  10.042  20.354  0.00  0.00    +0.000 A 
ATOM      7  C   UNL     1       0.173  10.953  21.298  0.00  0.00    +0.000 A 
ATOM      8  C   UNL     1       0.840  12.048  20.769  0.00  0.00    +0.000 A 
ATOM      9  N   UNL     1       1.146  13.321  21.190  0.00  0.00    +0.000 N 
ENDROOT
BRANCH   5  10
ATOM     10  C   UNL     1      -1.752  10.630  18.488  0.00  0.00    +0.000 A 
ATOM     11  C   UNL     1      -2.215   9.999  17.344  0.00  0.00    +0.000 A 
ATOM     12  N   UNL     1      -3.430  10.206  16.781  0.00  0.00    +0.000 NA
ATOM     13  C   UNL     1      -4.200  11.133  17.354  0.00  0.00    +0.000 A 
ATOM     14  N   UNL     1      -5.528  11.200  16.985  0.00  0.00    +0.000 N 
ATOM     15  N   UNL     1      -3.835  11.889  18.382  0.00  0.00    +0.000 NA
ATOM     16  C   UNL     1      -2.620  11.631  18.906  0.00  0.00    +0.000 A 
ATOM     17  H   UNL     1      -5.793  10.285  16.644  0.00  0.00    +0.000 HD
ATOM     18  H   UNL     1      -6.035  11.530  17.795  0.00  0.00    +0.000 HD
ENDBRANCH   5  10
BRANCH   1  24
ATOM     19  C   UNL     1       3.773  15.708  20.729  0.00  0.00    +0.000 A 
ATOM     20  C   UNL     1       4.845  16.324  21.389  0.00  0.00    +0.000 A 
ATOM     21  C   UNL     1       5.517  15.650  22.412  0.00  0.00    +0.000 A 
ATOM     22  C   UNL     1       5.101  14.370  22.743  0.00  0.00    +0.000 A 
ATOM     23  N   UNL     1       4.064  13.763  22.125  0.00  0.00    +0.000 NA
ATOM     24  C   UNL     1       3.392  14.435  21.140  0.00  0.00    +0.000 A 
BRANCH  19  30
ATOM     25  C   UNL     1       4.269  15.476  17.629  0.00  0.00    +0.000 C 
ATOM     26  C   UNL     1       3.321  16.376  18.331  0.00  0.00    +0.000 A 
ATOM     27  N   UNL     1       2.480  17.200  17.736  0.00  0.00    +0.000 NA
ATOM     28  C   UNL     1       1.755  17.705  18.769  0.00  0.00    +0.000 A 
ATOM     29  N   UNL     1       2.139  17.312  19.981  0.00  0.00    +0.000 NA
ATOM     30  N   UNL     1       3.092  16.396  19.700  0.00  0.00    +0.000 N 
ENDBRANCH  19  30
BRANCH  22  31
ATOM     31  C   UNL     1       5.750  13.624  23.782  0.00  0.00    +0.000 C 
ATOM     32  N   UNL     1       6.336  13.035  24.610  0.00  0.00    +0.000 NA
ENDBRANCH  22  31
ENDBRANCH   1  24
BRANCH   9  33
ATOM     33  C   UNL     1       0.134  14.362  21.524  0.00  0.00    +0.000 C 
ATOM     34  C   UNL     1      -0.617  14.948  20.328  0.00  0.00    +0.000 C 
ATOM     35  C   UNL     1      -0.875  13.865  22.630  0.00  0.00    +0.000 C 
ATOM     36  C   UNL     1      -0.769  15.251  23.291  0.00  0.00    +0.000 C 
ATOM     37  C   UNL     1       0.584  15.429  22.573  0.00  0.00    +0.000 C 
ENDBRANCH   9  33
TORSDOF 5
ENDMDL
MODEL 3
REMARK VINA RESULT:      -7.0      4.301      7.738
REMARK  Name = 
REMARK  7 active torsions:
REMARK  status: ('A' for Active; 'I' for Inactive)
REMARK    1  A    between atoms: C_1  and  C_2
REMARK    2  A    between atoms: N_6  and  C_7
REMARK    3  A    between atoms: C_10  and  C_11
REMARK    4  A    between atoms: C_14  and  C_15
REMARK    5  A    between atoms: C_19  and  C_20
REMARK    6  A    between atoms: N_30  and  C_31
REMARK    7  A    between atoms: C_31  and  C_32
REMARK                            x       y       z     vdW  Elec       q    Type
REMARK                         _______ _______ _______ _____ _____    ______ ____
ROOT
ATOM      1  C   UNL     1       2.455  13.625  20.454  0.00  0.00    +0.000 A 
ATOM      2  N   UNL     1       2.465  12.947  19.307  0.00  0.00    +0.000 NA
ATOM      3  C   UNL     1       1.432  12.054  19.414  0.00  0.00    +0.000 A 
ATOM      4  C   UNL     1       0.791  11.218  18.490  0.00  0.00    +0.000 A 
ATOM      5  C   UNL     1      -0.291  10.486  19.013  0.00  0.00    +0.000 A 
ATOM      6  C   UNL     1      -0.189  10.075  20.345  0.00  0.00    +0.000 A 
ATOM      7  C   UNL     1       0.270  11.000  21.269  0.00  0.00    +0.000 A 
ATOM      8  C   UNL     1       0.943  12.080  20.717  0.00  0.00    +0.000 A 
ATOM      9  N   UNL     1       1.261  13.358  21.113  0.00  0.00    +0.000 N 
ENDROOT
BRANCH   5  10
ATOM     10  C   UNL     1      -1.668  10.638  18.473  0.00  0.00    +0.000 A 
ATOM     11  C   UNL     1      -2.130  10.012  17.326  0.00  0.00    +0.000 A 
ATOM     12  N   UNL     1      -3.346  10.221  16.764  0.00  0.00    +0.000 NA
ATOM     13  C   UNL     1      -4.118  11.142  17.343  0.00  0.00    +0.000 A 
ATOM     14  N   UNL     1      -5.445  11.209  16.975  0.00  0.00    +0.000 N 
ATOM     15  N   UNL     1      -3.753  11.894  18.375  0.00  0.00    +0.000 NA
ATOM     16  C   UNL     1      -2.538  11.635  18.896  0.00  0.00    +0.000 A 
ATOM     17  H   UNL     1      -5.709  10.296  16.629  0.00  0.00    +0.000 HD
ATOM     18  H   UNL     1      -5.952  11.534  17.788  0.00  0.00    +0.000 HD
ENDBRANCH   5  10
BRANCH   1  24
ATOM     19  C   UNL     1       4.034  15.623  20.490  0.00  0.00    +0.000 A 
ATOM     20  C   UNL     1       5.092  16.252  21.161  0.00  0.00    +0.000 A 
ATOM     21  C   UNL     1       5.614  15.689  22.328  0.00  0.00    +0.000 A 
ATOM     22  C   UNL     1       5.066  14.503  22.790  0.00  0.00    +0.000 A 
ATOM     23  N   UNL     1       4.041  13.886  22.164  0.00  0.00    +0.000 NA
ATOM     24  C   UNL     1       3.515  14.454  21.033  0.00  0.00    +0.000 A 
BRANCH  19  30
ATOM     25  C   UNL     1       1.889  17.918  20.294  0.00  0.00    +0.000 C 
ATOM     26  C   UNL     1       2.513  17.162  19.179  0.00  0.00    +0.000 A 
ATOM     27  N   UNL     1       2.293  17.385  17.898  0.00  0.00    +0.000 NA
ATOM     28  C   UNL     1       3.165  16.544  17.282  0.00  0.00    +0.000 A 
ATOM     29  N   UNL     1       3.860  15.751  18.091  0.00  0.00    +0.000 NA
ATOM     30  N   UNL     1       3.504  16.200  19.315  0.00  0.00    +0.000 N 
ENDBRANCH  19  30
BRANCH  22  31
ATOM     31  C   UNL     1       5.558  13.873  23.981  0.00  0.00    +0.000 C 
ATOM     32  N   UNL     1       6.019  13.364  24.932  0.00  0.00    +0.000 NA
ENDBRANCH  22  31
ENDBRANCH   1  24
BRANCH   9  33
ATOM     33  C   UNL     1       0.257  14.413  21.430  0.00  0.00    +0.000 C 
ATOM     34  C   UNL     1      -0.453  15.021  20.220  0.00  0.00    +0.000 C 
ATOM     35  C   UNL     1      -0.787  13.924  22.506  0.00  0.00    +0.000 C 
ATOM     36  C   UNL     1      -0.675  15.303  23.181  0.00  0.00    +0.000 C 
ATOM     37  C   UNL     1       0.699  15.464  22.499  0.00  0.00    +0.000 C 
ENDBRANCH   9  33
TORSDOF 5
ENDMDL
MODEL 4
REMARK VINA RESULT:      -7.0      2.432      4.444
REMARK  Name = 
REMARK  7 active torsions:
REMARK  status: ('A' for Active; 'I' for Inactive)
REMARK    1  A    between atoms: C_1  and  C_2
REMARK    2  A    between atoms: N_6  and  C_7
REMARK    3  A    between atoms: C_10  and  C_11
REMARK    4  A    between atoms: C_14  and  C_15
REMARK    5  A    between atoms: C_19  and  C_20
REMARK    6  A    between atoms: N_30  and  C_31
REMARK    7  A    between atoms: C_31  and  C_32
REMARK                            x       y       z     vdW  Elec       q    Type
REMARK                         _______ _______ _______ _____ _____    ______ ____
ROOT
ATOM      1  C   UNL     1       0.090  12.606  20.785  0.00  0.00    +0.000 A 
ATOM      2  N   UNL     1       1.208  12.082  21.287  0.00  0.00    +0.000 NA
ATOM      3  C   UNL     1       0.985  10.730  21.310  0.00  0.00    +0.000 A 
ATOM      4  C   UNL     1       1.822   9.627  21.521  0.00  0.00    +0.000 A 
ATOM      5  C   UNL     1       1.188   8.377  21.398  0.00  0.00    +0.000 A 
ATOM      6  C   UNL     1      -0.147   8.305  21.806  0.00  0.00    +0.000 A 
ATOM      7  C   UNL     1      -0.996   9.327  21.411  0.00  0.00    +0.000 A 
ATOM      8  C   UNL     1      -0.351  10.485  21.004  0.00  0.00    +0.000 A 
ATOM      9  N   UNL     1      -0.670  11.581  20.236  0.00  0.00    +0.000 N 
ENDROOT
BRANCH   5  10
ATOM     10  C   UNL     1       1.623   7.378  20.386  0.00  0.00    +0.000 A 
ATOM     11  C   UNL     1       1.770   6.023  20.639  0.00  0.00    +0.000 A 
ATOM     12  N   UNL     1       2.264   5.118  19.759  0.00  0.00    +0.000 NA
ATOM     13  C   UNL     1       2.685   5.598  18.588  0.00  0.00    +0.000 A 
ATOM     14  N   UNL     1       2.951   4.703  17.572  0.00  0.00    +0.000 N 
ATOM     15  N   UNL     1       2.707   6.885  18.261  0.00  0.00    +0.000 NA
ATOM     16  C   UNL     1       2.195   7.736  19.172  0.00  0.00    +0.000 A 
ATOM     17  H   UNL     1       2.403   3.872  17.751  0.00  0.00    +0.000 HD
ATOM     18  H   UNL     1       2.750   5.184  16.706  0.00  0.00    +0.000 HD
ENDBRANCH   5  10
BRANCH   1  24
ATOM     19  C   UNL     1      -1.561  14.445  21.403  0.00  0.00    +0.000 A 
ATOM     20  C   UNL     1      -1.862  15.811  21.312  0.00  0.00    +0.000 A 
ATOM     21  C   UNL     1      -0.989  16.677  20.648  0.00  0.00    +0.000 A 
ATOM     22  C   UNL     1       0.162  16.149  20.085  0.00  0.00    +0.000 A 
ATOM     23  N   UNL     1       0.474  14.838  20.170  0.00  0.00    +0.000 NA
ATOM     24  C   UNL     1      -0.371  13.996  20.842  0.00  0.00    +0.000 A 
BRANCH  19  30
ATOM     25  C   UNL     1      -4.301  13.308  20.351  0.00  0.00    +0.000 C 
ATOM     26  C   UNL     1      -3.687  13.103  21.687  0.00  0.00    +0.000 A 
ATOM     27  N   UNL     1      -4.190  12.345  22.642  0.00  0.00    +0.000 NA
ATOM     28  C   UNL     1      -3.229  12.376  23.603  0.00  0.00    +0.000 A 
ATOM     29  N   UNL     1      -2.192  13.168  23.346  0.00  0.00    +0.000 NA
ATOM     30  N   UNL     1      -2.442  13.574  22.082  0.00  0.00    +0.000 N 
ENDBRANCH  19  30
BRANCH  22  31
ATOM     31  C   UNL     1       1.096  16.984  19.388  0.00  0.00    +0.000 C 
ATOM     32  N   UNL     1       1.865  17.702  18.869  0.00  0.00    +0.000 NA
ENDBRANCH  22  31
ENDBRANCH   1  24
BRANCH   9  33
ATOM     33  C   UNL     1      -1.024  11.519  18.791  0.00  0.00    +0.000 C 
ATOM     34  C   UNL     1      -0.712  12.783  17.989  0.00  0.00    +0.000 C 
ATOM     35  C   UNL     1      -0.411  10.245  18.090  0.00  0.00    +0.000 C 
ATOM     36  C   UNL     1      -1.748  10.060  17.350  0.00  0.00    +0.000 C 
ATOM     37  C   UNL     1      -2.417  10.891  18.464  0.00  0.00    +0.000 C 
ENDBRANCH   9  33
TORSDOF 5
ENDMDL
MODEL 5
REMARK VINA RESULT:      -6.9      2.256      4.259
REMARK  Name = 
REMARK  7 active torsions:
REMARK  status: ('A' for Active; 'I' for Inactive)
REMARK    1  A    between atoms: C_1  and  C_2
REMARK    2  A    between atoms: N_6  and  C_7
REMARK    3  A    between atoms: C_10  and  C_11
REMARK    4  A    between atoms: C_14  and  C_15
REMARK    5  A    between atoms: C_19  and  C_20
REMARK    6  A    between atoms: N_30  and  C_31
REMARK    7  A    between atoms: C_31  and  C_32
REMARK                            x       y       z     vdW  Elec       q    Type
REMARK                         _______ _______ _______ _____ _____    ______ ____
ROOT
ATOM      1  C   UNL     1      -0.644  13.251  22.187  0.00  0.00    +0.000 A 
ATOM      2  N   UNL     1      -0.397  12.048  22.704  0.00  0.00    +0.000 NA
ATOM      3  C   UNL     1      -0.383  11.197  21.631  0.00  0.00    +0.000 A 
ATOM      4  C   UNL     1       0.021   9.865  21.471  0.00  0.00    +0.000 A 
ATOM      5  C   UNL     1      -0.078   9.375  20.156  0.00  0.00    +0.000 A 
ATOM      6  C   UNL     1      -1.133   9.863  19.379  0.00  0.00    +0.000 A 
ATOM      7  C   UNL     1      -1.379  11.226  19.414  0.00  0.00    +0.000 A 
ATOM      8  C   UNL     1      -0.824  11.883  20.502  0.00  0.00    +0.000 A 
ATOM      9  N   UNL     1      -0.482  13.180  20.809  0.00  0.00    +0.000 N 
ENDROOT
BRANCH   5  10
ATOM     10  C   UNL     1       1.115   8.884  19.416  0.00  0.00    +0.000 A 
ATOM     11  C   UNL     1       1.483   9.320  18.152  0.00  0.00    +0.000 A 
ATOM     12  N   UNL     1       2.506   8.810  17.423  0.00  0.00    +0.000 NA
ATOM     13  C   UNL     1       3.157   7.775  17.956  0.00  0.00    +0.000 A 
ATOM     14  N   UNL     1       4.351   7.389  17.385  0.00  0.00    +0.000 N 
ATOM     15  N   UNL     1       2.834   7.188  19.103  0.00  0.00    +0.000 NA
ATOM     16  C   UNL     1       1.816   7.745  19.788  0.00  0.00    +0.000 A 
ATOM     17  H   UNL     1       4.735   8.197  16.912  0.00  0.00    +0.000 HD
ATOM     18  H   UNL     1       4.917   7.008  18.131  0.00  0.00    +0.000 HD
ENDBRANCH   5  10
BRANCH   1  24
ATOM     19  C   UNL     1      -2.415  14.898  22.987  0.00  0.00    +0.000 A 
ATOM     20  C   UNL     1      -2.656  16.118  23.633  0.00  0.00    +0.000 A 
ATOM     21  C   UNL     1      -1.587  16.875  24.119  0.00  0.00    +0.000 A 
ATOM     22  C   UNL     1      -0.301  16.391  23.939  0.00  0.00    +0.000 A 
ATOM     23  N   UNL     1      -0.048  15.213  23.327  0.00  0.00    +0.000 NA
ATOM     24  C   UNL     1      -1.100  14.462  22.873  0.00  0.00    +0.000 A 
BRANCH  19  30
ATOM     25  C   UNL     1      -4.029  12.687  24.540  0.00  0.00    +0.000 C 
ATOM     26  C   UNL     1      -4.195  13.105  23.126  0.00  0.00    +0.000 A 
ATOM     27  N   UNL     1      -5.109  12.634  22.300  0.00  0.00    +0.000 NA
ATOM     28  C   UNL     1      -4.945  13.394  21.186  0.00  0.00    +0.000 A 
ATOM     29  N   UNL     1      -3.934  14.258  21.229  0.00  0.00    +0.000 NA
ATOM     30  N   UNL     1      -3.500  14.133  22.503  0.00  0.00    +0.000 N 
ENDBRANCH  19  30
BRANCH  22  31
ATOM     31  C   UNL     1       0.840  17.121  24.412  0.00  0.00    +0.000 C 
ATOM     32  N   UNL     1       1.759  17.762  24.758  0.00  0.00    +0.000 NA
ENDBRANCH  22  31
ENDBRANCH   1  24
BRANCH   9  33
ATOM     33  C   UNL     1       0.538  13.977  20.071  0.00  0.00    +0.000 C 
ATOM     34  C   UNL     1       0.122  15.408  19.726  0.00  0.00    +0.000 C 
ATOM     35  C   UNL     1       1.937  13.960  20.800  0.00  0.00    +0.000 C 
ATOM     36  C   UNL     1       2.605  13.782  19.425  0.00  0.00    +0.000 C 
ATOM     37  C   UNL     1       1.262  13.230  18.904  0.00  0.00    +0.000 C 
ENDBRANCH   9  33
TORSDOF 5
ENDMDL
MODEL 6
REMARK VINA RESULT:      -6.7      2.445      4.546
REMARK  Name = 
REMARK  7 active torsions:
REMARK  status: ('A' for Active; 'I' for Inactive)
REMARK    1  A    between atoms: C_1  and  C_2
REMARK    2  A    between atoms: N_6  and  C_7
REMARK    3  A    between atoms: C_10  and  C_11
REMARK    4  A    between atoms: C_14  and  C_15
REMARK    5  A    between atoms: C_19  and  C_20
REMARK    6  A    between atoms: N_30  and  C_31
REMARK    7  A    between atoms: C_31  and  C_32
REMARK                            x       y       z     vdW  Elec       q    Type
REMARK                         _______ _______ _______ _____ _____    ______ ____
ROOT
ATOM      1  C   UNL     1       0.061  12.748  20.529  0.00  0.00    +0.000 A 
ATOM      2  N   UNL     1       1.176  12.248  21.060  0.00  0.00    +0.000 NA
ATOM      3  C   UNL     1       0.942  10.902  21.170  0.00  0.00    +0.000 A 
ATOM      4  C   UNL     1       1.771   9.807  21.448  0.00  0.00    +0.000 A 
ATOM      5  C   UNL     1       1.126   8.558  21.408  0.00  0.00    +0.000 A 
ATOM      6  C   UNL     1      -0.208   8.523  21.824  0.00  0.00    +0.000 A 
ATOM      7  C   UNL     1      -1.050   9.525  21.368  0.00  0.00    +0.000 A 
ATOM      8  C   UNL     1      -0.397  10.649  20.885  0.00  0.00    +0.000 A 
ATOM      9  N   UNL     1      -0.710  11.696  20.050  0.00  0.00    +0.000 N 
ENDROOT
BRANCH   5  10
ATOM     10  C   UNL     1       1.549   7.493  20.460  0.00  0.00    +0.000 A 
ATOM     11  C   UNL     1       1.636   6.148  20.785  0.00  0.00    +0.000 A 
ATOM     12  N   UNL     1       2.117   5.181  19.966  0.00  0.00    +0.000 NA
ATOM     13  C   UNL     1       2.589   5.583  18.785  0.00  0.00    +0.000 A 
ATOM     14  N   UNL     1       2.847   4.629  17.823  0.00  0.00    +0.000 N 
ATOM     15  N   UNL     1       2.670   6.850  18.395  0.00  0.00    +0.000 NA
ATOM     16  C   UNL     1       2.168   7.766  19.247  0.00  0.00    +0.000 A 
ATOM     17  H   UNL     1       2.262   3.829  18.027  0.00  0.00    +0.000 HD
ATOM     18  H   UNL     1       2.689   5.072  16.929  0.00  0.00    +0.000 HD
ENDBRANCH   5  10
BRANCH   1  24
ATOM     19  C   UNL     1      -1.648  14.608  20.859  0.00  0.00    +0.000 A 
ATOM     20  C   UNL     1      -1.916  15.976  20.708  0.00  0.00    +0.000 A 
ATOM     21  C   UNL     1      -0.940  16.827  20.184  0.00  0.00    +0.000 A 
ATOM     22  C   UNL     1       0.280  16.283  19.816  0.00  0.00    +0.000 A 
ATOM     23  N   UNL     1       0.561  14.969  19.962  0.00  0.00    +0.000 NA
ATOM     24  C   UNL     1      -0.389  14.142  20.499  0.00  0.00    +0.000 A 
BRANCH  19  30
ATOM     25  C   UNL     1      -1.715  13.354  23.745  0.00  0.00    +0.000 C 
ATOM     26  C   UNL     1      -2.673  13.125  22.635  0.00  0.00    +0.000 A 
ATOM     27  N   UNL     1      -3.758  12.379  22.714  0.00  0.00    +0.000 NA
ATOM     28  C   UNL     1      -4.358  12.575  21.510  0.00  0.00    +0.000 A 
ATOM     29  N   UNL     1      -3.681  13.332  20.651  0.00  0.00    +0.000 NA
ATOM     30  N   UNL     1      -2.636  13.753  21.397  0.00  0.00    +0.000 N 
ENDBRANCH  19  30
BRANCH  22  31
ATOM     31  C   UNL     1       1.322  17.101  19.269  0.00  0.00    +0.000 C 
ATOM     32  N   UNL     1       2.136  17.819  18.824  0.00  0.00    +0.000 NA
ENDBRANCH  22  31
ENDBRANCH   1  24
BRANCH   9  33
ATOM     33  C   UNL     1      -1.071  11.545  18.613  0.00  0.00    +0.000 C 
ATOM     34  C   UNL     1      -0.731  12.744  17.726  0.00  0.00    +0.000 C 
ATOM     35  C   UNL     1      -0.492  10.212  17.999  0.00  0.00    +0.000 C 
ATOM     36  C   UNL     1      -1.835  10.009  17.276  0.00  0.00    +0.000 C 
ATOM     37  C   UNL     1      -2.480  10.930  18.332  0.00  0.00    +0.000 C 
ENDBRANCH   9  33
TORSDOF 5
ENDMDL
MODEL 7
REMARK VINA RESULT:      -6.6      3.496      6.010
REMARK  Name = 
REMARK  7 active torsions:
REMARK  status: ('A' for Active; 'I' for Inactive)
REMARK    1  A    between atoms: C_1  and  C_2
REMARK    2  A    between atoms: N_6  and  C_7
REMARK    3  A    between atoms: C_10  and  C_11
REMARK    4  A    between atoms: C_14  and  C_15
REMARK    5  A    between atoms: C_19  and  C_20
REMARK    6  A    between atoms: N_30  and  C_31
REMARK    7  A    between atoms: C_31  and  C_32
REMARK                            x       y       z     vdW  Elec       q    Type
REMARK                         _______ _______ _______ _____ _____    ______ ____
ROOT
ATOM      1  C   UNL     1      -3.990  14.991  21.623  0.00  0.00    +0.000 A 
ATOM      2  N   UNL     1      -3.859  15.926  20.683  0.00  0.00    +0.000 NA
ATOM      3  C   UNL     1      -2.536  16.282  20.720  0.00  0.00    +0.000 A 
ATOM      4  C   UNL     1      -1.726  17.041  19.866  0.00  0.00    +0.000 A 
ATOM      5  C   UNL     1      -0.374  17.115  20.251  0.00  0.00    +0.000 A 
ATOM      6  C   UNL     1      -0.109  17.122  21.624  0.00  0.00    +0.000 A 
ATOM      7  C   UNL     1      -0.796  16.215  22.415  0.00  0.00    +0.000 A 
ATOM      8  C   UNL     1      -1.938  15.689  21.829  0.00  0.00    +0.000 A 
ATOM      9  N   UNL     1      -2.723  14.574  22.011  0.00  0.00    +0.000 N 
ENDROOT
BRANCH   5  10
ATOM     10  C   UNL     1       0.715  16.614  19.372  0.00  0.00    +0.000 A 
ATOM     11  C   UNL     1       1.131  15.292  19.320  0.00  0.00    +0.000 A 
ATOM     12  N   UNL     1       2.188  14.838  18.603  0.00  0.00    +0.000 NA
ATOM     13  C   UNL     1       2.900  15.757  17.949  0.00  0.00    +0.000 A 
ATOM     14  N   UNL     1       3.815  15.330  17.010  0.00  0.00    +0.000 N 
ATOM     15  N   UNL     1       2.680  17.066  18.006  0.00  0.00    +0.000 NA
ATOM     16  C   UNL     1       1.611  17.456  18.726  0.00  0.00    +0.000 A 
ATOM     17  H   UNL     1       3.512  14.422  16.684  0.00  0.00    +0.000 HD
ATOM     18  H   UNL     1       3.864  16.055  16.306  0.00  0.00    +0.000 HD
ENDBRANCH   5  10
BRANCH   1  24
ATOM     19  C   UNL     1      -5.819  15.018  23.396  0.00  0.00    +0.000 A 
ATOM     20  C   UNL     1      -6.963  14.377  23.890  0.00  0.00    +0.000 A 
ATOM     21  C   UNL     1      -7.455  13.233  23.256  0.00  0.00    +0.000 A 
ATOM     22  C   UNL     1      -6.780  12.756  22.143  0.00  0.00    +0.000 A 
ATOM     23  N   UNL     1      -5.681  13.365  21.645  0.00  0.00    +0.000 NA
ATOM     24  C   UNL     1      -5.217  14.500  22.255  0.00  0.00    +0.000 A 
BRANCH  19  30
ATOM     25  C   UNL     1      -3.298  15.243  25.265  0.00  0.00    +0.000 C 
ATOM     26  C   UNL     1      -4.268  16.311  24.920  0.00  0.00    +0.000 A 
ATOM     27  N   UNL     1      -4.183  17.567  25.315  0.00  0.00    +0.000 NA
ATOM     28  C   UNL     1      -5.207  18.171  24.656  0.00  0.00    +0.000 A 
ATOM     29  N   UNL     1      -5.978  17.360  23.935  0.00  0.00    +0.000 NA
ATOM     30  N   UNL     1      -5.331  16.178  24.037  0.00  0.00    +0.000 N 
ENDBRANCH  19  30
BRANCH  22  31
ATOM     31  C   UNL     1      -7.231  11.586  21.448  0.00  0.00    +0.000 C 
ATOM     32  N   UNL     1      -7.632  10.612  20.930  0.00  0.00    +0.000 NA
ENDBRANCH  22  31
ENDBRANCH   1  24
BRANCH   9  33
ATOM     33  C   UNL     1      -2.243  13.174  21.844  0.00  0.00    +0.000 C 
ATOM     34  C   UNL     1      -2.385  12.601  20.433  0.00  0.00    +0.000 C 
ATOM     35  C   UNL     1      -0.771  12.989  22.379  0.00  0.00    +0.000 C 
ATOM     36  C   UNL     1      -1.210  11.654  23.006  0.00  0.00    +0.000 C 
ATOM     37  C   UNL     1      -2.660  12.179  22.975  0.00  0.00    +0.000 C 
ENDBRANCH   9  33
TORSDOF 5
ENDMDL
MODEL 8
REMARK VINA RESULT:      -6.5      1.995      4.389
REMARK  Name = 
REMARK  7 active torsions:
REMARK  status: ('A' for Active; 'I' for Inactive)
REMARK    1  A    between atoms: C_1  and  C_2
REMARK    2  A    between atoms: N_6  and  C_7
REMARK    3  A    between atoms: C_10  and  C_11
REMARK    4  A    between atoms: C_14  and  C_15
REMARK    5  A    between atoms: C_19  and  C_20
REMARK    6  A    between atoms: N_30  and  C_31
REMARK    7  A    between atoms: C_31  and  C_32
REMARK                            x       y       z     vdW  Elec       q    Type
REMARK                         _______ _______ _______ _____ _____    ______ ____
ROOT
ATOM      1  C   UNL     1      -1.659  11.814  19.814  0.00  0.00    +0.000 A 
ATOM      2  N   UNL     1      -1.704  11.069  18.710  0.00  0.00    +0.000 NA
ATOM      3  C   UNL     1      -0.415  10.644  18.517  0.00  0.00    +0.000 A 
ATOM      4  C   UNL     1       0.158   9.682  17.675  0.00  0.00    +0.000 A 
ATOM      5  C   UNL     1       1.546   9.514  17.837  0.00  0.00    +0.000 A 
ATOM      6  C   UNL     1       2.285  10.653  18.169  0.00  0.00    +0.000 A 
ATOM      7  C   UNL     1       1.774  11.486  19.152  0.00  0.00    +0.000 A 
ATOM      8  C   UNL     1       0.421  11.314  19.406  0.00  0.00    +0.000 A 
ATOM      9  N   UNL     1      -0.438  11.599  20.442  0.00  0.00    +0.000 N 
ENDROOT
BRANCH   5  10
ATOM     10  C   UNL     1       2.131   8.207  18.241  0.00  0.00    +0.000 A 
ATOM     11  C   UNL     1       1.959   7.627  19.488  0.00  0.00    +0.000 A 
ATOM     12  N   UNL     1       2.567   6.491  19.906  0.00  0.00    +0.000 NA
ATOM     13  C   UNL     1       3.435   5.936  19.059  0.00  0.00    +0.000 A 
ATOM     14  N   UNL     1       3.882   4.657  19.322  0.00  0.00    +0.000 N 
ATOM     15  N   UNL     1       3.778   6.449  17.883  0.00  0.00    +0.000 NA
ATOM     16  C   UNL     1       3.133   7.574  17.517  0.00  0.00    +0.000 A 
ATOM     17  H   UNL     1       3.177   4.203  19.889  0.00  0.00    +0.000 HD
ATOM     18  H   UNL     1       4.069   4.228  18.427  0.00  0.00    +0.000 HD
ENDBRANCH   5  10
BRANCH   1  24
ATOM     19  C   UNL     1      -2.406  14.123  20.586  0.00  0.00    +0.000 A 
ATOM     20  C   UNL     1      -3.463  14.887  21.100  0.00  0.00    +0.000 A 
ATOM     21  C   UNL     1      -4.706  14.294  21.337  0.00  0.00    +0.000 A 
ATOM     22  C   UNL     1      -4.856  12.945  21.059  0.00  0.00    +0.000 A 
ATOM     23  N   UNL     1      -3.853  12.193  20.554  0.00  0.00    +0.000 NA
ATOM     24  C   UNL     1      -2.643  12.784  20.300  0.00  0.00    +0.000 A 
BRANCH  19  30
ATOM     25  C   UNL     1      -0.395  15.269  22.718  0.00  0.00    +0.000 C 
ATOM     26  C   UNL     1      -0.268  15.307  21.240  0.00  0.00    +0.000 A 
ATOM     27  N   UNL     1       0.765  15.795  20.582  0.00  0.00    +0.000 NA
ATOM     28  C   UNL     1       0.478  15.499  19.287  0.00  0.00    +0.000 A 
ATOM     29  N   UNL     1      -0.706  14.929  19.082  0.00  0.00    +0.000 NA
ATOM     30  N   UNL     1      -1.155  14.729  20.341  0.00  0.00    +0.000 N 
ENDBRANCH  19  30
BRANCH  22  31
ATOM     31  C   UNL     1      -6.104  12.275  21.282  0.00  0.00    +0.000 C 
ATOM     32  N   UNL     1      -7.099  11.700  21.514  0.00  0.00    +0.000 NA
ENDBRANCH  22  31
ENDBRANCH   1  24
BRANCH   9  33
ATOM     33  C   UNL     1      -0.321  11.024  21.811  0.00  0.00    +0.000 C 
ATOM     34  C   UNL     1      -1.023  11.820  22.913  0.00  0.00    +0.000 C 
ATOM     35  C   UNL     1      -0.754   9.508  21.851  0.00  0.00    +0.000 C 
ATOM     36  C   UNL     1       0.451   9.231  22.767  0.00  0.00    +0.000 C 
ATOM     37  C   UNL     1       1.101  10.513  22.209  0.00  0.00    +0.000 C 
ENDBRANCH   9  33
TORSDOF 5
ENDMDL
MODEL 9
REMARK VINA RESULT:      -6.5      2.588      5.582
REMARK  Name = 
REMARK  7 active torsions:
REMARK  status: ('A' for Active; 'I' for Inactive)
REMARK    1  A    between atoms: C_1  and  C_2
REMARK    2  A    between atoms: N_6  and  C_7
REMARK    3  A    between atoms: C_10  and  C_11
REMARK    4  A    between atoms: C_14  and  C_15
REMARK    5  A    between atoms: C_19  and  C_20
REMARK    6  A    between atoms: N_30  and  C_31
REMARK    7  A    between atoms: C_31  and  C_32
REMARK                            x       y       z     vdW  Elec       q    Type
REMARK                         _______ _______ _______ _____ _____    ______ ____
ROOT
ATOM      1  C   UNL     1      -0.159  12.374  21.011  0.00  0.00    +0.000 A 
ATOM      2  N   UNL     1       0.963  11.906  21.557  0.00  0.00    +0.000 NA
ATOM      3  C   UNL     1       0.858  10.543  21.469  0.00  0.00    +0.000 A 
ATOM      4  C   UNL     1       1.771   9.498  21.664  0.00  0.00    +0.000 A 
ATOM      5  C   UNL     1       1.258   8.214  21.407  0.00  0.00    +0.000 A 
ATOM      6  C   UNL     1      -0.091   8.002  21.708  0.00  0.00    +0.000 A 
ATOM      7  C   UNL     1      -0.996   8.978  21.323  0.00  0.00    +0.000 A 
ATOM      8  C   UNL     1      -0.428  10.213  21.047  0.00  0.00    +0.000 A 
ATOM      9  N   UNL     1      -0.787  11.334  20.336  0.00  0.00    +0.000 N 
ENDROOT
BRANCH   5  10
ATOM     10  C   UNL     1       1.847   7.334  20.363  0.00  0.00    +0.000 A 
ATOM     11  C   UNL     1       2.208   7.761  19.095  0.00  0.00    +0.000 A 
ATOM     12  N   UNL     1       2.649   6.954  18.099  0.00  0.00    +0.000 NA
ATOM     13  C   UNL     1       2.677   5.647  18.364  0.00  0.00    +0.000 A 
ATOM     14  N   UNL     1       3.351   4.817  17.492  0.00  0.00    +0.000 N 
ATOM     15  N   UNL     1       2.251   5.095  19.494  0.00  0.00    +0.000 NA
ATOM     16  C   UNL     1       1.833   5.948  20.450  0.00  0.00    +0.000 A 
ATOM     17  H   UNL     1       4.048   5.377  17.020  0.00  0.00    +0.000 HD
ATOM     18  H   UNL     1       3.706   4.048  18.045  0.00  0.00    +0.000 HD
ENDBRANCH   5  10
BRANCH   1  24
ATOM     19  C   UNL     1      -0.042  14.905  21.265  0.00  0.00    +0.000 A 
ATOM     20  C   UNL     1      -0.776  16.089  21.426  0.00  0.00    +0.000 A 
ATOM     21  C   UNL     1      -2.171  16.047  21.473  0.00  0.00    +0.000 A 
ATOM     22  C   UNL     1      -2.797  14.815  21.366  0.00  0.00    +0.000 A 
ATOM     23  N   UNL     1      -2.109  13.664  21.201  0.00  0.00    +0.000 NA
ATOM     24  C   UNL     1      -0.742  13.712  21.130  0.00  0.00    +0.000 A 
BRANCH  19  30
ATOM     25  C   UNL     1       1.755  15.211  18.699  0.00  0.00    +0.000 C 
ATOM     26  C   UNL     1       2.202  15.020  20.101  0.00  0.00    +0.000 A 
ATOM     27  N   UNL     1       3.459  15.003  20.498  0.00  0.00    +0.000 NA
ATOM     28  C   UNL     1       3.357  14.927  21.852  0.00  0.00    +0.000 A 
ATOM     29  N   UNL     1       2.119  14.814  22.325  0.00  0.00    +0.000 NA
ATOM     30  N   UNL     1       1.368  14.954  21.210  0.00  0.00    +0.000 N 
ENDBRANCH  19  30
BRANCH  22  31
ATOM     31  C   UNL     1      -4.226  14.703  21.410  0.00  0.00    +0.000 C 
ATOM     32  N   UNL     1      -5.388  14.563  21.485  0.00  0.00    +0.000 NA
ENDBRANCH  22  31
ENDBRANCH   1  24
BRANCH   9  33
ATOM     33  C   UNL     1      -1.035  11.353  18.867  0.00  0.00    +0.000 C 
ATOM     34  C   UNL     1      -0.578  12.622  18.146  0.00  0.00    +0.000 C 
ATOM     35  C   UNL     1      -0.459  10.067  18.158  0.00  0.00    +0.000 C 
ATOM     36  C   UNL     1      -1.745  10.006  17.315  0.00  0.00    +0.000 C 
ATOM     37  C   UNL     1      -2.439  10.838  18.413  0.00  0.00    +0.000 C 
ENDBRANCH   9  33
TORSDOF 5
ENDMDL
