MODEL 1
REMARK VINA RESULT:      -8.2      0.000      0.000
REMARK  Name = 
REMARK  9 active torsions:
REMARK  status: ('A' for Active; 'I' for Inactive)
REMARK    1  A    between atoms: C_1  and  C_2
REMARK    2  A    between atoms: C_6  and  C_7
REMARK    3  A    between atoms: C_7  and  N_8
REMARK    4  A    between atoms: C_7  and  C_17
REMARK    5  A    between atoms: N_8  and  C_9
REMARK    6  A    between atoms: C_12  and  C_13
REMARK    7  A    between atoms: C_17  and  C_19
REMARK    8  A    between atoms: C_19  and  C_20
REMARK    9  A    between atoms: C_20  and  C_21
REMARK                            x       y       z     vdW  Elec       q    Type
REMARK                         _______ _______ _______ _____ _____    ______ ____
ROOT
ATOM      1  C   UNL     1       5.439   4.918  15.782  0.00  0.00    +0.000 C 
ENDROOT
BRANCH   1   7
ATOM      2  C   UNL     1       5.597   2.173  11.563  0.00  0.00    +0.000 C 
ATOM      3  C   UNL     1       6.144   3.311  12.372  0.00  0.00    +0.000 A 
ATOM      4  C   UNL     1       7.216   4.076  11.912  0.00  0.00    +0.000 A 
ATOM      5  C   UNL     1       7.770   5.062  12.727  0.00  0.00    +0.000 A 
ATOM      6  C   UNL     1       7.249   5.311  13.998  0.00  0.00    +0.000 A 
ATOM      7  C   UNL     1       6.126   4.612  14.459  0.00  0.00    +0.000 A 
ATOM      8  C   UNL     1       5.609   3.590  13.636  0.00  0.00    +0.000 A 
ENDBRANCH   1   7
BRANCH   1   9
ATOM      9  N   UNL     1       5.071   3.694  16.498  0.00  0.00    +0.000 N 
ATOM     10  H   UNL     1       5.811   2.991  16.566  0.00  0.00    +0.000 HD
BRANCH   9  11
ATOM     11  C   UNL     1       4.061   3.590  17.451  0.00  0.00    +0.000 A 
ATOM     12  C   UNL     1       2.724   3.362  17.103  0.00  0.00    +0.000 A 
ATOM     13  C   UNL     1       1.721   3.179  18.059  0.00  0.00    +0.000 A 
ATOM     14  C   UNL     1       2.019   3.227  19.417  0.00  0.00    +0.000 A 
ATOM     15  C   UNL     1       0.931   3.040  20.431  0.00  0.00    +0.000 C 
ATOM     16  C   UNL     1       3.350   3.419  19.801  0.00  0.00    +0.000 A 
ATOM     17  C   UNL     1       4.353   3.593  18.832  0.00  0.00    +0.000 A 
ATOM     18 CL   UNL     1       5.977   3.825  19.392  0.00  0.00    +0.000 Cl
ENDBRANCH   9  11
ENDBRANCH   1   9
BRANCH   1  19
ATOM     19  C   UNL     1       6.234   5.844  16.726  0.00  0.00    +0.000 C 
ATOM     20  O   UNL     1       7.378   5.593  17.118  0.00  0.00    +0.000 OA
BRANCH  19  21
ATOM     21  C   UNL     1       5.506   7.073  17.236  0.00  0.00    +0.000 C 
BRANCH  21  22
ATOM     22  C   UNL     1       4.022   6.961  16.882  0.00  0.00    +0.000 C 
BRANCH  22  23
ATOM     23  C   UNL     1       3.060   7.585  17.859  0.00  0.00    +0.000 A 
ATOM     24  C   UNL     1       2.838   6.956  19.091  0.00  0.00    +0.000 A 
ATOM     25  C   UNL     1       1.994   7.552  20.013  0.00  0.00    +0.000 A 
ATOM     26  N   UNL     1       1.364   8.727  19.799  0.00  0.00    +0.000 NA
ATOM     27  C   UNL     1       1.606   9.330  18.618  0.00  0.00    +0.000 A 
ATOM     28  C   UNL     1       2.436   8.813  17.633  0.00  0.00    +0.000 A 
ENDBRANCH  22  23
ENDBRANCH  21  22
ENDBRANCH  19  21
ENDBRANCH   1  19
TORSDOF 7
ENDMDL
MODEL 2
REMARK VINA RESULT:      -8.1      0.586      1.089
REMARK  Name = 
REMARK  9 active torsions:
REMARK  status: ('A' for Active; 'I' for Inactive)
REMARK    1  A    between atoms: C_1  and  C_2
REMARK    2  A    between atoms: C_6  and  C_7
REMARK    3  A    between atoms: C_7  and  N_8
REMARK    4  A    between atoms: C_7  and  C_17
REMARK    5  A    between atoms: N_8  and  C_9
REMARK    6  A    between atoms: C_12  and  C_13
REMARK    7  A    between atoms: C_17  and  C_19
REMARK    8  A    between atoms: C_19  and  C_20
REMARK    9  A    between atoms: C_20  and  C_21
REMARK                            x       y       z     vdW  Elec       q    Type
REMARK                         _______ _______ _______ _____ _____    ______ ____
ROOT
ATOM      1  C   UNL     1       5.097   4.863  15.752  0.00  0.00    +0.000 C 
ENDROOT
BRANCH   1   7
ATOM      2  C   UNL     1       5.453   2.274  11.448  0.00  0.00    +0.000 C 
ATOM      3  C   UNL     1       6.004   3.334  12.355  0.00  0.00    +0.000 A 
ATOM      4  C   UNL     1       7.171   4.027  12.031  0.00  0.00    +0.000 A 
ATOM      5  C   UNL     1       7.717   4.934  12.939  0.00  0.00    +0.000 A 
ATOM      6  C   UNL     1       7.096   5.177  14.165  0.00  0.00    +0.000 A 
ATOM      7  C   UNL     1       5.884   4.553  14.487  0.00  0.00    +0.000 A 
ATOM      8  C   UNL     1       5.372   3.608  13.574  0.00  0.00    +0.000 A 
ENDBRANCH   1   7
BRANCH   1   9
ATOM      9  N   UNL     1       5.108   3.736  16.688  0.00  0.00    +0.000 N 
ATOM     10  H   UNL     1       6.025   3.313  16.848  0.00  0.00    +0.000 HD
BRANCH   9  11
ATOM     11  C   UNL     1       4.164   3.508  17.685  0.00  0.00    +0.000 A 
ATOM     12  C   UNL     1       2.933   2.894  17.425  0.00  0.00    +0.000 A 
ATOM     13  C   UNL     1       2.017   2.592  18.436  0.00  0.00    +0.000 A 
ATOM     14  C   UNL     1       2.296   2.905  19.763  0.00  0.00    +0.000 A 
ATOM     15  C   UNL     1       1.298   2.586  20.835  0.00  0.00    +0.000 C 
ATOM     16  C   UNL     1       3.531   3.488  20.064  0.00  0.00    +0.000 A 
ATOM     17  C   UNL     1       4.449   3.779  19.041  0.00  0.00    +0.000 A 
ATOM     18 CL   UNL     1       5.957   4.501  19.499  0.00  0.00    +0.000 Cl
ENDBRANCH   9  11
ENDBRANCH   1   9
BRANCH   1  19
ATOM     19  C   UNL     1       5.537   6.146  16.490  0.00  0.00    +0.000 C 
ATOM     20  O   UNL     1       6.676   6.315  16.935  0.00  0.00    +0.000 OA
BRANCH  19  21
ATOM     21  C   UNL     1       4.462   7.189  16.728  0.00  0.00    +0.000 C 
BRANCH  21  22
ATOM     22  C   UNL     1       3.438   6.639  17.722  0.00  0.00    +0.000 C 
BRANCH  22  23
ATOM     23  C   UNL     1       2.600   7.662  18.443  0.00  0.00    +0.000 A 
ATOM     24  C   UNL     1       2.158   8.794  17.746  0.00  0.00    +0.000 A 
ATOM     25  C   UNL     1       1.345   9.711  18.389  0.00  0.00    +0.000 A 
ATOM     26  N   UNL     1       0.937   9.578  19.669  0.00  0.00    +0.000 NA
ATOM     27  C   UNL     1       1.352   8.473  20.320  0.00  0.00    +0.000 A 
ATOM     28  C   UNL     1       2.166   7.498  19.760  0.00  0.00    +0.000 A 
ENDBRANCH  22  23
ENDBRANCH  21  22
ENDBRANCH  19  21
ENDBRANCH   1  19
TORSDOF 7
ENDMDL
MODEL 3
REMARK VINA RESULT:      -8.0      3.273      5.609
REMARK  Name = 
REMARK  9 active torsions:
REMARK  status: ('A' for Active; 'I' for Inactive)
REMARK    1  A    between atoms: C_1  and  C_2
REMARK    2  A    between atoms: C_6  and  C_7
REMARK    3  A    between atoms: C_7  and  N_8
REMARK    4  A    between atoms: C_7  and  C_17
REMARK    5  A    between atoms: N_8  and  C_9
REMARK    6  A    between atoms: C_12  and  C_13
REMARK    7  A    between atoms: C_17  and  C_19
REMARK    8  A    between atoms: C_19  and  C_20
REMARK    9  A    between atoms: C_20  and  C_21
REMARK                            x       y       z     vdW  Elec       q    Type
REMARK                         _______ _______ _______ _____ _____    ______ ____
ROOT
ATOM      1  C   UNL     1       3.929   5.381  18.149  0.00  0.00    +0.000 C 
ENDROOT
BRANCH   1   7
ATOM      2  C   UNL     1       8.494   5.329  20.274  0.00  0.00    +0.000 C 
ATOM      3  C   UNL     1       7.582   5.865  19.211  0.00  0.00    +0.000 A 
ATOM      4  C   UNL     1       8.020   6.824  18.298  0.00  0.00    +0.000 A 
ATOM      5  C   UNL     1       7.124   7.379  17.385  0.00  0.00    +0.000 A 
ATOM      6  C   UNL     1       5.789   6.969  17.357  0.00  0.00    +0.000 A 
ATOM      7  C   UNL     1       5.336   5.954  18.211  0.00  0.00    +0.000 A 
ATOM      8  C   UNL     1       6.249   5.438  19.154  0.00  0.00    +0.000 A 
ENDBRANCH   1   7
BRANCH   1   9
ATOM      9  N   UNL     1       2.922   6.431  17.974  0.00  0.00    +0.000 N 
ATOM     10  H   UNL     1       2.464   6.446  17.060  0.00  0.00    +0.000 HD
BRANCH   9  11
ATOM     11  C   UNL     1       2.222   7.056  19.002  0.00  0.00    +0.000 A 
ATOM     12  C   UNL     1       1.949   6.418  20.218  0.00  0.00    +0.000 A 
ATOM     13  C   UNL     1       1.315   7.068  21.281  0.00  0.00    +0.000 A 
ATOM     14  C   UNL     1       0.917   8.396  21.163  0.00  0.00    +0.000 A 
ATOM     15  C   UNL     1       0.228   9.077  22.307  0.00  0.00    +0.000 C 
ATOM     16  C   UNL     1       1.203   9.075  19.974  0.00  0.00    +0.000 A 
ATOM     17  C   UNL     1       1.849   8.415  18.915  0.00  0.00    +0.000 A 
ATOM     18 CL   UNL     1       2.168   9.328  17.476  0.00  0.00    +0.000 Cl
ENDBRANCH   9  11
ENDBRANCH   1   9
BRANCH   1  19
ATOM     19  C   UNL     1       3.721   4.288  17.079  0.00  0.00    +0.000 C 
ATOM     20  O   UNL     1       4.595   3.950  16.276  0.00  0.00    +0.000 OA
BRANCH  19  21
ATOM     21  C   UNL     1       2.332   3.683  16.995  0.00  0.00    +0.000 C 
BRANCH  21  22
ATOM     22  C   UNL     1       2.319   2.349  17.744  0.00  0.00    +0.000 C 
BRANCH  22  23
ATOM     23  C   UNL     1       2.300   2.436  19.248  0.00  0.00    +0.000 A 
ATOM     24  C   UNL     1       3.490   2.224  19.957  0.00  0.00    +0.000 A 
ATOM     25  C   UNL     1       3.489   2.353  21.335  0.00  0.00    +0.000 A 
ATOM     26  N   UNL     1       2.394   2.682  22.054  0.00  0.00    +0.000 NA
ATOM     27  C   UNL     1       1.263   2.904  21.356  0.00  0.00    +0.000 A 
ATOM     28  C   UNL     1       1.166   2.802  19.975  0.00  0.00    +0.000 A 
ENDBRANCH  22  23
ENDBRANCH  21  22
ENDBRANCH  19  21
ENDBRANCH   1  19
TORSDOF 7
ENDMDL
MODEL 4
REMARK VINA RESULT:      -7.9      1.358      1.625
REMARK  Name = 
REMARK  9 active torsions:
REMARK  status: ('A' for Active; 'I' for Inactive)
REMARK    1  A    between atoms: C_1  and  C_2
REMARK    2  A    between atoms: C_6  and  C_7
REMARK    3  A    between atoms: C_7  and  N_8
REMARK    4  A    between atoms: C_7  and  C_17
REMARK    5  A    between atoms: N_8  and  C_9
REMARK    6  A    between atoms: C_12  and  C_13
REMARK    7  A    between atoms: C_17  and  C_19
REMARK    8  A    between atoms: C_19  and  C_20
REMARK    9  A    between atoms: C_20  and  C_21
REMARK                            x       y       z     vdW  Elec       q    Type
REMARK                         _______ _______ _______ _____ _____    ______ ____
ROOT
ATOM      1  C   UNL     1       4.827   4.658  16.421  0.00  0.00    +0.000 C 
ENDROOT
BRANCH   1   7
ATOM      2  C   UNL     1       5.040   2.849  11.727  0.00  0.00    +0.000 C 
ATOM      3  C   UNL     1       5.671   3.666  12.815  0.00  0.00    +0.000 A 
ATOM      4  C   UNL     1       6.913   4.275  12.634  0.00  0.00    +0.000 A 
ATOM      5  C   UNL     1       7.523   4.942  13.696  0.00  0.00    +0.000 A 
ATOM      6  C   UNL     1       6.894   5.030  14.939  0.00  0.00    +0.000 A 
ATOM      7  C   UNL     1       5.614   4.493  15.130  0.00  0.00    +0.000 A 
ATOM      8  C   UNL     1       5.035   3.786  14.057  0.00  0.00    +0.000 A 
ENDBRANCH   1   7
BRANCH   1   9
ATOM      9  N   UNL     1       4.184   3.406  16.829  0.00  0.00    +0.000 N 
ATOM     10  H   UNL     1       4.517   2.569  16.345  0.00  0.00    +0.000 HD
BRANCH   9  11
ATOM     11  C   UNL     1       3.566   3.179  18.055  0.00  0.00    +0.000 A 
ATOM     12  C   UNL     1       4.224   2.556  19.122  0.00  0.00    +0.000 A 
ATOM     13  C   UNL     1       3.633   2.398  20.379  0.00  0.00    +0.000 A 
ATOM     14  C   UNL     1       2.340   2.854  20.617  0.00  0.00    +0.000 A 
ATOM     15  C   UNL     1       1.715   2.666  21.966  0.00  0.00    +0.000 C 
ATOM     16  C   UNL     1       1.665   3.510  19.584  0.00  0.00    +0.000 A 
ATOM     17  C   UNL     1       2.271   3.673  18.327  0.00  0.00    +0.000 A 
ATOM     18 CL   UNL     1       1.366   4.499  17.100  0.00  0.00    +0.000 Cl
ENDBRANCH   9  11
ENDBRANCH   1   9
BRANCH   1  19
ATOM     19  C   UNL     1       5.636   5.226  17.606  0.00  0.00    +0.000 C 
ATOM     20  O   UNL     1       6.662   4.697  18.042  0.00  0.00    +0.000 OA
BRANCH  19  21
ATOM     21  C   UNL     1       5.062   6.453  18.289  0.00  0.00    +0.000 C 
BRANCH  21  22
ATOM     22  C   UNL     1       3.864   6.961  17.486  0.00  0.00    +0.000 C 
BRANCH  22  23
ATOM     23  C   UNL     1       2.810   7.704  18.265  0.00  0.00    +0.000 A 
ATOM     24  C   UNL     1       2.486   7.268  19.557  0.00  0.00    +0.000 A 
ATOM     25  C   UNL     1       1.556   7.978  20.297  0.00  0.00    +0.000 A 
ATOM     26  N   UNL     1       0.934   9.089  19.847  0.00  0.00    +0.000 NA
ATOM     27  C   UNL     1       1.272   9.507  18.612  0.00  0.00    +0.000 A 
ATOM     28  C   UNL     1       2.194   8.865  17.796  0.00  0.00    +0.000 A 
ENDBRANCH  22  23
ENDBRANCH  21  22
ENDBRANCH  19  21
ENDBRANCH   1  19
TORSDOF 7
ENDMDL
MODEL 5
REMARK VINA RESULT:      -7.8      2.317      6.967
REMARK  Name = 
REMARK  9 active torsions:
REMARK  status: ('A' for Active; 'I' for Inactive)
REMARK    1  A    between atoms: C_1  and  C_2
REMARK    2  A    between atoms: C_6  and  C_7
REMARK    3  A    between atoms: C_7  and  N_8
REMARK    4  A    between atoms: C_7  and  C_17
REMARK    5  A    between atoms: N_8  and  C_9
REMARK    6  A    between atoms: C_12  and  C_13
REMARK    7  A    between atoms: C_17  and  C_19
REMARK    8  A    between atoms: C_19  and  C_20
REMARK    9  A    between atoms: C_20  and  C_21
REMARK                            x       y       z     vdW  Elec       q    Type
REMARK                         _______ _______ _______ _____ _____    ______ ____
ROOT
ATOM      1  C   UNL     1       2.633   6.406  18.733  0.00  0.00    +0.000 C 
ENDROOT
BRANCH   1   7
ATOM      2  C   UNL     1       1.454   2.704  21.937  0.00  0.00    +0.000 C 
ATOM      3  C   UNL     1       1.443   3.238  20.535  0.00  0.00    +0.000 A 
ATOM      4  C   UNL     1       0.916   2.490  19.482  0.00  0.00    +0.000 A 
ATOM      5  C   UNL     1       1.010   2.965  18.174  0.00  0.00    +0.000 A 
ATOM      6  C   UNL     1       1.609   4.198  17.905  0.00  0.00    +0.000 A 
ATOM      7  C   UNL     1       2.080   5.005  18.949  0.00  0.00    +0.000 A 
ATOM      8  C   UNL     1       2.013   4.486  20.258  0.00  0.00    +0.000 A 
ENDBRANCH   1   7
BRANCH   1   9
ATOM      9  N   UNL     1       2.583   7.204  19.961  0.00  0.00    +0.000 N 
ATOM     10  H   UNL     1       3.477   7.312  20.446  0.00  0.00    +0.000 HD
BRANCH   9  11
ATOM     11  C   UNL     1       1.624   8.169  20.257  0.00  0.00    +0.000 A 
ATOM     12  C   UNL     1       0.984   8.232  21.500  0.00  0.00    +0.000 A 
ATOM     13  C   UNL     1       0.079   9.246  21.827  0.00  0.00    +0.000 A 
ATOM     14  C   UNL     1      -0.231  10.243  20.908  0.00  0.00    +0.000 A 
ATOM     15  C   UNL     1      -1.212  11.318  21.268  0.00  0.00    +0.000 C 
ATOM     16  C   UNL     1       0.415  10.230  19.668  0.00  0.00    +0.000 A 
ATOM     17  C   UNL     1       1.330   9.212  19.352  0.00  0.00    +0.000 A 
ATOM     18 CL   UNL     1       2.088   9.270  17.794  0.00  0.00    +0.000 Cl
ENDBRANCH   9  11
ENDBRANCH   1   9
BRANCH   1  19
ATOM     19  C   UNL     1       4.060   6.456  18.147  0.00  0.00    +0.000 C 
ATOM     20  O   UNL     1       4.353   7.087  17.128  0.00  0.00    +0.000 OA
BRANCH  19  21
ATOM     21  C   UNL     1       5.106   5.608  18.846  0.00  0.00    +0.000 C 
BRANCH  21  22
ATOM     22  C   UNL     1       5.279   4.294  18.083  0.00  0.00    +0.000 C 
BRANCH  22  23
ATOM     23  C   UNL     1       5.743   4.414  16.655  0.00  0.00    +0.000 A 
ATOM     24  C   UNL     1       7.041   4.874  16.397  0.00  0.00    +0.000 A 
ATOM     25  C   UNL     1       7.490   4.938  15.089  0.00  0.00    +0.000 A 
ATOM     26  N   UNL     1       6.745   4.571  14.025  0.00  0.00    +0.000 NA
ATOM     27  C   UNL     1       5.506   4.109  14.291  0.00  0.00    +0.000 A 
ATOM     28  C   UNL     1       4.969   4.007  15.566  0.00  0.00    +0.000 A 
ENDBRANCH  22  23
ENDBRANCH  21  22
ENDBRANCH  19  21
ENDBRANCH   1  19
TORSDOF 7
ENDMDL
MODEL 6
REMARK VINA RESULT:      -7.7      2.002      6.875
REMARK  Name = 
REMARK  9 active torsions:
REMARK  status: ('A' for Active; 'I' for Inactive)
REMARK    1  A    between atoms: C_1  and  C_2
REMARK    2  A    between atoms: C_6  and  C_7
REMARK    3  A    between atoms: C_7  and  N_8
REMARK    4  A    between atoms: C_7  and  C_17
REMARK    5  A    between atoms: N_8  and  C_9
REMARK    6  A    between atoms: C_12  and  C_13
REMARK    7  A    between atoms: C_17  and  C_19
REMARK    8  A    between atoms: C_19  and  C_20
REMARK    9  A    between atoms: C_20  and  C_21
REMARK                            x       y       z     vdW  Elec       q    Type
REMARK                         _______ _______ _______ _____ _____    ______ ____
ROOT
ATOM      1  C   UNL     1       3.347   5.937  18.038  0.00  0.00    +0.000 C 
ENDROOT
BRANCH   1   7
ATOM      2  C   UNL     1       1.289   2.745  21.343  0.00  0.00    +0.000 C 
ATOM      3  C   UNL     1       1.738   3.022  19.940  0.00  0.00    +0.000 A 
ATOM      4  C   UNL     1       1.635   2.052  18.943  0.00  0.00    +0.000 A 
ATOM      5  C   UNL     1       2.153   2.301  17.672  0.00  0.00    +0.000 A 
ATOM      6  C   UNL     1       2.758   3.524  17.375  0.00  0.00    +0.000 A 
ATOM      7  C   UNL     1       2.810   4.545  18.333  0.00  0.00    +0.000 A 
ATOM      8  C   UNL     1       2.319   4.257  19.623  0.00  0.00    +0.000 A 
ENDBRANCH   1   7
BRANCH   1   9
ATOM      9  N   UNL     1       3.068   6.870  19.133  0.00  0.00    +0.000 N 
ATOM     10  H   UNL     1       3.760   6.876  19.885  0.00  0.00    +0.000 HD
BRANCH   9  11
ATOM     11  C   UNL     1       2.284   8.016  19.035  0.00  0.00    +0.000 A 
ATOM     12  C   UNL     1       2.264   8.815  17.886  0.00  0.00    +0.000 A 
ATOM     13  C   UNL     1       1.420   9.921  17.755  0.00  0.00    +0.000 A 
ATOM     14  C   UNL     1       0.558  10.281  18.787  0.00  0.00    +0.000 A 
ATOM     15  C   UNL     1      -0.334  11.476  18.637  0.00  0.00    +0.000 C 
ATOM     16  C   UNL     1       0.526   9.485  19.936  0.00  0.00    +0.000 A 
ATOM     17  C   UNL     1       1.373   8.370  20.054  0.00  0.00    +0.000 A 
ATOM     18 CL   UNL     1       1.271   7.437  21.512  0.00  0.00    +0.000 Cl
ENDBRANCH   9  11
ENDBRANCH   1   9
BRANCH   1  19
ATOM     19  C   UNL     1       4.849   5.992  17.688  0.00  0.00    +0.000 C 
ATOM     20  O   UNL     1       5.745   5.892  18.530  0.00  0.00    +0.000 OA
BRANCH  19  21
ATOM     21  C   UNL     1       5.194   6.264  16.236  0.00  0.00    +0.000 C 
BRANCH  21  22
ATOM     22  C   UNL     1       6.459   5.487  15.866  0.00  0.00    +0.000 C 
BRANCH  22  23
ATOM     23  C   UNL     1       6.482   4.879  14.488  0.00  0.00    +0.000 A 
ATOM     24  C   UNL     1       7.539   5.194  13.623  0.00  0.00    +0.000 A 
ATOM     25  C   UNL     1       7.592   4.598  12.374  0.00  0.00    +0.000 A 
ATOM     26  N   UNL     1       6.677   3.711  11.930  0.00  0.00    +0.000 NA
ATOM     27  C   UNL     1       5.679   3.402  12.782  0.00  0.00    +0.000 A 
ATOM     28  C   UNL     1       5.541   3.944  14.052  0.00  0.00    +0.000 A 
ENDBRANCH  22  23
ENDBRANCH  21  22
ENDBRANCH  19  21
ENDBRANCH   1  19
TORSDOF 7
ENDMDL
MODEL 7
REMARK VINA RESULT:      -7.7      3.109      5.436
REMARK  Name = 
REMARK  9 active torsions:
REMARK  status: ('A' for Active; 'I' for Inactive)
REMARK    1  A    between atoms: C_1  and  C_2
REMARK    2  A    between atoms: C_6  and  C_7
REMARK    3  A    between atoms: C_7  and  N_8
REMARK    4  A    between atoms: C_7  and  C_17
REMARK    5  A    between atoms: N_8  and  C_9
REMARK    6  A    between atoms: C_12  and  C_13
REMARK    7  A    between atoms: C_17  and  C_19
REMARK    8  A    between atoms: C_19  and  C_20
REMARK    9  A    between atoms: C_20  and  C_21
REMARK                            x       y       z     vdW  Elec       q    Type
REMARK                         _______ _______ _______ _____ _____    ______ ____
ROOT
ATOM      1  C   UNL     1       4.327   5.270  17.924  0.00  0.00    +0.000 C 
ENDROOT
BRANCH   1   7
ATOM      2  C   UNL     1       7.930   8.743  17.360  0.00  0.00    +0.000 C 
ATOM      3  C   UNL     1       7.461   7.477  18.014  0.00  0.00    +0.000 A 
ATOM      4  C   UNL     1       8.279   6.776  18.901  0.00  0.00    +0.000 A 
ATOM      5  C   UNL     1       7.859   5.550  19.415  0.00  0.00    +0.000 A 
ATOM      6  C   UNL     1       6.614   5.020  19.070  0.00  0.00    +0.000 A 
ATOM      7  C   UNL     1       5.740   5.735  18.241  0.00  0.00    +0.000 A 
ATOM      8  C   UNL     1       6.202   6.952  17.699  0.00  0.00    +0.000 A 
ENDBRANCH   1   7
BRANCH   1   9
ATOM      9  N   UNL     1       3.405   6.399  17.775  0.00  0.00    +0.000 N 
ATOM     10  H   UNL     1       3.083   6.574  16.821  0.00  0.00    +0.000 HD
BRANCH   9  11
ATOM     11  C   UNL     1       2.594   6.916  18.782  0.00  0.00    +0.000 A 
ATOM     12  C   UNL     1       2.304   6.201  19.951  0.00  0.00    +0.000 A 
ATOM     13  C   UNL     1       1.556   6.747  20.998  0.00  0.00    +0.000 A 
ATOM     14  C   UNL     1       1.055   8.042  20.911  0.00  0.00    +0.000 A 
ATOM     15  C   UNL     1       0.244   8.610  22.036  0.00  0.00    +0.000 C 
ATOM     16  C   UNL     1       1.353   8.797  19.772  0.00  0.00    +0.000 A 
ATOM     17  C   UNL     1       2.114   8.243  18.729  0.00  0.00    +0.000 A 
ATOM     18 CL   UNL     1       2.440   9.246  17.353  0.00  0.00    +0.000 Cl
ENDBRANCH   9  11
ENDBRANCH   1   9
BRANCH   1  19
ATOM     19  C   UNL     1       4.209   4.348  16.692  0.00  0.00    +0.000 C 
ATOM     20  O   UNL     1       4.879   4.498  15.666  0.00  0.00    +0.000 OA
BRANCH  19  21
ATOM     21  C   UNL     1       3.149   3.264  16.759  0.00  0.00    +0.000 C 
BRANCH  21  22
ATOM     22  C   UNL     1       3.477   2.311  17.909  0.00  0.00    +0.000 C 
BRANCH  22  23
ATOM     23  C   UNL     1       2.681   2.501  19.174  0.00  0.00    +0.000 A 
ATOM     24  C   UNL     1       3.354   2.534  20.402  0.00  0.00    +0.000 A 
ATOM     25  C   UNL     1       2.633   2.760  21.563  0.00  0.00    +0.000 A 
ATOM     26  N   UNL     1       1.298   2.961  21.586  0.00  0.00    +0.000 NA
ATOM     27  C   UNL     1       0.669   2.948  20.394  0.00  0.00    +0.000 A 
ATOM     28  C   UNL     1       1.304   2.732  19.179  0.00  0.00    +0.000 A 
ENDBRANCH  22  23
ENDBRANCH  21  22
ENDBRANCH  19  21
ENDBRANCH   1  19
TORSDOF 7
ENDMDL
MODEL 8
REMARK VINA RESULT:      -7.7      1.458      2.018
REMARK  Name = 
REMARK  9 active torsions:
REMARK  status: ('A' for Active; 'I' for Inactive)
REMARK    1  A    between atoms: C_1  and  C_2
REMARK    2  A    between atoms: C_6  and  C_7
REMARK    3  A    between atoms: C_7  and  N_8
REMARK    4  A    between atoms: C_7  and  C_17
REMARK    5  A    between atoms: N_8  and  C_9
REMARK    6  A    between atoms: C_12  and  C_13
REMARK    7  A    between atoms: C_17  and  C_19
REMARK    8  A    between atoms: C_19  and  C_20
REMARK    9  A    between atoms: C_20  and  C_21
REMARK                            x       y       z     vdW  Elec       q    Type
REMARK                         _______ _______ _______ _____ _____    ______ ____
ROOT
ATOM      1  C   UNL     1       4.636   4.488  16.469  0.00  0.00    +0.000 C 
ENDROOT
BRANCH   1   7
ATOM      2  C   UNL     1       5.243   2.938  11.716  0.00  0.00    +0.000 C 
ATOM      3  C   UNL     1       5.776   3.698  12.894  0.00  0.00    +0.000 A 
ATOM      4  C   UNL     1       7.022   4.323  12.847  0.00  0.00    +0.000 A 
ATOM      5  C   UNL     1       7.539   4.936  13.988  0.00  0.00    +0.000 A 
ATOM      6  C   UNL     1       6.811   4.952  15.180  0.00  0.00    +0.000 A 
ATOM      7  C   UNL     1       5.525   4.398  15.238  0.00  0.00    +0.000 A 
ATOM      8  C   UNL     1       5.041   3.747  14.085  0.00  0.00    +0.000 A 
ENDBRANCH   1   7
BRANCH   1   9
ATOM      9  N   UNL     1       4.549   3.204  17.170  0.00  0.00    +0.000 N 
ATOM     10  H   UNL     1       5.348   2.581  17.037  0.00  0.00    +0.000 HD
BRANCH   9  11
ATOM     11  C   UNL     1       3.783   2.957  18.306  0.00  0.00    +0.000 A 
ATOM     12  C   UNL     1       4.341   2.470  19.494  0.00  0.00    +0.000 A 
ATOM     13  C   UNL     1       3.589   2.296  20.660  0.00  0.00    +0.000 A 
ATOM     14  C   UNL     1       2.231   2.596  20.679  0.00  0.00    +0.000 A 
ATOM     15  C   UNL     1       1.435   2.393  21.932  0.00  0.00    +0.000 C 
ATOM     16  C   UNL     1       1.647   3.116  19.519  0.00  0.00    +0.000 A 
ATOM     17  C   UNL     1       2.413   3.297  18.356  0.00  0.00    +0.000 A 
ATOM     18 CL   UNL     1       1.614   3.948  16.962  0.00  0.00    +0.000 Cl
ENDBRANCH   9  11
ENDBRANCH   1   9
BRANCH   1  19
ATOM     19  C   UNL     1       5.027   5.594  17.472  0.00  0.00    +0.000 C 
ATOM     20  O   UNL     1       5.988   5.503  18.241  0.00  0.00    +0.000 OA
BRANCH  19  21
ATOM     21  C   UNL     1       4.108   6.800  17.539  0.00  0.00    +0.000 C 
BRANCH  21  22
ATOM     22  C   UNL     1       3.240   6.701  18.794  0.00  0.00    +0.000 C 
BRANCH  22  23
ATOM     23  C   UNL     1       2.280   7.839  19.025  0.00  0.00    +0.000 A 
ATOM     24  C   UNL     1       1.888   8.631  17.938  0.00  0.00    +0.000 A 
ATOM     25  C   UNL     1       0.967   9.645  18.136  0.00  0.00    +0.000 A 
ATOM     26  N   UNL     1       0.405   9.921  19.333  0.00  0.00    +0.000 NA
ATOM     27  C   UNL     1       0.776   9.136  20.364  0.00  0.00    +0.000 A 
ATOM     28  C   UNL     1       1.689   8.096  20.264  0.00  0.00    +0.000 A 
ENDBRANCH  22  23
ENDBRANCH  21  22
ENDBRANCH  19  21
ENDBRANCH   1  19
TORSDOF 7
ENDMDL
MODEL 9
REMARK VINA RESULT:      -7.7      3.053      5.710
REMARK  Name = 
REMARK  9 active torsions:
REMARK  status: ('A' for Active; 'I' for Inactive)
REMARK    1  A    between atoms: C_1  and  C_2
REMARK    2  A    between atoms: C_6  and  C_7
REMARK    3  A    between atoms: C_7  and  N_8
REMARK    4  A    between atoms: C_7  and  C_17
REMARK    5  A    between atoms: N_8  and  C_9
REMARK    6  A    between atoms: C_12  and  C_13
REMARK    7  A    between atoms: C_17  and  C_19
REMARK    8  A    between atoms: C_19  and  C_20
REMARK    9  A    between atoms: C_20  and  C_21
REMARK                            x       y       z     vdW  Elec       q    Type
REMARK                         _______ _______ _______ _____ _____    ______ ____
ROOT
ATOM      1  C   UNL     1       3.149   5.596  18.189  0.00  0.00    +0.000 C 
ENDROOT
BRANCH   1   7
ATOM      2  C   UNL     1       8.044   5.631  19.368  0.00  0.00    +0.000 C 
ATOM      3  C   UNL     1       6.981   5.579  18.312  0.00  0.00    +0.000 A 
ATOM      4  C   UNL     1       7.311   5.535  16.957  0.00  0.00    +0.000 A 
ATOM      5  C   UNL     1       6.305   5.591  15.993  0.00  0.00    +0.000 A 
ATOM      6  C   UNL     1       4.962   5.666  16.367  0.00  0.00    +0.000 A 
ATOM      7  C   UNL     1       4.595   5.636  17.719  0.00  0.00    +0.000 A 
ATOM      8  C   UNL     1       5.630   5.624  18.677  0.00  0.00    +0.000 A 
ENDBRANCH   1   7
BRANCH   1   9
ATOM      9  N   UNL     1       2.525   6.921  18.140  0.00  0.00    +0.000 N 
ATOM     10  H   UNL     1       2.236   7.230  17.210  0.00  0.00    +0.000 HD
BRANCH   9  11
ATOM     11  C   UNL     1       1.885   7.550  19.204  0.00  0.00    +0.000 A 
ATOM     12  C   UNL     1       1.663   6.910  20.429  0.00  0.00    +0.000 A 
ATOM     13  C   UNL     1       1.092   7.564  21.524  0.00  0.00    +0.000 A 
ATOM     14  C   UNL     1       0.706   8.898  21.431  0.00  0.00    +0.000 A 
ATOM     15  C   UNL     1       0.083   9.583  22.610  0.00  0.00    +0.000 C 
ATOM     16  C   UNL     1       0.943   9.578  20.233  0.00  0.00    +0.000 A 
ATOM     17  C   UNL     1       1.527   8.914  19.141  0.00  0.00    +0.000 A 
ATOM     18 CL   UNL     1       1.787   9.830  17.691  0.00  0.00    +0.000 Cl
ENDBRANCH   9  11
ENDBRANCH   1   9
BRANCH   1  19
ATOM     19  C   UNL     1       2.255   4.581  17.446  0.00  0.00    +0.000 C 
ATOM     20  O   UNL     1       1.046   4.749  17.262  0.00  0.00    +0.000 OA
BRANCH  19  21
ATOM     21  C   UNL     1       2.920   3.289  17.008  0.00  0.00    +0.000 C 
BRANCH  21  22
ATOM     22  C   UNL     1       2.339   2.127  17.815  0.00  0.00    +0.000 C 
BRANCH  22  23
ATOM     23  C   UNL     1       2.335   2.296  19.312  0.00  0.00    +0.000 A 
ATOM     24  C   UNL     1       3.553   2.276  20.002  0.00  0.00    +0.000 A 
ATOM     25  C   UNL     1       3.559   2.482  21.371  0.00  0.00    +0.000 A 
ATOM     26  N   UNL     1       2.444   2.713  22.097  0.00  0.00    +0.000 NA
ATOM     27  C   UNL     1       1.282   2.752  21.415  0.00  0.00    +0.000 A 
ATOM     28  C   UNL     1       1.175   2.559  20.044  0.00  0.00    +0.000 A 
ENDBRANCH  22  23
ENDBRANCH  21  22
ENDBRANCH  19  21
ENDBRANCH   1  19
TORSDOF 7
ENDMDL
