MODEL 1
REMARK VINA RESULT:      -7.1      0.000      0.000
REMARK  Name = 
REMARK  6 active torsions:
REMARK  status: ('A' for Active; 'I' for Inactive)
REMARK    1  A    between atoms: N_1  and  S_2
REMARK    2  A    between atoms: S_2  and  C_5
REMARK    3  A    between atoms: C_8  and  N_9
REMARK    4  A    between atoms: C_10  and  C_11
REMARK    5  A    between atoms: C_14  and  O_15
REMARK    6  A    between atoms: C_16  and  O_17
REMARK                            x       y       z     vdW  Elec       q    Type
REMARK                         _______ _______ _______ _____ _____    ______ ____
ROOT
ATOM      1  C   UNL     1       1.141  10.683  19.093  0.00  0.00    +0.000 A 
ATOM      2  C   UNL     1       1.727  10.014  18.020  0.00  0.00    +0.000 A 
ATOM      3  C   UNL     1       2.082   8.669  18.171  0.00  0.00    +0.000 A 
ATOM      4  C   UNL     1       1.872   7.989  19.380  0.00  0.00    +0.000 A 
ATOM      5  C   UNL     1       1.263   8.677  20.437  0.00  0.00    +0.000 A 
ATOM      6  C   UNL     1       0.914  10.024  20.303  0.00  0.00    +0.000 A 
ENDROOT
BRANCH   1   7
ATOM      7  S   UNL     1       0.721  12.396  18.961  0.00  0.00    +0.000 S 
ATOM      8  O   UNL     1       1.091  13.079  20.177  0.00  0.00    +0.000 OA
ATOM      9  O   UNL     1      -0.594  12.513  18.375  0.00  0.00    +0.000 OA
BRANCH   7  10
ATOM     10  N   UNL     1       1.795  12.924  17.784  0.00  0.00    +0.000 NA
ATOM     11  H   UNL     1       2.648  13.268  18.229  0.00  0.00    +0.000 HD
ATOM     12  H   UNL     1       1.345  13.606  17.175  0.00  0.00    +0.000 HD
ENDBRANCH   7  10
ENDBRANCH   1   7
BRANCH   4  13
ATOM     13  N   UNL     1       2.249   6.638  19.433  0.00  0.00    +0.000 NA
ATOM     14  C   UNL     1       2.496   5.986  18.343  0.00  0.00    +0.000 C 
BRANCH  14  15
ATOM     15  C   UNL     1       2.857   4.553  18.369  0.00  0.00    +0.000 A 
ATOM     16  C   UNL     1       2.200   3.641  17.530  0.00  0.00    +0.000 A 
ATOM     17  C   UNL     1       2.563   2.291  17.536  0.00  0.00    +0.000 A 
ATOM     18  C   UNL     1       3.575   1.868  18.389  0.00  0.00    +0.000 A 
ATOM     19  C   UNL     1       4.218   2.777  19.228  0.00  0.00    +0.000 A 
ATOM     20  C   UNL     1       3.873   4.124  19.225  0.00  0.00    +0.000 A 
BRANCH  18  21
ATOM     21  O   UNL     1       3.978   0.563  18.439  0.00  0.00    +0.000 OA
ATOM     22  H   UNL     1       4.741   0.504  19.041  0.00  0.00    +0.000 HD
ENDBRANCH  18  21
BRANCH  19  23
ATOM     23  O   UNL     1       5.204   2.346  20.068  0.00  0.00    +0.000 OA
ATOM     24  H   UNL     1       6.015   2.791  19.744  0.00  0.00    +0.000 HD
ENDBRANCH  19  23
ENDBRANCH  14  15
ENDBRANCH   4  13
TORSDOF 6
ENDMDL
MODEL 2
REMARK VINA RESULT:      -7.0      1.658      1.831
REMARK  Name = 
REMARK  6 active torsions:
REMARK  status: ('A' for Active; 'I' for Inactive)
REMARK    1  A    between atoms: N_1  and  S_2
REMARK    2  A    between atoms: S_2  and  C_5
REMARK    3  A    between atoms: C_8  and  N_9
REMARK    4  A    between atoms: C_10  and  C_11
REMARK    5  A    between atoms: C_14  and  O_15
REMARK    6  A    between atoms: C_16  and  O_17
REMARK                            x       y       z     vdW  Elec       q    Type
REMARK                         _______ _______ _______ _____ _____    ______ ____
ROOT
ATOM      1  C   UNL     1       0.028  11.116  19.158  0.00  0.00    +0.000 A 
ATOM      2  C   UNL     1       0.894  10.530  18.234  0.00  0.00    +0.000 A 
ATOM      3  C   UNL     1       1.545   9.340  18.575  0.00  0.00    +0.000 A 
ATOM      4  C   UNL     1       1.355   8.735  19.827  0.00  0.00    +0.000 A 
ATOM      5  C   UNL     1       0.466   9.332  20.730  0.00  0.00    +0.000 A 
ATOM      6  C   UNL     1      -0.183  10.526  20.406  0.00  0.00    +0.000 A 
ENDROOT
BRANCH   1   7
ATOM      7  S   UNL     1      -0.779  12.644  18.786  0.00  0.00    +0.000 S 
ATOM      8  O   UNL     1       0.209  13.654  18.493  0.00  0.00    +0.000 OA
ATOM      9  O   UNL     1      -1.844  12.856  19.739  0.00  0.00    +0.000 OA
BRANCH   7  10
ATOM     10  N   UNL     1      -1.533  12.291  17.329  0.00  0.00    +0.000 NA
ATOM     11  H   UNL     1      -1.652  11.279  17.243  0.00  0.00    +0.000 HD
ATOM     12  H   UNL     1      -1.022  12.711  16.554  0.00  0.00    +0.000 HD
ENDBRANCH   7  10
ENDBRANCH   1   7
BRANCH   4  13
ATOM     13  N   UNL     1       2.043   7.536  20.075  0.00  0.00    +0.000 NA
ATOM     14  C   UNL     1       2.419   6.785  19.090  0.00  0.00    +0.000 C 
BRANCH  14  15
ATOM     15  C   UNL     1       3.109   5.499  19.325  0.00  0.00    +0.000 A 
ATOM     16  C   UNL     1       2.452   4.453  19.989  0.00  0.00    +0.000 A 
ATOM     17  C   UNL     1       3.097   3.229  20.185  0.00  0.00    +0.000 A 
ATOM     18  C   UNL     1       4.397   3.069  19.720  0.00  0.00    +0.000 A 
ATOM     19  C   UNL     1       5.049   4.115  19.070  0.00  0.00    +0.000 A 
ATOM     20  C   UNL     1       4.416   5.335  18.860  0.00  0.00    +0.000 A 
BRANCH  18  21
ATOM     21  O   UNL     1       5.080   1.895  19.877  0.00  0.00    +0.000 OA
ATOM     22  H   UNL     1       5.015   1.629  20.811  0.00  0.00    +0.000 HD
ENDBRANCH  18  21
BRANCH  19  23
ATOM     23  O   UNL     1       6.329   3.947  18.626  0.00  0.00    +0.000 OA
ATOM     24  H   UNL     1       6.266   4.035  17.652  0.00  0.00    +0.000 HD
ENDBRANCH  19  23
ENDBRANCH  14  15
ENDBRANCH   4  13
TORSDOF 6
ENDMDL
MODEL 3
REMARK VINA RESULT:      -6.9      7.269      7.813
REMARK  Name = 
REMARK  6 active torsions:
REMARK  status: ('A' for Active; 'I' for Inactive)
REMARK    1  A    between atoms: N_1  and  S_2
REMARK    2  A    between atoms: S_2  and  C_5
REMARK    3  A    between atoms: C_8  and  N_9
REMARK    4  A    between atoms: C_10  and  C_11
REMARK    5  A    between atoms: C_14  and  O_15
REMARK    6  A    between atoms: C_16  and  O_17
REMARK                            x       y       z     vdW  Elec       q    Type
REMARK                         _______ _______ _______ _____ _____    ______ ____
ROOT
ATOM      1  C   UNL     1      10.151  13.475  18.167  0.00  0.00    +0.000 A 
ATOM      2  C   UNL     1       8.923  13.048  17.663  0.00  0.00    +0.000 A 
ATOM      3  C   UNL     1       8.532  11.720  17.863  0.00  0.00    +0.000 A 
ATOM      4  C   UNL     1       9.354  10.811  18.545  0.00  0.00    +0.000 A 
ATOM      5  C   UNL     1      10.574  11.269  19.060  0.00  0.00    +0.000 A 
ATOM      6  C   UNL     1      10.981  12.590  18.858  0.00  0.00    +0.000 A 
ENDROOT
BRANCH   1   7
ATOM      7  S   UNL     1      10.705  15.132  17.896  0.00  0.00    +0.000 S 
ATOM      8  O   UNL     1      11.858  15.121  17.029  0.00  0.00    +0.000 OA
ATOM      9  O   UNL     1      10.686  15.845  19.152  0.00  0.00    +0.000 OA
BRANCH   7  10
ATOM     10  N   UNL     1       9.445  15.772  16.989  0.00  0.00    +0.000 NA
ATOM     11  H   UNL     1       8.810  16.286  17.603  0.00  0.00    +0.000 HD
ATOM     12  H   UNL     1       8.990  15.039  16.448  0.00  0.00    +0.000 HD
ENDBRANCH   7  10
ENDBRANCH   1   7
BRANCH   4  13
ATOM     13  N   UNL     1       8.873   9.502  18.707  0.00  0.00    +0.000 NA
ATOM     14  C   UNL     1       8.186   8.939  17.766  0.00  0.00    +0.000 C 
BRANCH  14  15
ATOM     15  C   UNL     1       7.635   7.577  17.927  0.00  0.00    +0.000 A 
ATOM     16  C   UNL     1       8.198   6.690  18.857  0.00  0.00    +0.000 A 
ATOM     17  C   UNL     1       7.656   5.412  19.028  0.00  0.00    +0.000 A 
ATOM     18  C   UNL     1       6.562   5.035  18.259  0.00  0.00    +0.000 A 
ATOM     19  C   UNL     1       6.013   5.916  17.330  0.00  0.00    +0.000 A 
ATOM     20  C   UNL     1       6.536   7.193  17.156  0.00  0.00    +0.000 A 
BRANCH  18  21
ATOM     21  O   UNL     1       5.986   3.801  18.382  0.00  0.00    +0.000 OA
ATOM     22  H   UNL     1       6.679   3.128  18.256  0.00  0.00    +0.000 HD
ENDBRANCH  18  21
BRANCH  19  23
ATOM     23  O   UNL     1       4.944   5.529  16.575  0.00  0.00    +0.000 OA
ATOM     24  H   UNL     1       5.337   5.186  15.746  0.00  0.00    +0.000 HD
ENDBRANCH  19  23
ENDBRANCH  14  15
ENDBRANCH   4  13
TORSDOF 6
ENDMDL
MODEL 4
REMARK VINA RESULT:      -6.9      7.321      9.885
REMARK  Name = 
REMARK  6 active torsions:
REMARK  status: ('A' for Active; 'I' for Inactive)
REMARK    1  A    between atoms: N_1  and  S_2
REMARK    2  A    between atoms: S_2  and  C_5
REMARK    3  A    between atoms: C_8  and  N_9
REMARK    4  A    between atoms: C_10  and  C_11
REMARK    5  A    between atoms: C_14  and  O_15
REMARK    6  A    between atoms: C_16  and  O_17
REMARK                            x       y       z     vdW  Elec       q    Type
REMARK                         _______ _______ _______ _____ _____    ______ ____
ROOT
ATOM      1  C   UNL     1       5.977   5.338  17.599  0.00  0.00    +0.000 A 
ATOM      2  C   UNL     1       6.963   5.110  18.558  0.00  0.00    +0.000 A 
ATOM      3  C   UNL     1       7.859   6.138  18.868  0.00  0.00    +0.000 A 
ATOM      4  C   UNL     1       7.793   7.384  18.225  0.00  0.00    +0.000 A 
ATOM      5  C   UNL     1       6.781   7.595  17.279  0.00  0.00    +0.000 A 
ATOM      6  C   UNL     1       5.886   6.573  16.953  0.00  0.00    +0.000 A 
ENDROOT
BRANCH   1   7
ATOM      7  S   UNL     1       4.854   4.050  17.143  0.00  0.00    +0.000 S 
ATOM      8  O   UNL     1       5.430   3.259  16.083  0.00  0.00    +0.000 OA
ATOM      9  O   UNL     1       3.519   4.598  17.064  0.00  0.00    +0.000 OA
BRANCH   7  10
ATOM     10  N   UNL     1       4.868   3.080  18.512  0.00  0.00    +0.000 NA
ATOM     11  H   UNL     1       4.997   2.104  18.238  0.00  0.00    +0.000 HD
ATOM     12  H   UNL     1       4.032   3.243  19.071  0.00  0.00    +0.000 HD
ENDBRANCH   7  10
ENDBRANCH   1   7
BRANCH   4  13
ATOM     13  N   UNL     1       8.727   8.358  18.610  0.00  0.00    +0.000 NA
ATOM     14  C   UNL     1       8.509   9.608  18.353  0.00  0.00    +0.000 C 
BRANCH  14  15
ATOM     15  C   UNL     1       9.495  10.649  18.713  0.00  0.00    +0.000 A 
ATOM     16  C   UNL     1       9.657  11.040  20.050  0.00  0.00    +0.000 A 
ATOM     17  C   UNL     1      10.609  12.004  20.391  0.00  0.00    +0.000 A 
ATOM     18  C   UNL     1      11.383  12.573  19.387  0.00  0.00    +0.000 A 
ATOM     19  C   UNL     1      11.211  12.188  18.058  0.00  0.00    +0.000 A 
ATOM     20  C   UNL     1      10.274  11.223  17.706  0.00  0.00    +0.000 A 
BRANCH  18  21
ATOM     21  O   UNL     1      12.333  13.518  19.657  0.00  0.00    +0.000 OA
ATOM     22  H   UNL     1      12.227  14.246  19.018  0.00  0.00    +0.000 HD
ENDBRANCH  18  21
BRANCH  19  23
ATOM     23  O   UNL     1      11.972  12.762  17.081  0.00  0.00    +0.000 OA
ATOM     24  H   UNL     1      12.043  13.703  17.343  0.00  0.00    +0.000 HD
ENDBRANCH  19  23
ENDBRANCH  14  15
ENDBRANCH   4  13
TORSDOF 6
ENDMDL
MODEL 5
REMARK VINA RESULT:      -6.9      7.415      9.986
REMARK  Name = 
REMARK  6 active torsions:
REMARK  status: ('A' for Active; 'I' for Inactive)
REMARK    1  A    between atoms: N_1  and  S_2
REMARK    2  A    between atoms: S_2  and  C_5
REMARK    3  A    between atoms: C_8  and  N_9
REMARK    4  A    between atoms: C_10  and  C_11
REMARK    5  A    between atoms: C_14  and  O_15
REMARK    6  A    between atoms: C_16  and  O_17
REMARK                            x       y       z     vdW  Elec       q    Type
REMARK                         _______ _______ _______ _____ _____    ______ ____
ROOT
ATOM      1  C   UNL     1       6.062   5.681  17.904  0.00  0.00    +0.000 A 
ATOM      2  C   UNL     1       5.723   6.818  17.171  0.00  0.00    +0.000 A 
ATOM      3  C   UNL     1       6.576   7.926  17.204  0.00  0.00    +0.000 A 
ATOM      4  C   UNL     1       7.753   7.920  17.967  0.00  0.00    +0.000 A 
ATOM      5  C   UNL     1       8.083   6.759  18.678  0.00  0.00    +0.000 A 
ATOM      6  C   UNL     1       7.235   5.649  18.662  0.00  0.00    +0.000 A 
ENDROOT
BRANCH   1   7
ATOM      7  S   UNL     1       4.989   4.276  17.928  0.00  0.00    +0.000 S 
ATOM      8  O   UNL     1       3.660   4.676  17.538  0.00  0.00    +0.000 OA
ATOM      9  O   UNL     1       5.248   3.509  19.125  0.00  0.00    +0.000 OA
BRANCH   7  10
ATOM     10  N   UNL     1       5.594   3.359  16.659  0.00  0.00    +0.000 NA
ATOM     11  H   UNL     1       5.241   2.403  16.731  0.00  0.00    +0.000 HD
ATOM     12  H   UNL     1       6.610   3.421  16.630  0.00  0.00    +0.000 HD
ENDBRANCH   7  10
ENDBRANCH   1   7
BRANCH   4  13
ATOM     13  N   UNL     1       8.552   9.074  17.928  0.00  0.00    +0.000 NA
ATOM     14  C   UNL     1       8.995   9.597  19.026  0.00  0.00    +0.000 C 
BRANCH  14  15
ATOM     15  C   UNL     1       9.805  10.833  19.016  0.00  0.00    +0.000 A 
ATOM     16  C   UNL     1      10.045  11.533  20.208  0.00  0.00    +0.000 A 
ATOM     17  C   UNL     1      10.835  12.686  20.200  0.00  0.00    +0.000 A 
ATOM     18  C   UNL     1      11.371  13.129  18.997  0.00  0.00    +0.000 A 
ATOM     19  C   UNL     1      11.121  12.435  17.814  0.00  0.00    +0.000 A 
ATOM     20  C   UNL     1      10.345  11.282  17.809  0.00  0.00    +0.000 A 
BRANCH  18  21
ATOM     21  O   UNL     1      12.155  14.247  18.924  0.00  0.00    +0.000 OA
ATOM     22  H   UNL     1      12.775  14.134  18.183  0.00  0.00    +0.000 HD
ENDBRANCH  18  21
BRANCH  19  23
ATOM     23  O   UNL     1      11.647  12.886  16.638  0.00  0.00    +0.000 OA
ATOM     24  H   UNL     1      10.941  12.729  15.976  0.00  0.00    +0.000 HD
ENDBRANCH  19  23
ENDBRANCH  14  15
ENDBRANCH   4  13
TORSDOF 6
ENDMDL
MODEL 6
REMARK VINA RESULT:      -6.8      1.200      1.384
REMARK  Name = 
REMARK  6 active torsions:
REMARK  status: ('A' for Active; 'I' for Inactive)
REMARK    1  A    between atoms: N_1  and  S_2
REMARK    2  A    between atoms: S_2  and  C_5
REMARK    3  A    between atoms: C_8  and  N_9
REMARK    4  A    between atoms: C_10  and  C_11
REMARK    5  A    between atoms: C_14  and  O_15
REMARK    6  A    between atoms: C_16  and  O_17
REMARK                            x       y       z     vdW  Elec       q    Type
REMARK                         _______ _______ _______ _____ _____    ______ ____
ROOT
ATOM      1  C   UNL     1       0.894  10.519  19.837  0.00  0.00    +0.000 A 
ATOM      2  C   UNL     1       1.326  10.221  18.545  0.00  0.00    +0.000 A 
ATOM      3  C   UNL     1       1.827   8.943  18.275  0.00  0.00    +0.000 A 
ATOM      4  C   UNL     1       1.915   7.966  19.278  0.00  0.00    +0.000 A 
ATOM      5  C   UNL     1       1.456   8.283  20.563  0.00  0.00    +0.000 A 
ATOM      6  C   UNL     1       0.963   9.559  20.848  0.00  0.00    +0.000 A 
ENDROOT
BRANCH   1   7
ATOM      7  S   UNL     1       0.298  12.136  20.232  0.00  0.00    +0.000 S 
ATOM      8  O   UNL     1       0.567  13.033  19.134  0.00  0.00    +0.000 OA
ATOM      9  O   UNL     1       0.660  12.450  21.595  0.00  0.00    +0.000 OA
BRANCH   7  10
ATOM     10  N   UNL     1      -1.364  11.898  20.244  0.00  0.00    +0.000 NA
ATOM     11  H   UNL     1      -1.657  11.588  21.172  0.00  0.00    +0.000 HD
ATOM     12  H   UNL     1      -1.636  11.264  19.494  0.00  0.00    +0.000 HD
ENDBRANCH   7  10
ENDBRANCH   1   7
BRANCH   4  13
ATOM     13  N   UNL     1       2.421   6.709  18.910  0.00  0.00    +0.000 NA
ATOM     14  C   UNL     1       1.960   5.634  19.464  0.00  0.00    +0.000 C 
BRANCH  14  15
ATOM     15  C   UNL     1       2.501   4.301  19.123  0.00  0.00    +0.000 A 
ATOM     16  C   UNL     1       1.944   3.557  18.072  0.00  0.00    +0.000 A 
ATOM     17  C   UNL     1       2.477   2.310  17.734  0.00  0.00    +0.000 A 
ATOM     18  C   UNL     1       3.557   1.818  18.457  0.00  0.00    +0.000 A 
ATOM     19  C   UNL     1       4.100   2.557  19.507  0.00  0.00    +0.000 A 
ATOM     20  C   UNL     1       3.586   3.803  19.848  0.00  0.00    +0.000 A 
BRANCH  18  21
ATOM     21  O   UNL     1       4.125   0.608  18.172  0.00  0.00    +0.000 OA
ATOM     22  H   UNL     1       4.012   0.436  17.221  0.00  0.00    +0.000 HD
ENDBRANCH  18  21
BRANCH  19  23
ATOM     23  O   UNL     1       5.155   2.059  20.214  0.00  0.00    +0.000 OA
ATOM     24  H   UNL     1       5.177   2.593  21.035  0.00  0.00    +0.000 HD
ENDBRANCH  19  23
ENDBRANCH  14  15
ENDBRANCH   4  13
TORSDOF 6
ENDMDL
MODEL 7
REMARK VINA RESULT:      -6.8      1.649      2.124
REMARK  Name = 
REMARK  6 active torsions:
REMARK  status: ('A' for Active; 'I' for Inactive)
REMARK    1  A    between atoms: N_1  and  S_2
REMARK    2  A    between atoms: S_2  and  C_5
REMARK    3  A    between atoms: C_8  and  N_9
REMARK    4  A    between atoms: C_10  and  C_11
REMARK    5  A    between atoms: C_14  and  O_15
REMARK    6  A    between atoms: C_16  and  O_17
REMARK                            x       y       z     vdW  Elec       q    Type
REMARK                         _______ _______ _______ _____ _____    ______ ____
ROOT
ATOM      1  C   UNL     1       0.052  11.273  19.509  0.00  0.00    +0.000 A 
ATOM      2  C   UNL     1       0.102  10.684  20.772  0.00  0.00    +0.000 A 
ATOM      3  C   UNL     1       0.716   9.435  20.915  0.00  0.00    +0.000 A 
ATOM      4  C   UNL     1       1.266   8.761  19.814  0.00  0.00    +0.000 A 
ATOM      5  C   UNL     1       1.221   9.382  18.559  0.00  0.00    +0.000 A 
ATOM      6  C   UNL     1       0.602  10.625  18.401  0.00  0.00    +0.000 A 
ENDROOT
BRANCH   1   7
ATOM      7  S   UNL     1      -0.756  12.829  19.276  0.00  0.00    +0.000 S 
ATOM      8  O   UNL     1       0.201  13.898  19.426  0.00  0.00    +0.000 OA
ATOM      9  O   UNL     1      -2.017  12.813  19.981  0.00  0.00    +0.000 OA
BRANCH   7  10
ATOM     10  N   UNL     1      -1.144  12.774  17.644  0.00  0.00    +0.000 NA
ATOM     11  H   UNL     1      -1.953  13.373  17.466  0.00  0.00    +0.000 HD
ATOM     12  H   UNL     1      -1.272  11.810  17.343  0.00  0.00    +0.000 HD
ENDBRANCH   7  10
ENDBRANCH   1   7
BRANCH   4  13
ATOM     13  N   UNL     1       1.871   7.518  20.056  0.00  0.00    +0.000 NA
ATOM     14  C   UNL     1       2.619   6.970  19.153  0.00  0.00    +0.000 C 
BRANCH  14  15
ATOM     15  C   UNL     1       3.237   5.644  19.368  0.00  0.00    +0.000 A 
ATOM     16  C   UNL     1       2.521   4.626  20.014  0.00  0.00    +0.000 A 
ATOM     17  C   UNL     1       3.096   3.364  20.190  0.00  0.00    +0.000 A 
ATOM     18  C   UNL     1       4.386   3.139  19.723  0.00  0.00    +0.000 A 
ATOM     19  C   UNL     1       5.096   4.158  19.091  0.00  0.00    +0.000 A 
ATOM     20  C   UNL     1       4.532   5.415  18.901  0.00  0.00    +0.000 A 
BRANCH  18  21
ATOM     21  O   UNL     1       5.002   1.927  19.862  0.00  0.00    +0.000 OA
ATOM     22  H   UNL     1       5.533   1.948  20.678  0.00  0.00    +0.000 HD
ENDBRANCH  18  21
BRANCH  19  23
ATOM     23  O   UNL     1       6.365   3.926  18.645  0.00  0.00    +0.000 OA
ATOM     24  H   UNL     1       6.732   3.271  19.274  0.00  0.00    +0.000 HD
ENDBRANCH  19  23
ENDBRANCH  14  15
ENDBRANCH   4  13
TORSDOF 6
ENDMDL
MODEL 8
REMARK VINA RESULT:      -6.7      0.941      1.430
REMARK  Name = 
REMARK  6 active torsions:
REMARK  status: ('A' for Active; 'I' for Inactive)
REMARK    1  A    between atoms: N_1  and  S_2
REMARK    2  A    between atoms: S_2  and  C_5
REMARK    3  A    between atoms: C_8  and  N_9
REMARK    4  A    between atoms: C_10  and  C_11
REMARK    5  A    between atoms: C_14  and  O_15
REMARK    6  A    between atoms: C_16  and  O_17
REMARK                            x       y       z     vdW  Elec       q    Type
REMARK                         _______ _______ _______ _____ _____    ______ ____
ROOT
ATOM      1  C   UNL     1       0.804  10.345  20.050  0.00  0.00    +0.000 A 
ATOM      2  C   UNL     1       0.923   9.394  21.063  0.00  0.00    +0.000 A 
ATOM      3  C   UNL     1       1.516   8.161  20.770  0.00  0.00    +0.000 A 
ATOM      4  C   UNL     1       1.976   7.860  19.480  0.00  0.00    +0.000 A 
ATOM      5  C   UNL     1       1.864   8.839  18.484  0.00  0.00    +0.000 A 
ATOM      6  C   UNL     1       1.265  10.071  18.761  0.00  0.00    +0.000 A 
ENDROOT
BRANCH   1   7
ATOM      7  S   UNL     1       0.020  11.898  20.365  0.00  0.00    +0.000 S 
ATOM      8  O   UNL     1       0.546  12.468  21.582  0.00  0.00    +0.000 OA
ATOM      9  O   UNL     1      -1.399  11.766  20.123  0.00  0.00    +0.000 OA
BRANCH   7  10
ATOM     10  N   UNL     1       0.612  12.844  19.111  0.00  0.00    +0.000 NA
ATOM     11  H   UNL     1       0.819  13.782  19.460  0.00  0.00    +0.000 HD
ATOM     12  H   UNL     1      -0.034  12.832  18.324  0.00  0.00    +0.000 HD
ENDBRANCH   7  10
ENDBRANCH   1   7
BRANCH   4  13
ATOM     13  N   UNL     1       2.567   6.602  19.284  0.00  0.00    +0.000 NA
ATOM     14  C   UNL     1       1.832   5.572  19.009  0.00  0.00    +0.000 C 
BRANCH  14  15
ATOM     15  C   UNL     1       2.424   4.229  18.836  0.00  0.00    +0.000 A 
ATOM     16  C   UNL     1       1.881   3.329  17.907  0.00  0.00    +0.000 A 
ATOM     17  C   UNL     1       2.461   2.071  17.725  0.00  0.00    +0.000 A 
ATOM     18  C   UNL     1       3.574   1.724  18.481  0.00  0.00    +0.000 A 
ATOM     19  C   UNL     1       4.103   2.619  19.410  0.00  0.00    +0.000 A 
ATOM     20  C   UNL     1       3.542   3.877  19.595  0.00  0.00    +0.000 A 
BRANCH  18  21
ATOM     21  O   UNL     1       4.188   0.510  18.347  0.00  0.00    +0.000 OA
ATOM     22  H   UNL     1       5.115   0.606  18.629  0.00  0.00    +0.000 HD
ENDBRANCH  18  21
BRANCH  19  23
ATOM     23  O   UNL     1       5.192   2.262  20.153  0.00  0.00    +0.000 OA
ATOM     24  H   UNL     1       5.893   2.889  19.880  0.00  0.00    +0.000 HD
ENDBRANCH  19  23
ENDBRANCH  14  15
ENDBRANCH   4  13
TORSDOF 6
ENDMDL
MODEL 9
REMARK VINA RESULT:      -6.7      2.069      2.516
REMARK  Name = 
REMARK  6 active torsions:
REMARK  status: ('A' for Active; 'I' for Inactive)
REMARK    1  A    between atoms: N_1  and  S_2
REMARK    2  A    between atoms: S_2  and  C_5
REMARK    3  A    between atoms: C_8  and  N_9
REMARK    4  A    between atoms: C_10  and  C_11
REMARK    5  A    between atoms: C_14  and  O_15
REMARK    6  A    between atoms: C_16  and  O_17
REMARK                            x       y       z     vdW  Elec       q    Type
REMARK                         _______ _______ _______ _____ _____    ______ ____
ROOT
ATOM      1  C   UNL     1       0.400  10.609  21.095  0.00  0.00    +0.000 A 
ATOM      2  C   UNL     1       0.790   9.630  22.008  0.00  0.00    +0.000 A 
ATOM      3  C   UNL     1       1.390   8.459  21.533  0.00  0.00    +0.000 A 
ATOM      4  C   UNL     1       1.593   8.246  20.161  0.00  0.00    +0.000 A 
ATOM      5  C   UNL     1       1.211   9.253  19.265  0.00  0.00    +0.000 A 
ATOM      6  C   UNL     1       0.602  10.423  19.726  0.00  0.00    +0.000 A 
ENDROOT
BRANCH   1   7
ATOM      7  S   UNL     1      -0.404  12.083  21.649  0.00  0.00    +0.000 S 
ATOM      8  O   UNL     1      -1.625  12.276  20.906  0.00  0.00    +0.000 OA
ATOM      9  O   UNL     1       0.583  13.127  21.801  0.00  0.00    +0.000 OA
BRANCH   7  10
ATOM     10  N   UNL     1      -0.865  11.660  23.206  0.00  0.00    +0.000 NA
ATOM     11  H   UNL     1      -1.881  11.730  23.292  0.00  0.00    +0.000 HD
ATOM     12  H   UNL     1      -0.355  12.216  23.890  0.00  0.00    +0.000 HD
ENDBRANCH   7  10
ENDBRANCH   1   7
BRANCH   4  13
ATOM     13  N   UNL     1       2.213   7.046  19.780  0.00  0.00    +0.000 NA
ATOM     14  C   UNL     1       1.780   5.915  20.236  0.00  0.00    +0.000 C 
BRANCH  14  15
ATOM     15  C   UNL     1       2.438   4.640  19.881  0.00  0.00    +0.000 A 
ATOM     16  C   UNL     1       1.705   3.444  19.860  0.00  0.00    +0.000 A 
ATOM     17  C   UNL     1       2.323   2.246  19.496  0.00  0.00    +0.000 A 
ATOM     18  C   UNL     1       3.672   2.256  19.164  0.00  0.00    +0.000 A 
ATOM     19  C   UNL     1       4.399   3.445  19.196  0.00  0.00    +0.000 A 
ATOM     20  C   UNL     1       3.794   4.646  19.547  0.00  0.00    +0.000 A 
BRANCH  18  21
ATOM     21  O   UNL     1       4.334   1.117  18.796  0.00  0.00    +0.000 OA
ATOM     22  H   UNL     1       4.354   1.078  17.823  0.00  0.00    +0.000 HD
ENDBRANCH  18  21
BRANCH  19  23
ATOM     23  O   UNL     1       5.726   3.439  18.875  0.00  0.00    +0.000 OA
ATOM     24  H   UNL     1       6.110   4.171  19.400  0.00  0.00    +0.000 HD
ENDBRANCH  19  23
ENDBRANCH  14  15
ENDBRANCH   4  13
TORSDOF 6
ENDMDL
