MODEL 1
REMARK VINA RESULT:      -8.0      0.000      0.000
REMARK  Name = 
REMARK  4 active torsions:
REMARK  status: ('A' for Active; 'I' for Inactive)
REMARK    1  A    between atoms: C_2  and  C_11
REMARK    2  A    between atoms: N_3  and  C_4
REMARK    3  A    between atoms: C_4  and  C_5
REMARK    4  A    between atoms: C_20  and  O_21
REMARK                            x       y       z     vdW  Elec       q    Type
REMARK                         _______ _______ _______ _____ _____    ______ ____
ROOT
ATOM      1  C   UNL     1       1.727   8.648  19.418  0.00  0.00    +0.000 A 
ATOM      2  C   UNL     1       1.679   8.016  20.650  0.00  0.00    +0.000 A 
ATOM      3  N   UNL     1       0.905   8.428  21.681  0.00  0.00    +0.000 NA
ATOM      4  C   UNL     1       0.272   9.608  21.570  0.00  0.00    +0.000 A 
ATOM      5  C   UNL     1      -0.648   9.966  22.541  0.00  0.00    +0.000 A 
ATOM      6  C   UNL     1      -1.184  11.242  22.560  0.00  0.00    +0.000 A 
ATOM      7  C   UNL     1      -0.654  12.211  21.711  0.00  0.00    +0.000 A 
ATOM      8  C   UNL     1       0.069  11.818  20.596  0.00  0.00    +0.000 A 
ATOM      9  C   UNL     1       0.480  10.465  20.480  0.00  0.00    +0.000 A 
ATOM     10  C   UNL     1       1.081   9.887  19.332  0.00  0.00    +0.000 A 
ATOM     11  O   UNL     1      -0.798  13.555  21.968  0.00  0.00    +0.000 OA
ATOM     12  C   UNL     1      -1.366  13.737  23.285  0.00  0.00    +0.000 C 
ATOM     13  C   UNL     1      -2.620  12.885  23.336  0.00  0.00    +0.000 C 
ATOM     14  O   UNL     1      -2.194  11.515  23.452  0.00  0.00    +0.000 OA
ENDROOT
BRANCH   1  16
ATOM     15  O   UNL     1       2.521   8.435  17.212  0.00  0.00    +0.000 OA
ATOM     16  C   UNL     1       2.373   7.896  18.312  0.00  0.00    +0.000 C 
ATOM     17  N   UNL     1       2.835   6.633  18.581  0.00  0.00    +0.000 N 
ATOM     18  H   UNL     1       2.645   6.231  19.492  0.00  0.00    +0.000 HD
BRANCH  17  19
ATOM     19  C   UNL     1       3.667   5.898  17.657  0.00  0.00    +0.000 C 
BRANCH  19  20
ATOM     20  C   UNL     1       5.111   5.943  18.055  0.00  0.00    +0.000 A 
ATOM     21  C   UNL     1       6.044   6.664  17.306  0.00  0.00    +0.000 A 
ATOM     22  C   UNL     1       7.377   6.695  17.704  0.00  0.00    +0.000 A 
ATOM     23  C   UNL     1       7.734   6.006  18.850  0.00  0.00    +0.000 A 
ATOM     24  N   UNL     1       6.862   5.305  19.607  0.00  0.00    +0.000 NA
ATOM     25  C   UNL     1       5.573   5.293  19.196  0.00  0.00    +0.000 A 
ENDBRANCH  19  20
ENDBRANCH  17  19
ENDBRANCH   1  16
BRANCH  10  26
ATOM     26  O   UNL     1       0.951  10.512  18.118  0.00  0.00    +0.000 OA
ATOM     27  H   UNL     1       1.830  10.498  17.694  0.00  0.00    +0.000 HD
ENDBRANCH  10  26
TORSDOF 4
ENDMDL
MODEL 2
REMARK VINA RESULT:      -8.0      2.365      3.276
REMARK  Name = 
REMARK  4 active torsions:
REMARK  status: ('A' for Active; 'I' for Inactive)
REMARK    1  A    between atoms: C_2  and  C_11
REMARK    2  A    between atoms: N_3  and  C_4
REMARK    3  A    between atoms: C_4  and  C_5
REMARK    4  A    between atoms: C_20  and  O_21
REMARK                            x       y       z     vdW  Elec       q    Type
REMARK                         _______ _______ _______ _____ _____    ______ ____
ROOT
ATOM      1  C   UNL     1       2.443   7.394  18.936  0.00  0.00    +0.000 A 
ATOM      2  C   UNL     1       2.474   8.103  17.746  0.00  0.00    +0.000 A 
ATOM      3  N   UNL     1       2.061   9.386  17.620  0.00  0.00    +0.000 NA
ATOM      4  C   UNL     1       1.430   9.957  18.661  0.00  0.00    +0.000 A 
ATOM      5  C   UNL     1       1.148  11.311  18.609  0.00  0.00    +0.000 A 
ATOM      6  C   UNL     1       0.347  11.897  19.574  0.00  0.00    +0.000 A 
ATOM      7  C   UNL     1      -0.319  11.081  20.486  0.00  0.00    +0.000 A 
ATOM      8  C   UNL     1       0.135   9.789  20.702  0.00  0.00    +0.000 A 
ATOM      9  C   UNL     1       1.092   9.235  19.814  0.00  0.00    +0.000 A 
ATOM     10  C   UNL     1       1.762   7.997  19.999  0.00  0.00    +0.000 A 
ATOM     11  O   UNL     1      -1.442  11.510  21.155  0.00  0.00    +0.000 OA
ATOM     12  C   UNL     1      -1.876  12.776  20.609  0.00  0.00    +0.000 C 
ATOM     13  C   UNL     1      -0.666  13.692  20.630  0.00  0.00    +0.000 C 
ATOM     14  O   UNL     1       0.205  13.264  19.566  0.00  0.00    +0.000 OA
ENDROOT
BRANCH   1  16
ATOM     15  O   UNL     1       2.771   5.157  19.593  0.00  0.00    +0.000 OA
ATOM     16  C   UNL     1       3.216   6.126  18.972  0.00  0.00    +0.000 C 
ATOM     17  N   UNL     1       4.383   6.067  18.254  0.00  0.00    +0.000 N 
ATOM     18  H   UNL     1       4.715   6.911  17.799  0.00  0.00    +0.000 HD
BRANCH  17  19
ATOM     19  C   UNL     1       5.100   4.832  18.037  0.00  0.00    +0.000 C 
BRANCH  19  20
ATOM     20  C   UNL     1       5.763   4.804  16.694  0.00  0.00    +0.000 A 
ATOM     21  C   UNL     1       5.220   4.072  15.635  0.00  0.00    +0.000 A 
ATOM     22  C   UNL     1       5.853   4.071  14.397  0.00  0.00    +0.000 A 
ATOM     23  C   UNL     1       7.010   4.815  14.253  0.00  0.00    +0.000 A 
ATOM     24  N   UNL     1       7.562   5.544  15.247  0.00  0.00    +0.000 NA
ATOM     25  C   UNL     1       6.925   5.526  16.440  0.00  0.00    +0.000 A 
ENDBRANCH  19  20
ENDBRANCH  17  19
ENDBRANCH   1  16
BRANCH  10  26
ATOM     26  O   UNL     1       1.807   7.438  21.251  0.00  0.00    +0.000 OA
ATOM     27  H   UNL     1       1.287   8.016  21.841  0.00  0.00    +0.000 HD
ENDBRANCH  10  26
TORSDOF 4
ENDMDL
MODEL 3
REMARK VINA RESULT:      -7.9      2.384      3.257
REMARK  Name = 
REMARK  4 active torsions:
REMARK  status: ('A' for Active; 'I' for Inactive)
REMARK    1  A    between atoms: C_2  and  C_11
REMARK    2  A    between atoms: N_3  and  C_4
REMARK    3  A    between atoms: C_4  and  C_5
REMARK    4  A    between atoms: C_20  and  O_21
REMARK                            x       y       z     vdW  Elec       q    Type
REMARK                         _______ _______ _______ _____ _____    ______ ____
ROOT
ATOM      1  C   UNL     1       0.982   9.168  20.542  0.00  0.00    +0.000 A 
ATOM      2  C   UNL     1       1.202   9.142  21.910  0.00  0.00    +0.000 A 
ATOM      3  N   UNL     1       0.417   9.774  22.814  0.00  0.00    +0.000 NA
ATOM      4  C   UNL     1      -0.530  10.612  22.359  0.00  0.00    +0.000 A 
ATOM      5  C   UNL     1      -1.443  11.138  23.256  0.00  0.00    +0.000 A 
ATOM      6  C   UNL     1      -2.317  12.137  22.863  0.00  0.00    +0.000 A 
ATOM      7  C   UNL     1      -2.144  12.732  21.614  0.00  0.00    +0.000 A 
ATOM      8  C   UNL     1      -1.419  12.068  20.638  0.00  0.00    +0.000 A 
ATOM      9  C   UNL     1      -0.651  10.931  20.999  0.00  0.00    +0.000 A 
ATOM     10  C   UNL     1       0.007  10.064  20.088  0.00  0.00    +0.000 A 
ATOM     11  O   UNL     1      -2.645  13.983  21.334  0.00  0.00    +0.000 OA
ATOM     12  C   UNL     1      -3.146  14.586  22.549  0.00  0.00    +0.000 C 
ATOM     13  C   UNL     1      -4.101  13.581  23.167  0.00  0.00    +0.000 C 
ATOM     14  O   UNL     1      -3.297  12.534  23.741  0.00  0.00    +0.000 OA
ENDROOT
BRANCH   1  16
ATOM     15  O   UNL     1       2.077   8.464  18.580  0.00  0.00    +0.000 OA
ATOM     16  C   UNL     1       1.735   8.178  19.731  0.00  0.00    +0.000 C 
ATOM     17  N   UNL     1       2.073   6.988  20.324  0.00  0.00    +0.000 N 
ATOM     18  H   UNL     1       1.726   6.797  21.258  0.00  0.00    +0.000 HD
BRANCH  17  19
ATOM     19  C   UNL     1       2.984   6.048  19.715  0.00  0.00    +0.000 C 
BRANCH  19  20
ATOM     20  C   UNL     1       2.297   4.769  19.346  0.00  0.00    +0.000 A 
ATOM     21  C   UNL     1       1.443   4.123  20.244  0.00  0.00    +0.000 A 
ATOM     22  C   UNL     1       0.812   2.941  19.872  0.00  0.00    +0.000 A 
ATOM     23  C   UNL     1       1.049   2.444  18.603  0.00  0.00    +0.000 A 
ATOM     24  N   UNL     1       1.859   3.042  17.701  0.00  0.00    +0.000 NA
ATOM     25  C   UNL     1       2.459   4.190  18.091  0.00  0.00    +0.000 A 
ENDBRANCH  19  20
ENDBRANCH  17  19
ENDBRANCH   1  16
BRANCH  10  26
ATOM     26  O   UNL     1      -0.380  10.052  18.773  0.00  0.00    +0.000 OA
ATOM     27  H   UNL     1      -1.034  10.768  18.661  0.00  0.00    +0.000 HD
ENDBRANCH  10  26
TORSDOF 4
ENDMDL
MODEL 4
REMARK VINA RESULT:      -7.8      6.171      7.813
REMARK  Name = 
REMARK  4 active torsions:
REMARK  status: ('A' for Active; 'I' for Inactive)
REMARK    1  A    between atoms: C_2  and  C_11
REMARK    2  A    between atoms: N_3  and  C_4
REMARK    3  A    between atoms: C_4  and  C_5
REMARK    4  A    between atoms: C_20  and  O_21
REMARK                            x       y       z     vdW  Elec       q    Type
REMARK                         _______ _______ _______ _____ _____    ______ ____
ROOT
ATOM      1  C   UNL     1       6.671   6.604  18.071  0.00  0.00    +0.000 A 
ATOM      2  C   UNL     1       7.113   5.838  19.138  0.00  0.00    +0.000 A 
ATOM      3  N   UNL     1       6.455   4.756  19.616  0.00  0.00    +0.000 NA
ATOM      4  C   UNL     1       5.222   4.502  19.146  0.00  0.00    +0.000 A 
ATOM      5  C   UNL     1       4.603   3.316  19.501  0.00  0.00    +0.000 A 
ATOM      6  C   UNL     1       3.272   3.099  19.188  0.00  0.00    +0.000 A 
ATOM      7  C   UNL     1       2.518   4.154  18.678  0.00  0.00    +0.000 A 
ATOM      8  C   UNL     1       3.162   5.237  18.101  0.00  0.00    +0.000 A 
ATOM      9  C   UNL     1       4.563   5.378  18.272  0.00  0.00    +0.000 A 
ATOM     10  C   UNL     1       5.376   6.338  17.612  0.00  0.00    +0.000 A 
ATOM     11  O   UNL     1       1.145   4.168  18.764  0.00  0.00    +0.000 OA
ATOM     12  C   UNL     1       0.701   3.078  19.605  0.00  0.00    +0.000 C 
ATOM     13  C   UNL     1       1.347   1.819  19.054  0.00  0.00    +0.000 C 
ATOM     14  O   UNL     1       2.736   1.858  19.434  0.00  0.00    +0.000 OA
ENDROOT
BRANCH   1  16
ATOM     15  O   UNL     1       8.136   7.309  16.368  0.00  0.00    +0.000 OA
ATOM     16  C   UNL     1       7.654   7.546  17.479  0.00  0.00    +0.000 C 
ATOM     17  N   UNL     1       7.948   8.689  18.179  0.00  0.00    +0.000 N 
ATOM     18  H   UNL     1       7.551   8.804  19.105  0.00  0.00    +0.000 HD
BRANCH  17  19
ATOM     19  C   UNL     1       8.713   9.773  17.609  0.00  0.00    +0.000 C 
BRANCH  19  20
ATOM     20  C   UNL     1       9.403  10.580  18.666  0.00  0.00    +0.000 A 
ATOM     21  C   UNL     1      10.465  11.430  18.347  0.00  0.00    +0.000 A 
ATOM     22  C   UNL     1      11.082  12.173  19.348  0.00  0.00    +0.000 A 
ATOM     23  C   UNL     1      10.609  12.048  20.642  0.00  0.00    +0.000 A 
ATOM     24  N   UNL     1       9.580  11.246  20.991  0.00  0.00    +0.000 NA
ATOM     25  C   UNL     1       8.999  10.535  19.997  0.00  0.00    +0.000 A 
ENDBRANCH  19  20
ENDBRANCH  17  19
ENDBRANCH   1  16
BRANCH  10  26
ATOM     26  O   UNL     1       4.912   6.941  16.472  0.00  0.00    +0.000 OA
ATOM     27  H   UNL     1       3.942   6.831  16.464  0.00  0.00    +0.000 HD
ENDBRANCH  10  26
TORSDOF 4
ENDMDL
MODEL 5
REMARK VINA RESULT:      -7.7      1.456      2.053
REMARK  Name = 
REMARK  4 active torsions:
REMARK  status: ('A' for Active; 'I' for Inactive)
REMARK    1  A    between atoms: C_2  and  C_11
REMARK    2  A    between atoms: N_3  and  C_4
REMARK    3  A    between atoms: C_4  and  C_5
REMARK    4  A    between atoms: C_20  and  O_21
REMARK                            x       y       z     vdW  Elec       q    Type
REMARK                         _______ _______ _______ _____ _____    ______ ____
ROOT
ATOM      1  C   UNL     1       1.696   8.380  19.216  0.00  0.00    +0.000 A 
ATOM      2  C   UNL     1       1.335   9.347  18.291  0.00  0.00    +0.000 A 
ATOM      3  N   UNL     1       0.786  10.540  18.620  0.00  0.00    +0.000 NA
ATOM      4  C   UNL     1       0.413  10.739  19.895  0.00  0.00    +0.000 A 
ATOM      5  C   UNL     1       0.002  12.003  20.281  0.00  0.00    +0.000 A 
ATOM      6  C   UNL     1      -0.557  12.207  21.530  0.00  0.00    +0.000 A 
ATOM      7  C   UNL     1      -0.870  11.102  22.319  0.00  0.00    +0.000 A 
ATOM      8  C   UNL     1      -0.256   9.886  22.062  0.00  0.00    +0.000 A 
ATOM      9  C   UNL     1       0.470   9.719  20.856  0.00  0.00    +0.000 A 
ATOM     10  C   UNL     1       1.277   8.597  20.534  0.00  0.00    +0.000 A 
ATOM     11  O   UNL     1      -1.803  11.175  23.327  0.00  0.00    +0.000 OA
ATOM     12  C   UNL     1      -2.486  12.448  23.264  0.00  0.00    +0.000 C 
ATOM     13  C   UNL     1      -1.406  13.515  23.243  0.00  0.00    +0.000 C 
ATOM     14  O   UNL     1      -0.823  13.497  21.927  0.00  0.00    +0.000 OA
ENDROOT
BRANCH   1  16
ATOM     15  O   UNL     1       2.396   6.134  19.143  0.00  0.00    +0.000 OA
ATOM     16  C   UNL     1       2.564   7.281  18.722  0.00  0.00    +0.000 C 
ATOM     17  N   UNL     1       3.494   7.583  17.760  0.00  0.00    +0.000 N 
ATOM     18  H   UNL     1       3.610   8.552  17.486  0.00  0.00    +0.000 HD
BRANCH  17  19
ATOM     19  C   UNL     1       4.236   6.566  17.052  0.00  0.00    +0.000 C 
BRANCH  19  20
ATOM     20  C   UNL     1       5.547   6.274  17.714  0.00  0.00    +0.000 A 
ATOM     21  C   UNL     1       6.668   7.077  17.483  0.00  0.00    +0.000 A 
ATOM     22  C   UNL     1       7.871   6.787  18.118  0.00  0.00    +0.000 A 
ATOM     23  C   UNL     1       7.913   5.703  18.977  0.00  0.00    +0.000 A 
ATOM     24  N   UNL     1       6.851   4.909  19.236  0.00  0.00    +0.000 NA
ATOM     25  C   UNL     1       5.695   5.214  18.604  0.00  0.00    +0.000 A 
ENDBRANCH  19  20
ENDBRANCH  17  19
ENDBRANCH   1  16
BRANCH  10  26
ATOM     26  O   UNL     1       1.713   7.772  21.539  0.00  0.00    +0.000 OA
ATOM     27  H   UNL     1       1.496   6.858  21.272  0.00  0.00    +0.000 HD
ENDBRANCH  10  26
TORSDOF 4
ENDMDL
MODEL 6
REMARK VINA RESULT:      -7.6      0.666      1.000
REMARK  Name = 
REMARK  4 active torsions:
REMARK  status: ('A' for Active; 'I' for Inactive)
REMARK    1  A    between atoms: C_2  and  C_11
REMARK    2  A    between atoms: N_3  and  C_4
REMARK    3  A    between atoms: C_4  and  C_5
REMARK    4  A    between atoms: C_20  and  O_21
REMARK                            x       y       z     vdW  Elec       q    Type
REMARK                         _______ _______ _______ _____ _____    ______ ____
ROOT
ATOM      1  C   UNL     1       1.729   8.558  19.390  0.00  0.00    +0.000 A 
ATOM      2  C   UNL     1       1.677   7.922  20.620  0.00  0.00    +0.000 A 
ATOM      3  N   UNL     1       0.916   8.342  21.657  0.00  0.00    +0.000 NA
ATOM      4  C   UNL     1       0.302   9.533  21.555  0.00  0.00    +0.000 A 
ATOM      5  C   UNL     1      -0.606   9.902  22.532  0.00  0.00    +0.000 A 
ATOM      6  C   UNL     1      -1.122  11.187  22.560  0.00  0.00    +0.000 A 
ATOM      7  C   UNL     1      -0.581  12.150  21.712  0.00  0.00    +0.000 A 
ATOM      8  C   UNL     1       0.130  11.750  20.591  0.00  0.00    +0.000 A 
ATOM      9  C   UNL     1       0.518  10.391  20.467  0.00  0.00    +0.000 A 
ATOM     10  C   UNL     1       1.103   9.808  19.313  0.00  0.00    +0.000 A 
ATOM     11  O   UNL     1      -0.701  13.495  21.975  0.00  0.00    +0.000 OA
ATOM     12  C   UNL     1      -1.258  13.681  23.297  0.00  0.00    +0.000 C 
ATOM     13  C   UNL     1      -2.526  12.850  23.351  0.00  0.00    +0.000 C 
ATOM     14  O   UNL     1      -2.122  11.472  23.459  0.00  0.00    +0.000 OA
ENDROOT
BRANCH   1  16
ATOM     15  O   UNL     1       2.576   8.365  17.202  0.00  0.00    +0.000 OA
ATOM     16  C   UNL     1       2.356   7.801  18.277  0.00  0.00    +0.000 C 
ATOM     17  N   UNL     1       2.720   6.500  18.514  0.00  0.00    +0.000 N 
ATOM     18  H   UNL     1       2.473   6.082  19.405  0.00  0.00    +0.000 HD
BRANCH  17  19
ATOM     19  C   UNL     1       3.529   5.740  17.589  0.00  0.00    +0.000 C 
BRANCH  19  20
ATOM     20  C   UNL     1       4.991   5.981  17.804  0.00  0.00    +0.000 A 
ATOM     21  C   UNL     1       5.657   5.446  18.910  0.00  0.00    +0.000 A 
ATOM     22  C   UNL     1       7.018   5.679  19.079  0.00  0.00    +0.000 A 
ATOM     23  C   UNL     1       7.675   6.436  18.126  0.00  0.00    +0.000 A 
ATOM     24  N   UNL     1       7.072   6.963  17.038  0.00  0.00    +0.000 NA
ATOM     25  C   UNL     1       5.749   6.720  16.900  0.00  0.00    +0.000 A 
ENDBRANCH  19  20
ENDBRANCH  17  19
ENDBRANCH   1  16
BRANCH  10  26
ATOM     26  O   UNL     1       0.976  10.440  18.103  0.00  0.00    +0.000 OA
ATOM     27  H   UNL     1       1.082   9.759  17.411  0.00  0.00    +0.000 HD
ENDBRANCH  10  26
TORSDOF 4
ENDMDL
MODEL 7
REMARK VINA RESULT:      -7.6      1.782      2.464
REMARK  Name = 
REMARK  4 active torsions:
REMARK  status: ('A' for Active; 'I' for Inactive)
REMARK    1  A    between atoms: C_2  and  C_11
REMARK    2  A    between atoms: N_3  and  C_4
REMARK    3  A    between atoms: C_4  and  C_5
REMARK    4  A    between atoms: C_20  and  O_21
REMARK                            x       y       z     vdW  Elec       q    Type
REMARK                         _______ _______ _______ _____ _____    ______ ____
ROOT
ATOM      1  C   UNL     1       1.424   9.076  19.585  0.00  0.00    +0.000 A 
ATOM      2  C   UNL     1       1.419   8.453  20.822  0.00  0.00    +0.000 A 
ATOM      3  N   UNL     1       0.662   8.859  21.869  0.00  0.00    +0.000 NA
ATOM      4  C   UNL     1       0.004  10.026  21.765  0.00  0.00    +0.000 A 
ATOM      5  C   UNL     1      -0.898  10.375  22.755  0.00  0.00    +0.000 A 
ATOM      6  C   UNL     1      -1.459  11.640  22.777  0.00  0.00    +0.000 A 
ATOM      7  C   UNL     1      -0.969  12.612  21.907  0.00  0.00    +0.000 A 
ATOM      8  C   UNL     1      -0.265  12.223  20.778  0.00  0.00    +0.000 A 
ATOM      9  C   UNL     1       0.169  10.877  20.663  0.00  0.00    +0.000 A 
ATOM     10  C   UNL     1       0.752  10.301  19.505  0.00  0.00    +0.000 A 
ATOM     11  O   UNL     1      -1.132  13.955  22.157  0.00  0.00    +0.000 OA
ATOM     12  C   UNL     1      -1.671  14.137  23.487  0.00  0.00    +0.000 C 
ATOM     13  C   UNL     1      -2.907  13.261  23.575  0.00  0.00    +0.000 C 
ATOM     14  O   UNL     1      -2.452  11.900  23.692  0.00  0.00    +0.000 OA
ENDROOT
BRANCH   1  16
ATOM     15  O   UNL     1       2.202   8.873  17.372  0.00  0.00    +0.000 OA
ATOM     16  C   UNL     1       2.057   8.327  18.469  0.00  0.00    +0.000 C 
ATOM     17  N   UNL     1       2.512   7.059  18.726  0.00  0.00    +0.000 N 
ATOM     18  H   UNL     1       2.325   6.652  19.636  0.00  0.00    +0.000 HD
BRANCH  17  19
ATOM     19  C   UNL     1       3.333   6.325  17.791  0.00  0.00    +0.000 C 
BRANCH  19  20
ATOM     20  C   UNL     1       3.060   4.853  17.851  0.00  0.00    +0.000 A 
ATOM     21  C   UNL     1       1.775   4.367  18.107  0.00  0.00    +0.000 A 
ATOM     22  C   UNL     1       1.549   2.995  18.148  0.00  0.00    +0.000 A 
ATOM     23  C   UNL     1       2.620   2.148  17.921  0.00  0.00    +0.000 A 
ATOM     24  N   UNL     1       3.874   2.577  17.660  0.00  0.00    +0.000 NA
ATOM     25  C   UNL     1       4.064   3.916  17.626  0.00  0.00    +0.000 A 
ENDBRANCH  19  20
ENDBRANCH  17  19
ENDBRANCH   1  16
BRANCH  10  26
ATOM     26  O   UNL     1       0.581  10.913  18.290  0.00  0.00    +0.000 OA
ATOM     27  H   UNL     1       1.458  10.951  17.862  0.00  0.00    +0.000 HD
ENDBRANCH  10  26
TORSDOF 4
ENDMDL
MODEL 8
REMARK VINA RESULT:      -7.6      1.759      2.418
REMARK  Name = 
REMARK  4 active torsions:
REMARK  status: ('A' for Active; 'I' for Inactive)
REMARK    1  A    between atoms: C_2  and  C_11
REMARK    2  A    between atoms: N_3  and  C_4
REMARK    3  A    between atoms: C_4  and  C_5
REMARK    4  A    between atoms: C_20  and  O_21
REMARK                            x       y       z     vdW  Elec       q    Type
REMARK                         _______ _______ _______ _____ _____    ______ ____
ROOT
ATOM      1  C   UNL     1       1.444   9.113  19.645  0.00  0.00    +0.000 A 
ATOM      2  C   UNL     1       1.278   8.431  20.839  0.00  0.00    +0.000 A 
ATOM      3  N   UNL     1       0.511   8.876  21.863  0.00  0.00    +0.000 NA
ATOM      4  C   UNL     1       0.015  10.123  21.792  0.00  0.00    +0.000 A 
ATOM      5  C   UNL     1      -0.899  10.533  22.746  0.00  0.00    +0.000 A 
ATOM      6  C   UNL     1      -1.295  11.858  22.814  0.00  0.00    +0.000 A 
ATOM      7  C   UNL     1      -0.629  12.803  22.035  0.00  0.00    +0.000 A 
ATOM      8  C   UNL     1       0.093  12.386  20.928  0.00  0.00    +0.000 A 
ATOM      9  C   UNL     1       0.359  11.003  20.756  0.00  0.00    +0.000 A 
ATOM     10  C   UNL     1       0.940  10.418  19.601  0.00  0.00    +0.000 A 
ATOM     11  O   UNL     1      -0.637  14.140  22.357  0.00  0.00    +0.000 OA
ATOM     12  C   UNL     1      -1.234  14.320  23.662  0.00  0.00    +0.000 C 
ATOM     13  C   UNL     1      -2.575  13.610  23.623  0.00  0.00    +0.000 C 
ATOM     14  O   UNL     1      -2.305  12.197  23.683  0.00  0.00    +0.000 OA
ENDROOT
BRANCH   1  16
ATOM     15  O   UNL     1       1.979   8.791  17.374  0.00  0.00    +0.000 OA
ATOM     16  C   UNL     1       2.049   8.349  18.524  0.00  0.00    +0.000 C 
ATOM     17  N   UNL     1       2.721   7.192  18.827  0.00  0.00    +0.000 N 
ATOM     18  H   UNL     1       2.706   6.860  19.786  0.00  0.00    +0.000 HD
BRANCH  17  19
ATOM     19  C   UNL     1       3.529   6.487  17.860  0.00  0.00    +0.000 C 
BRANCH  19  20
ATOM     20  C   UNL     1       3.180   5.032  17.800  0.00  0.00    +0.000 A 
ATOM     21  C   UNL     1       4.174   4.053  17.717  0.00  0.00    +0.000 A 
ATOM     22  C   UNL     1       3.820   2.709  17.671  0.00  0.00    +0.000 A 
ATOM     23  C   UNL     1       2.477   2.383  17.720  0.00  0.00    +0.000 A 
ATOM     24  N   UNL     1       1.486   3.297  17.812  0.00  0.00    +0.000 NA
ATOM     25  C   UNL     1       1.859   4.596  17.854  0.00  0.00    +0.000 A 
ENDBRANCH  19  20
ENDBRANCH  17  19
ENDBRANCH   1  16
BRANCH  10  26
ATOM     26  O   UNL     1       0.928  11.111  18.418  0.00  0.00    +0.000 OA
ATOM     27  H   UNL     1       1.463  10.599  17.781  0.00  0.00    +0.000 HD
ENDBRANCH  10  26
TORSDOF 4
ENDMDL
MODEL 9
REMARK VINA RESULT:      -7.5      2.238      3.137
REMARK  Name = 
REMARK  4 active torsions:
REMARK  status: ('A' for Active; 'I' for Inactive)
REMARK    1  A    between atoms: C_2  and  C_11
REMARK    2  A    between atoms: N_3  and  C_4
REMARK    3  A    between atoms: C_4  and  C_5
REMARK    4  A    between atoms: C_20  and  O_21
REMARK                            x       y       z     vdW  Elec       q    Type
REMARK                         _______ _______ _______ _____ _____    ______ ____
ROOT
ATOM      1  C   UNL     1       1.921   8.305  18.740  0.00  0.00    +0.000 A 
ATOM      2  C   UNL     1       1.537   9.331  17.892  0.00  0.00    +0.000 A 
ATOM      3  N   UNL     1       0.996  10.498  18.314  0.00  0.00    +0.000 NA
ATOM      4  C   UNL     1       0.654  10.610  19.608  0.00  0.00    +0.000 A 
ATOM      5  C   UNL     1       0.252  11.845  20.088  0.00  0.00    +0.000 A 
ATOM      6  C   UNL     1      -0.277  11.962  21.362  0.00  0.00    +0.000 A 
ATOM      7  C   UNL     1      -0.570  10.806  22.082  0.00  0.00    +0.000 A 
ATOM      8  C   UNL     1       0.038   9.611  21.728  0.00  0.00    +0.000 A 
ATOM      9  C   UNL     1       0.735   9.528  20.496  0.00  0.00    +0.000 A 
ATOM     10  C   UNL     1       1.534   8.431  20.079  0.00  0.00    +0.000 A 
ATOM     11  O   UNL     1      -1.479  10.808  23.115  0.00  0.00    +0.000 OA
ATOM     12  C   UNL     1      -2.163  12.081  23.155  0.00  0.00    +0.000 C 
ATOM     13  C   UNL     1      -1.085  13.149  23.179  0.00  0.00    +0.000 C 
ATOM     14  O   UNL     1      -0.533  13.221  21.851  0.00  0.00    +0.000 OA
ENDROOT
BRANCH   1  16
ATOM     15  O   UNL     1       3.903   7.528  17.734  0.00  0.00    +0.000 OA
ATOM     16  C   UNL     1       2.777   7.244  18.152  0.00  0.00    +0.000 C 
ATOM     17  N   UNL     1       2.293   5.960  18.149  0.00  0.00    +0.000 N 
ATOM     18  H   UNL     1       1.344   5.799  18.469  0.00  0.00    +0.000 HD
BRANCH  17  19
ATOM     19  C   UNL     1       3.115   4.822  17.809  0.00  0.00    +0.000 C 
BRANCH  19  20
ATOM     20  C   UNL     1       3.305   3.905  18.978  0.00  0.00    +0.000 A 
ATOM     21  C   UNL     1       2.324   3.782  19.966  0.00  0.00    +0.000 A 
ATOM     22  C   UNL     1       2.525   2.917  21.037  0.00  0.00    +0.000 A 
ATOM     23  C   UNL     1       3.702   2.192  21.081  0.00  0.00    +0.000 A 
ATOM     24  N   UNL     1       4.670   2.274  20.142  0.00  0.00    +0.000 NA
ATOM     25  C   UNL     1       4.448   3.123  19.113  0.00  0.00    +0.000 A 
ENDBRANCH  19  20
ENDBRANCH  17  19
ENDBRANCH   1  16
BRANCH  10  26
ATOM     26  O   UNL     1       1.995   7.541  21.015  0.00  0.00    +0.000 OA
ATOM     27  H   UNL     1       2.795   7.123  20.643  0.00  0.00    +0.000 HD
ENDBRANCH  10  26
TORSDOF 4
ENDMDL
