MODEL 1
REMARK VINA RESULT:      -7.9      0.000      0.000
REMARK  Name = 
REMARK  5 active torsions:
REMARK  status: ('A' for Active; 'I' for Inactive)
REMARK    1  A    between atoms: O_1  and  N_2
REMARK    2  A    between atoms: C_3  and  C_11
REMARK    3  A    between atoms: N_4  and  C_5
REMARK    4  A    between atoms: C_16  and  O_17
REMARK    5  A    between atoms: O_17  and  C_18
REMARK                            x       y       z     vdW  Elec       q    Type
REMARK                         _______ _______ _______ _____ _____    ______ ____
ROOT
ATOM      1  C   UNL     1       3.362   7.273  17.925  0.00  0.00    +0.000 A 
ATOM      2  C   UNL     1       2.714   8.467  17.535  0.00  0.00    +0.000 A 
ATOM      3  C   UNL     1       1.752   9.062  18.343  0.00  0.00    +0.000 A 
ATOM      4  C   UNL     1       1.490   8.480  19.564  0.00  0.00    +0.000 A 
ATOM      5  N   UNL     1       2.100   7.359  19.996  0.00  0.00    +0.000 NA
ATOM      6  C   UNL     1       2.982   6.738  19.154  0.00  0.00    +0.000 A 
ENDROOT
BRANCH   1   8
ATOM      7  N   UNL     1       4.333   7.224  15.774  0.00  0.00    +0.000 NA
ATOM      8  C   UNL     1       4.411   6.726  16.975  0.00  0.00    +0.000 C 
ATOM      9  N   UNL     1       5.356   5.834  17.460  0.00  0.00    +0.000 N 
ATOM     10  H   UNL     1       5.103   5.284  18.275  0.00  0.00    +0.000 HD
BRANCH   9  11
ATOM     11  C   UNL     1       6.734   5.684  16.989  0.00  0.00    +0.000 C 
ATOM     12  C   UNL     1       7.407   7.042  16.713  0.00  0.00    +0.000 C 
ATOM     13  C   UNL     1       7.646   7.847  17.990  0.00  0.00    +0.000 C 
ATOM     14  C   UNL     1       8.468   7.058  19.001  0.00  0.00    +0.000 C 
ATOM     15  C   UNL     1       7.860   5.687  19.289  0.00  0.00    +0.000 C 
ATOM     16  C   UNL     1       7.571   4.899  18.012  0.00  0.00    +0.000 C 
ENDBRANCH   9  11
BRANCH   7  17
ATOM     17  O   UNL     1       5.268   6.721  14.872  0.00  0.00    +0.000 OA
ATOM     18  H   UNL     1       5.095   5.764  14.907  0.00  0.00    +0.000 HD
ENDBRANCH   7  17
ENDBRANCH   1   8
BRANCH   6  19
ATOM     19  O   UNL     1       3.472   5.498  19.558  0.00  0.00    +0.000 OA
BRANCH  19  20
ATOM     20  C   UNL     1       2.561   4.456  19.562  0.00  0.00    +0.000 A 
ATOM     21  C   UNL     1       2.127   3.809  18.401  0.00  0.00    +0.000 A 
ATOM     22  F   UNL     1       2.629   4.143  17.202  0.00  0.00    +0.000 F 
ATOM     23  C   UNL     1       1.157   2.805  18.450  0.00  0.00    +0.000 A 
ATOM     24  C   UNL     1       0.645   2.391  19.678  0.00  0.00    +0.000 A 
ATOM     25  C   UNL     1       1.117   2.982  20.853  0.00  0.00    +0.000 A 
ATOM     26  C   UNL     1       2.067   4.008  20.785  0.00  0.00    +0.000 A 
ATOM     27  F   UNL     1       2.496   4.561  21.930  0.00  0.00    +0.000 F 
ENDBRANCH  19  20
ENDBRANCH   6  19
TORSDOF 5
ENDMDL
MODEL 2
REMARK VINA RESULT:      -7.8      0.601      1.082
REMARK  Name = 
REMARK  5 active torsions:
REMARK  status: ('A' for Active; 'I' for Inactive)
REMARK    1  A    between atoms: O_1  and  N_2
REMARK    2  A    between atoms: C_3  and  C_11
REMARK    3  A    between atoms: N_4  and  C_5
REMARK    4  A    between atoms: C_16  and  O_17
REMARK    5  A    between atoms: O_17  and  C_18
REMARK                            x       y       z     vdW  Elec       q    Type
REMARK                         _______ _______ _______ _____ _____    ______ ____
ROOT
ATOM      1  C   UNL     1       3.047   7.695  18.192  0.00  0.00    +0.000 A 
ATOM      2  C   UNL     1       2.307   8.863  17.897  0.00  0.00    +0.000 A 
ATOM      3  C   UNL     1       1.322   9.329  18.759  0.00  0.00    +0.000 A 
ATOM      4  C   UNL     1       1.127   8.648  19.940  0.00  0.00    +0.000 A 
ATOM      5  N   UNL     1       1.825   7.547  20.284  0.00  0.00    +0.000 NA
ATOM      6  C   UNL     1       2.731   7.051  19.387  0.00  0.00    +0.000 A 
ENDROOT
BRANCH   1   8
ATOM      7  N   UNL     1       3.834   7.646  15.968  0.00  0.00    +0.000 NA
ATOM      8  C   UNL     1       4.112   7.293  17.190  0.00  0.00    +0.000 C 
ATOM      9  N   UNL     1       5.263   6.669  17.648  0.00  0.00    +0.000 N 
ATOM     10  H   UNL     1       5.201   6.158  18.523  0.00  0.00    +0.000 HD
BRANCH   9  11
ATOM     11  C   UNL     1       6.600   6.768  17.059  0.00  0.00    +0.000 C 
ATOM     12  C   UNL     1       7.679   7.084  18.112  0.00  0.00    +0.000 C 
ATOM     13  C   UNL     1       7.901   5.930  19.089  0.00  0.00    +0.000 C 
ATOM     14  C   UNL     1       8.254   4.640  18.358  0.00  0.00    +0.000 C 
ATOM     15  C   UNL     1       7.230   4.295  17.279  0.00  0.00    +0.000 C 
ATOM     16  C   UNL     1       6.965   5.464  16.331  0.00  0.00    +0.000 C 
ENDBRANCH   9  11
BRANCH   7  17
ATOM     17  O   UNL     1       4.783   7.267  15.021  0.00  0.00    +0.000 OA
ATOM     18  H   UNL     1       5.182   8.120  14.775  0.00  0.00    +0.000 HD
ENDBRANCH   7  17
ENDBRANCH   1   8
BRANCH   6  19
ATOM     19  O   UNL     1       3.317   5.825  19.696  0.00  0.00    +0.000 OA
BRANCH  19  20
ATOM     20  C   UNL     1       2.494   4.716  19.595  0.00  0.00    +0.000 A 
ATOM     21  C   UNL     1       2.134   4.133  18.376  0.00  0.00    +0.000 A 
ATOM     22  F   UNL     1       2.627   4.604  17.219  0.00  0.00    +0.000 F 
ATOM     23  C   UNL     1       1.249   3.053  18.321  0.00  0.00    +0.000 A 
ATOM     24  C   UNL     1       0.753   2.500  19.500  0.00  0.00    +0.000 A 
ATOM     25  C   UNL     1       1.156   3.029  20.729  0.00  0.00    +0.000 A 
ATOM     26  C   UNL     1       2.019   4.130  20.766  0.00  0.00    +0.000 A 
ATOM     27  F   UNL     1       2.383   4.621  21.961  0.00  0.00    +0.000 F 
ENDBRANCH  19  20
ENDBRANCH   6  19
TORSDOF 5
ENDMDL
MODEL 3
REMARK VINA RESULT:      -7.8      0.089      1.653
REMARK  Name = 
REMARK  5 active torsions:
REMARK  status: ('A' for Active; 'I' for Inactive)
REMARK    1  A    between atoms: O_1  and  N_2
REMARK    2  A    between atoms: C_3  and  C_11
REMARK    3  A    between atoms: N_4  and  C_5
REMARK    4  A    between atoms: C_16  and  O_17
REMARK    5  A    between atoms: O_17  and  C_18
REMARK                            x       y       z     vdW  Elec       q    Type
REMARK                         _______ _______ _______ _____ _____    ______ ____
ROOT
ATOM      1  C   UNL     1       3.360   7.267  17.943  0.00  0.00    +0.000 A 
ATOM      2  C   UNL     1       2.703   8.468  17.591  0.00  0.00    +0.000 A 
ATOM      3  C   UNL     1       1.743   9.034  18.421  0.00  0.00    +0.000 A 
ATOM      4  C   UNL     1       1.490   8.416  19.626  0.00  0.00    +0.000 A 
ATOM      5  N   UNL     1       2.110   7.286  20.023  0.00  0.00    +0.000 NA
ATOM      6  C   UNL     1       2.990   6.695  19.159  0.00  0.00    +0.000 A 
ENDROOT
BRANCH   1   8
ATOM      7  N   UNL     1       4.326   7.293  15.790  0.00  0.00    +0.000 NA
ATOM      8  C   UNL     1       4.406   6.754  16.972  0.00  0.00    +0.000 C 
ATOM      9  N   UNL     1       5.352   5.845  17.423  0.00  0.00    +0.000 N 
ATOM     10  H   UNL     1       5.101   5.266  18.218  0.00  0.00    +0.000 HD
BRANCH   9  11
ATOM     11  C   UNL     1       6.730   5.711  16.944  0.00  0.00    +0.000 C 
ATOM     12  C   UNL     1       7.405   7.078  16.723  0.00  0.00    +0.000 C 
ATOM     13  C   UNL     1       7.648   7.830  18.031  0.00  0.00    +0.000 C 
ATOM     14  C   UNL     1       8.470   6.998  19.008  0.00  0.00    +0.000 C 
ATOM     15  C   UNL     1       7.859   5.618  19.240  0.00  0.00    +0.000 C 
ATOM     16  C   UNL     1       7.566   4.883  17.932  0.00  0.00    +0.000 C 
ENDBRANCH   9  11
BRANCH   7  17
ATOM     17  O   UNL     1       5.259   6.823  14.869  0.00  0.00    +0.000 OA
ATOM     18  H   UNL     1       5.017   5.883  14.790  0.00  0.00    +0.000 HD
ENDBRANCH   7  17
ENDBRANCH   1   8
BRANCH   6  19
ATOM     19  O   UNL     1       3.489   5.447  19.524  0.00  0.00    +0.000 OA
BRANCH  19  20
ATOM     20  C   UNL     1       2.558   4.428  19.636  0.00  0.00    +0.000 A 
ATOM     21  C   UNL     1       2.062   3.970  20.861  0.00  0.00    +0.000 A 
ATOM     22  F   UNL     1       2.436   4.550  22.012  0.00  0.00    +0.000 F 
ATOM     23  C   UNL     1       1.171   2.896  20.926  0.00  0.00    +0.000 A 
ATOM     24  C   UNL     1       0.716   2.297  19.753  0.00  0.00    +0.000 A 
ATOM     25  C   UNL     1       1.152   2.787  18.518  0.00  0.00    +0.000 A 
ATOM     26  C   UNL     1       2.068   3.844  18.471  0.00  0.00    +0.000 A 
ATOM     27  F   UNL     1       2.473   4.288  17.271  0.00  0.00    +0.000 F 
ENDBRANCH  19  20
ENDBRANCH   6  19
TORSDOF 5
ENDMDL
MODEL 4
REMARK VINA RESULT:      -7.6      0.607      1.971
REMARK  Name = 
REMARK  5 active torsions:
REMARK  status: ('A' for Active; 'I' for Inactive)
REMARK    1  A    between atoms: O_1  and  N_2
REMARK    2  A    between atoms: C_3  and  C_11
REMARK    3  A    between atoms: N_4  and  C_5
REMARK    4  A    between atoms: C_16  and  O_17
REMARK    5  A    between atoms: O_17  and  C_18
REMARK                            x       y       z     vdW  Elec       q    Type
REMARK                         _______ _______ _______ _____ _____    ______ ____
ROOT
ATOM      1  C   UNL     1       3.053   7.655  18.214  0.00  0.00    +0.000 A 
ATOM      2  C   UNL     1       2.315   8.830  17.940  0.00  0.00    +0.000 A 
ATOM      3  C   UNL     1       1.329   9.279  18.810  0.00  0.00    +0.000 A 
ATOM      4  C   UNL     1       1.130   8.574  19.976  0.00  0.00    +0.000 A 
ATOM      5  N   UNL     1       1.826   7.465  20.299  0.00  0.00    +0.000 NA
ATOM      6  C   UNL     1       2.733   6.987  19.394  0.00  0.00    +0.000 A 
ENDROOT
BRANCH   1   8
ATOM      7  N   UNL     1       3.838   7.635  15.988  0.00  0.00    +0.000 NA
ATOM      8  C   UNL     1       4.120   7.272  17.206  0.00  0.00    +0.000 C 
ATOM      9  N   UNL     1       5.278   6.653  17.657  0.00  0.00    +0.000 N 
ATOM     10  H   UNL     1       5.220   6.133  18.526  0.00  0.00    +0.000 HD
BRANCH   9  11
ATOM     11  C   UNL     1       6.613   6.769  17.067  0.00  0.00    +0.000 C 
ATOM     12  C   UNL     1       7.692   7.077  18.123  0.00  0.00    +0.000 C 
ATOM     13  C   UNL     1       7.922   5.910  19.082  0.00  0.00    +0.000 C 
ATOM     14  C   UNL     1       8.282   4.634  18.331  0.00  0.00    +0.000 C 
ATOM     15  C   UNL     1       7.259   4.298  17.248  0.00  0.00    +0.000 C 
ATOM     16  C   UNL     1       6.985   5.480  16.318  0.00  0.00    +0.000 C 
ENDBRANCH   9  11
BRANCH   7  17
ATOM     17  O   UNL     1       4.789   7.275  15.036  0.00  0.00    +0.000 OA
ATOM     18  H   UNL     1       5.607   7.239  15.563  0.00  0.00    +0.000 HD
ENDBRANCH   7  17
ENDBRANCH   1   8
BRANCH   6  19
ATOM     19  O   UNL     1       3.317   5.754  19.679  0.00  0.00    +0.000 OA
BRANCH  19  20
ATOM     20  C   UNL     1       2.461   4.667  19.700  0.00  0.00    +0.000 A 
ATOM     21  C   UNL     1       2.030   4.049  20.879  0.00  0.00    +0.000 A 
ATOM     22  F   UNL     1       2.395   4.531  22.078  0.00  0.00    +0.000 F 
ATOM     23  C   UNL     1       1.216   2.914  20.847  0.00  0.00    +0.000 A 
ATOM     24  C   UNL     1       0.772   2.410  19.626  0.00  0.00    +0.000 A 
ATOM     25  C   UNL     1       1.140   3.056  18.443  0.00  0.00    +0.000 A 
ATOM     26  C   UNL     1       1.980   4.174  18.490  0.00  0.00    +0.000 A 
ATOM     27  F   UNL     1       2.322   4.768  17.336  0.00  0.00    +0.000 F 
ENDBRANCH  19  20
ENDBRANCH   6  19
TORSDOF 5
ENDMDL
MODEL 5
REMARK VINA RESULT:      -7.5      2.213      4.466
REMARK  Name = 
REMARK  5 active torsions:
REMARK  status: ('A' for Active; 'I' for Inactive)
REMARK    1  A    between atoms: O_1  and  N_2
REMARK    2  A    between atoms: C_3  and  C_11
REMARK    3  A    between atoms: N_4  and  C_5
REMARK    4  A    between atoms: C_16  and  O_17
REMARK    5  A    between atoms: O_17  and  C_18
REMARK                            x       y       z     vdW  Elec       q    Type
REMARK                         _______ _______ _______ _____ _____    ______ ____
ROOT
ATOM      1  C   UNL     1       3.547   4.647  19.497  0.00  0.00    +0.000 A 
ATOM      2  C   UNL     1       3.224   3.300  19.214  0.00  0.00    +0.000 A 
ATOM      3  C   UNL     1       1.949   2.801  19.449  0.00  0.00    +0.000 A 
ATOM      4  C   UNL     1       0.992   3.675  19.916  0.00  0.00    +0.000 A 
ATOM      5  N   UNL     1       1.240   4.975  20.174  0.00  0.00    +0.000 NA
ATOM      6  C   UNL     1       2.520   5.431  20.019  0.00  0.00    +0.000 A 
ENDROOT
BRANCH   1   8
ATOM      7  N   UNL     1       5.832   4.738  20.084  0.00  0.00    +0.000 NA
ATOM      8  C   UNL     1       4.964   5.088  19.179  0.00  0.00    +0.000 C 
ATOM      9  N   UNL     1       5.210   5.741  17.979  0.00  0.00    +0.000 N 
ATOM     10  H   UNL     1       4.437   6.241  17.553  0.00  0.00    +0.000 HD
BRANCH   9  11
ATOM     11  C   UNL     1       6.446   5.685  17.196  0.00  0.00    +0.000 C 
ATOM     12  C   UNL     1       6.795   4.249  16.760  0.00  0.00    +0.000 C 
ATOM     13  C   UNL     1       5.805   3.689  15.739  0.00  0.00    +0.000 C 
ATOM     14  C   UNL     1       5.697   4.590  14.515  0.00  0.00    +0.000 C 
ATOM     15  C   UNL     1       5.381   6.035  14.893  0.00  0.00    +0.000 C 
ATOM     16  C   UNL     1       6.337   6.583  15.953  0.00  0.00    +0.000 C 
ENDBRANCH   9  11
BRANCH   7  17
ATOM     17  O   UNL     1       7.138   5.152  19.831  0.00  0.00    +0.000 OA
ATOM     18  H   UNL     1       7.291   4.814  18.931  0.00  0.00    +0.000 HD
ENDBRANCH   7  17
ENDBRANCH   1   8
BRANCH   6  19
ATOM     19  O   UNL     1       2.782   6.730  20.448  0.00  0.00    +0.000 OA
BRANCH  19  20
ATOM     20  C   UNL     1       2.061   7.734  19.823  0.00  0.00    +0.000 A 
ATOM     21  C   UNL     1       2.133   7.993  18.451  0.00  0.00    +0.000 A 
ATOM     22  F   UNL     1       2.884   7.224  17.646  0.00  0.00    +0.000 F 
ATOM     23  C   UNL     1       1.435   9.058  17.876  0.00  0.00    +0.000 A 
ATOM     24  C   UNL     1       0.604   9.851  18.664  0.00  0.00    +0.000 A 
ATOM     25  C   UNL     1       0.470   9.563  20.025  0.00  0.00    +0.000 A 
ATOM     26  C   UNL     1       1.199   8.511  20.591  0.00  0.00    +0.000 A 
ATOM     27  F   UNL     1       1.054   8.264  21.902  0.00  0.00    +0.000 F 
ENDBRANCH  19  20
ENDBRANCH   6  19
TORSDOF 5
ENDMDL
MODEL 6
REMARK VINA RESULT:      -7.3      1.505      1.651
REMARK  Name = 
REMARK  5 active torsions:
REMARK  status: ('A' for Active; 'I' for Inactive)
REMARK    1  A    between atoms: O_1  and  N_2
REMARK    2  A    between atoms: C_3  and  C_11
REMARK    3  A    between atoms: N_4  and  C_5
REMARK    4  A    between atoms: C_16  and  O_17
REMARK    5  A    between atoms: O_17  and  C_18
REMARK                            x       y       z     vdW  Elec       q    Type
REMARK                         _______ _______ _______ _____ _____    ______ ____
ROOT
ATOM      1  C   UNL     1       3.078   6.494  18.835  0.00  0.00    +0.000 A 
ATOM      2  C   UNL     1       2.644   7.671  18.184  0.00  0.00    +0.000 A 
ATOM      3  C   UNL     1       1.746   8.540  18.792  0.00  0.00    +0.000 A 
ATOM      4  C   UNL     1       1.334   8.246  20.073  0.00  0.00    +0.000 A 
ATOM      5  N   UNL     1       1.740   7.153  20.749  0.00  0.00    +0.000 NA
ATOM      6  C   UNL     1       2.556   6.263  20.106  0.00  0.00    +0.000 A 
ENDROOT
BRANCH   1   8
ATOM      7  N   UNL     1       3.577   5.054  17.033  0.00  0.00    +0.000 NA
ATOM      8  C   UNL     1       4.077   5.631  18.086  0.00  0.00    +0.000 C 
ATOM      9  N   UNL     1       5.391   5.586  18.531  0.00  0.00    +0.000 N 
ATOM     10  H   UNL     1       5.558   5.784  19.513  0.00  0.00    +0.000 HD
BRANCH   9  11
ATOM     11  C   UNL     1       6.584   5.396  17.704  0.00  0.00    +0.000 C 
ATOM     12  C   UNL     1       6.817   6.573  16.738  0.00  0.00    +0.000 C 
ATOM     13  C   UNL     1       7.197   7.862  17.466  0.00  0.00    +0.000 C 
ATOM     14  C   UNL     1       8.425   7.664  18.346  0.00  0.00    +0.000 C 
ATOM     15  C   UNL     1       8.259   6.488  19.305  0.00  0.00    +0.000 C 
ATOM     16  C   UNL     1       7.827   5.208  18.588  0.00  0.00    +0.000 C 
ENDBRANCH   9  11
BRANCH   7  17
ATOM     17  O   UNL     1       4.465   4.235  16.338  0.00  0.00    +0.000 OA
ATOM     18  H   UNL     1       3.902   3.479  16.094  0.00  0.00    +0.000 HD
ENDBRANCH   7  17
ENDBRANCH   1   8
BRANCH   6  19
ATOM     19  O   UNL     1       2.827   5.066  20.766  0.00  0.00    +0.000 OA
BRANCH  19  20
ATOM     20  C   UNL     1       2.425   3.911  20.117  0.00  0.00    +0.000 A 
ATOM     21  C   UNL     1       3.312   2.907  19.713  0.00  0.00    +0.000 A 
ATOM     22  F   UNL     1       4.622   2.997  19.992  0.00  0.00    +0.000 F 
ATOM     23  C   UNL     1       2.867   1.789  19.004  0.00  0.00    +0.000 A 
ATOM     24  C   UNL     1       1.509   1.629  18.737  0.00  0.00    +0.000 A 
ATOM     25  C   UNL     1       0.602   2.591  19.193  0.00  0.00    +0.000 A 
ATOM     26  C   UNL     1       1.067   3.720  19.875  0.00  0.00    +0.000 A 
ATOM     27  F   UNL     1       0.173   4.629  20.294  0.00  0.00    +0.000 F 
ENDBRANCH  19  20
ENDBRANCH   6  19
TORSDOF 5
ENDMDL
MODEL 7
REMARK VINA RESULT:      -7.3      2.249      4.749
REMARK  Name = 
REMARK  5 active torsions:
REMARK  status: ('A' for Active; 'I' for Inactive)
REMARK    1  A    between atoms: O_1  and  N_2
REMARK    2  A    between atoms: C_3  and  C_11
REMARK    3  A    between atoms: N_4  and  C_5
REMARK    4  A    between atoms: C_16  and  O_17
REMARK    5  A    between atoms: O_17  and  C_18
REMARK                            x       y       z     vdW  Elec       q    Type
REMARK                         _______ _______ _______ _____ _____    ______ ____
ROOT
ATOM      1  C   UNL     1       3.513   4.763  19.499  0.00  0.00    +0.000 A 
ATOM      2  C   UNL     1       3.157   3.418  19.246  0.00  0.00    +0.000 A 
ATOM      3  C   UNL     1       1.873   2.953  19.502  0.00  0.00    +0.000 A 
ATOM      4  C   UNL     1       0.941   3.858  19.960  0.00  0.00    +0.000 A 
ATOM      5  N   UNL     1       1.220   5.157  20.189  0.00  0.00    +0.000 NA
ATOM      6  C   UNL     1       2.509   5.580  20.014  0.00  0.00    +0.000 A 
ENDROOT
BRANCH   1   8
ATOM      7  N   UNL     1       5.801   4.835  20.076  0.00  0.00    +0.000 NA
ATOM      8  C   UNL     1       4.936   5.165  19.161  0.00  0.00    +0.000 C 
ATOM      9  N   UNL     1       5.190   5.764  17.935  0.00  0.00    +0.000 N 
ATOM     10  H   UNL     1       4.425   6.262  17.491  0.00  0.00    +0.000 HD
BRANCH   9  11
ATOM     11  C   UNL     1       6.422   5.654  17.151  0.00  0.00    +0.000 C 
ATOM     12  C   UNL     1       6.735   4.198  16.757  0.00  0.00    +0.000 C 
ATOM     13  C   UNL     1       5.728   3.633  15.755  0.00  0.00    +0.000 C 
ATOM     14  C   UNL     1       5.640   4.500  14.505  0.00  0.00    +0.000 C 
ATOM     15  C   UNL     1       5.360   5.963  14.841  0.00  0.00    +0.000 C 
ATOM     16  C   UNL     1       6.332   6.518  15.883  0.00  0.00    +0.000 C 
ENDBRANCH   9  11
BRANCH   7  17
ATOM     17  O   UNL     1       7.113   5.214  19.803  0.00  0.00    +0.000 OA
ATOM     18  H   UNL     1       7.045   6.184  19.763  0.00  0.00    +0.000 HD
ENDBRANCH   7  17
ENDBRANCH   1   8
BRANCH   6  19
ATOM     19  O   UNL     1       2.804   6.882  20.414  0.00  0.00    +0.000 OA
BRANCH  19  20
ATOM     20  C   UNL     1       1.997   7.877  19.890  0.00  0.00    +0.000 A 
ATOM     21  C   UNL     1       1.078   8.604  20.653  0.00  0.00    +0.000 A 
ATOM     22  F   UNL     1       0.973   8.402  21.976  0.00  0.00    +0.000 F 
ATOM     23  C   UNL     1       0.240   9.555  20.065  0.00  0.00    +0.000 A 
ATOM     24  C   UNL     1       0.350   9.834  18.705  0.00  0.00    +0.000 A 
ATOM     25  C   UNL     1       1.309   9.163  17.942  0.00  0.00    +0.000 A 
ATOM     26  C   UNL     1       2.121   8.192  18.539  0.00  0.00    +0.000 A 
ATOM     27  F   UNL     1       3.028   7.559  17.779  0.00  0.00    +0.000 F 
ENDBRANCH  19  20
ENDBRANCH   6  19
TORSDOF 5
ENDMDL
MODEL 8
REMARK VINA RESULT:      -7.2      1.770      4.235
REMARK  Name = 
REMARK  5 active torsions:
REMARK  status: ('A' for Active; 'I' for Inactive)
REMARK    1  A    between atoms: O_1  and  N_2
REMARK    2  A    between atoms: C_3  and  C_11
REMARK    3  A    between atoms: N_4  and  C_5
REMARK    4  A    between atoms: C_16  and  O_17
REMARK    5  A    between atoms: O_17  and  C_18
REMARK                            x       y       z     vdW  Elec       q    Type
REMARK                         _______ _______ _______ _____ _____    ______ ____
ROOT
ATOM      1  C   UNL     1       2.911   3.897  18.934  0.00  0.00    +0.000 A 
ATOM      2  C   UNL     1       2.173   2.712  19.155  0.00  0.00    +0.000 A 
ATOM      3  C   UNL     1       1.039   2.709  19.958  0.00  0.00    +0.000 A 
ATOM      4  C   UNL     1       0.625   3.911  20.490  0.00  0.00    +0.000 A 
ATOM      5  N   UNL     1       1.276   5.073  20.287  0.00  0.00    +0.000 NA
ATOM      6  C   UNL     1       2.437   5.046  19.564  0.00  0.00    +0.000 A 
ENDROOT
BRANCH   1   8
ATOM      7  N   UNL     1       4.061   2.774  17.206  0.00  0.00    +0.000 NA
ATOM      8  C   UNL     1       4.118   3.787  18.021  0.00  0.00    +0.000 C 
ATOM      9  N   UNL     1       5.100   4.765  18.086  0.00  0.00    +0.000 N 
ATOM     10  H   UNL     1       5.196   5.273  18.960  0.00  0.00    +0.000 HD
BRANCH   9  11
ATOM     11  C   UNL     1       5.944   5.227  16.982  0.00  0.00    +0.000 C 
ATOM     12  C   UNL     1       5.754   6.728  16.692  0.00  0.00    +0.000 C 
ATOM     13  C   UNL     1       6.281   7.614  17.821  0.00  0.00    +0.000 C 
ATOM     14  C   UNL     1       7.747   7.325  18.117  0.00  0.00    +0.000 C 
ATOM     15  C   UNL     1       7.997   5.843  18.383  0.00  0.00    +0.000 C 
ATOM     16  C   UNL     1       7.425   4.949  17.282  0.00  0.00    +0.000 C 
ENDBRANCH   9  11
BRANCH   7  17
ATOM     17  O   UNL     1       5.168   2.632  16.372  0.00  0.00    +0.000 OA
ATOM     18  H   UNL     1       5.525   1.769  16.646  0.00  0.00    +0.000 HD
ENDBRANCH   7  17
ENDBRANCH   1   8
BRANCH   6  19
ATOM     19  O   UNL     1       3.173   6.228  19.509  0.00  0.00    +0.000 OA
BRANCH  19  20
ATOM     20  C   UNL     1       2.446   7.387  19.296  0.00  0.00    +0.000 A 
ATOM     21  C   UNL     1       1.782   8.077  20.315  0.00  0.00    +0.000 A 
ATOM     22  F   UNL     1       1.867   7.666  21.590  0.00  0.00    +0.000 F 
ATOM     23  C   UNL     1       1.008   9.207  20.040  0.00  0.00    +0.000 A 
ATOM     24  C   UNL     1       0.932   9.700  18.739  0.00  0.00    +0.000 A 
ATOM     25  C   UNL     1       1.644   9.059  17.720  0.00  0.00    +0.000 A 
ATOM     26  C   UNL     1       2.391   7.911  18.007  0.00  0.00    +0.000 A 
ATOM     27  F   UNL     1       3.057   7.314  17.007  0.00  0.00    +0.000 F 
ENDBRANCH  19  20
ENDBRANCH   6  19
TORSDOF 5
ENDMDL
MODEL 9
REMARK VINA RESULT:      -7.2      2.005      2.879
REMARK  Name = 
REMARK  5 active torsions:
REMARK  status: ('A' for Active; 'I' for Inactive)
REMARK    1  A    between atoms: O_1  and  N_2
REMARK    2  A    between atoms: C_3  and  C_11
REMARK    3  A    between atoms: N_4  and  C_5
REMARK    4  A    between atoms: C_16  and  O_17
REMARK    5  A    between atoms: O_17  and  C_18
REMARK                            x       y       z     vdW  Elec       q    Type
REMARK                         _______ _______ _______ _____ _____    ______ ____
ROOT
ATOM      1  C   UNL     1       4.129   6.628  18.310  0.00  0.00    +0.000 A 
ATOM      2  C   UNL     1       3.807   7.739  17.497  0.00  0.00    +0.000 A 
ATOM      3  C   UNL     1       2.653   8.481  17.716  0.00  0.00    +0.000 A 
ATOM      4  C   UNL     1       1.858   8.133  18.786  0.00  0.00    +0.000 A 
ATOM      5  N   UNL     1       2.135   7.102  19.609  0.00  0.00    +0.000 NA
ATOM      6  C   UNL     1       3.228   6.329  19.330  0.00  0.00    +0.000 A 
ENDROOT
BRANCH   1   8
ATOM      7  N   UNL     1       6.169   5.693  19.039  0.00  0.00    +0.000 NA
ATOM      8  C   UNL     1       5.425   5.906  17.993  0.00  0.00    +0.000 C 
ATOM      9  N   UNL     1       5.664   5.498  16.688  0.00  0.00    +0.000 N 
ATOM     10  H   UNL     1       5.199   6.011  15.946  0.00  0.00    +0.000 HD
BRANCH   9  11
ATOM     11  C   UNL     1       6.431   4.323  16.270  0.00  0.00    +0.000 C 
ATOM     12  C   UNL     1       5.584   3.339  15.442  0.00  0.00    +0.000 C 
ATOM     13  C   UNL     1       5.195   3.905  14.077  0.00  0.00    +0.000 C 
ATOM     14  C   UNL     1       6.423   4.330  13.280  0.00  0.00    +0.000 C 
ATOM     15  C   UNL     1       7.316   5.285  14.068  0.00  0.00    +0.000 C 
ATOM     16  C   UNL     1       7.664   4.746  15.456  0.00  0.00    +0.000 C 
ENDBRANCH   9  11
BRANCH   7  17
ATOM     17  O   UNL     1       7.379   5.054  18.775  0.00  0.00    +0.000 OA
ATOM     18  H   UNL     1       7.449   4.428  19.518  0.00  0.00    +0.000 HD
ENDBRANCH   7  17
ENDBRANCH   1   8
BRANCH   6  19
ATOM     19  O   UNL     1       3.397   5.177  20.096  0.00  0.00    +0.000 OA
BRANCH  19  20
ATOM     20  C   UNL     1       2.725   4.050  19.654  0.00  0.00    +0.000 A 
ATOM     21  C   UNL     1       3.336   3.026  18.923  0.00  0.00    +0.000 A 
ATOM     22  F   UNL     1       4.651   3.066  18.656  0.00  0.00    +0.000 F 
ATOM     23  C   UNL     1       2.602   1.939  18.444  0.00  0.00    +0.000 A 
ATOM     24  C   UNL     1       1.245   1.831  18.741  0.00  0.00    +0.000 A 
ATOM     25  C   UNL     1       0.634   2.812  19.527  0.00  0.00    +0.000 A 
ATOM     26  C   UNL     1       1.377   3.910  19.974  0.00  0.00    +0.000 A 
ATOM     27  F   UNL     1       0.760   4.840  20.720  0.00  0.00    +0.000 F 
ENDBRANCH  19  20
ENDBRANCH   6  19
TORSDOF 5
ENDMDL
