MODEL 1
REMARK VINA RESULT:      -7.8      0.000      0.000
REMARK  Name = 
REMARK  5 active torsions:
REMARK  status: ('A' for Active; 'I' for Inactive)
REMARK    1  A    between atoms: C_1  and  C_2
REMARK    2  A    between atoms: C_2  and  C_3
REMARK    3  A    between atoms: C_2  and  C_13
REMARK    4  A    between atoms: N_5  and  C_6
REMARK    5  A    between atoms: C_16  and  C_17
REMARK                            x       y       z     vdW  Elec       q    Type
REMARK                         _______ _______ _______ _____ _____    ______ ____
ROOT
ATOM      1  C   UNL     1       7.541   5.907  18.982  0.00  0.00    +0.000 C 
ATOM      2  C   UNL     1       6.338   5.842  18.025  0.00  0.00    +0.000 C 
ENDROOT
BRANCH   2   3
ATOM      3  C   UNL     1       5.113   5.215  18.682  0.00  0.00    +0.000 A 
ATOM      4  N   UNL     1       5.312   4.040  19.347  0.00  0.00    +0.000 NA
ATOM      5  C   UNL     1       4.238   3.403  19.868  0.00  0.00    +0.000 A 
ATOM      6  C   UNL     1       2.943   3.878  19.776  0.00  0.00    +0.000 A 
ATOM      7  C   UNL     1       2.749   5.102  19.127  0.00  0.00    +0.000 A 
ATOM      8  C   UNL     1       3.840   5.789  18.588  0.00  0.00    +0.000 A 
ATOM      9 CL   UNL     1       3.546   7.323  17.851  0.00  0.00    +0.000 Cl
BRANCH   6  10
ATOM     10  C   UNL     1       1.801   3.096  20.345  0.00  0.00    +0.000 C 
ATOM     11  F   UNL     1       1.461   2.007  19.599  0.00  0.00    +0.000 F 
ATOM     12  F   UNL     1       2.067   2.622  21.593  0.00  0.00    +0.000 F 
ATOM     13  F   UNL     1       0.667   3.838  20.459  0.00  0.00    +0.000 F 
ENDBRANCH   6  10
ENDBRANCH   2   3
BRANCH   2  14
ATOM     14  C   UNL     1       6.750   5.069  16.767  0.00  0.00    +0.000 C 
ATOM     15  O   UNL     1       7.763   4.373  16.728  0.00  0.00    +0.000 OA
ATOM     16  N   UNL     1       5.901   5.268  15.679  0.00  0.00    +0.000 N 
ATOM     17  H   UNL     1       5.337   6.107  15.687  0.00  0.00    +0.000 HD
BRANCH  16  18
ATOM     18  C   UNL     1       6.191   4.719  14.414  0.00  0.00    +0.000 A 
ATOM     19  C   UNL     1       5.374   3.743  13.836  0.00  0.00    +0.000 A 
ATOM     20  C   UNL     1       5.752   3.129  12.640  0.00  0.00    +0.000 A 
ATOM     21  C   UNL     1       6.952   3.491  12.034  0.00  0.00    +0.000 A 
ATOM     22 CL   UNL     1       7.471   2.668  10.615  0.00  0.00    +0.000 Cl
ATOM     23  C   UNL     1       7.749   4.501  12.582  0.00  0.00    +0.000 A 
ATOM     24  C   UNL     1       7.350   5.136  13.757  0.00  0.00    +0.000 A 
ENDBRANCH  16  18
ENDBRANCH   2  14
TORSDOF 4
ENDMDL
MODEL 2
REMARK VINA RESULT:      -7.6      4.520      7.510
REMARK  Name = 
REMARK  5 active torsions:
REMARK  status: ('A' for Active; 'I' for Inactive)
REMARK    1  A    between atoms: C_1  and  C_2
REMARK    2  A    between atoms: C_2  and  C_3
REMARK    3  A    between atoms: C_2  and  C_13
REMARK    4  A    between atoms: N_5  and  C_6
REMARK    5  A    between atoms: C_16  and  C_17
REMARK                            x       y       z     vdW  Elec       q    Type
REMARK                         _______ _______ _______ _____ _____    ______ ____
ROOT
ATOM      1  C   UNL     1       2.750   3.305  21.521  0.00  0.00    +0.000 C 
ATOM      2  C   UNL     1       2.454   3.836  20.107  0.00  0.00    +0.000 C 
ENDROOT
BRANCH   2   3
ATOM      3  C   UNL     1       3.722   3.990  19.274  0.00  0.00    +0.000 A 
ATOM      4  N   UNL     1       4.812   4.505  19.911  0.00  0.00    +0.000 NA
ATOM      5  C   UNL     1       5.931   4.742  19.188  0.00  0.00    +0.000 A 
ATOM      6  C   UNL     1       6.041   4.483  17.835  0.00  0.00    +0.000 A 
ATOM      7  C   UNL     1       4.933   3.919  17.194  0.00  0.00    +0.000 A 
ATOM      8  C   UNL     1       3.767   3.653  17.916  0.00  0.00    +0.000 A 
ATOM      9 CL   UNL     1       2.454   2.902  17.084  0.00  0.00    +0.000 Cl
BRANCH   6  10
ATOM     10  C   UNL     1       7.300   4.810  17.095  0.00  0.00    +0.000 C 
ATOM     11  F   UNL     1       7.574   6.143  17.048  0.00  0.00    +0.000 F 
ATOM     12  F   UNL     1       8.396   4.225  17.652  0.00  0.00    +0.000 F 
ATOM     13  F   UNL     1       7.268   4.390  15.801  0.00  0.00    +0.000 F 
ENDBRANCH   6  10
ENDBRANCH   2   3
BRANCH   2  14
ATOM     14  C   UNL     1       1.705   5.167  20.228  0.00  0.00    +0.000 C 
ATOM     15  O   UNL     1       0.493   5.222  20.431  0.00  0.00    +0.000 OA
ATOM     16  N   UNL     1       2.513   6.289  20.041  0.00  0.00    +0.000 N 
ATOM     17  H   UNL     1       3.375   6.151  19.532  0.00  0.00    +0.000 HD
BRANCH  16  18
ATOM     18  C   UNL     1       1.967   7.588  20.012  0.00  0.00    +0.000 A 
ATOM     19  C   UNL     1       1.413   8.174  21.154  0.00  0.00    +0.000 A 
ATOM     20  C   UNL     1       0.770   9.410  21.067  0.00  0.00    +0.000 A 
ATOM     21  C   UNL     1       0.678  10.049  19.833  0.00  0.00    +0.000 A 
ATOM     22 CL   UNL     1      -0.199  11.524  19.701  0.00  0.00    +0.000 Cl
ATOM     23  C   UNL     1       1.272   9.490  18.697  0.00  0.00    +0.000 A 
ATOM     24  C   UNL     1       1.944   8.273  18.796  0.00  0.00    +0.000 A 
ENDBRANCH  16  18
ENDBRANCH   2  14
TORSDOF 4
ENDMDL
MODEL 3
REMARK VINA RESULT:      -7.4      4.393      7.469
REMARK  Name = 
REMARK  5 active torsions:
REMARK  status: ('A' for Active; 'I' for Inactive)
REMARK    1  A    between atoms: C_1  and  C_2
REMARK    2  A    between atoms: C_2  and  C_3
REMARK    3  A    between atoms: C_2  and  C_13
REMARK    4  A    between atoms: N_5  and  C_6
REMARK    5  A    between atoms: C_16  and  C_17
REMARK                            x       y       z     vdW  Elec       q    Type
REMARK                         _______ _______ _______ _____ _____    ______ ____
ROOT
ATOM      1  C   UNL     1       7.494   5.936  18.220  0.00  0.00    +0.000 C 
ATOM      2  C   UNL     1       6.123   5.444  17.722  0.00  0.00    +0.000 C 
ENDROOT
BRANCH   2   3
ATOM      3  C   UNL     1       6.194   4.873  16.310  0.00  0.00    +0.000 A 
ATOM      4  N   UNL     1       7.207   5.328  15.518  0.00  0.00    +0.000 NA
ATOM      5  C   UNL     1       7.256   4.916  14.231  0.00  0.00    +0.000 A 
ATOM      6  C   UNL     1       6.340   4.047  13.666  0.00  0.00    +0.000 A 
ATOM      7  C   UNL     1       5.325   3.553  14.493  0.00  0.00    +0.000 A 
ATOM      8  C   UNL     1       5.255   3.952  15.830  0.00  0.00    +0.000 A 
ATOM      9 CL   UNL     1       4.016   3.263  16.816  0.00  0.00    +0.000 Cl
BRANCH   6  10
ATOM     10  C   UNL     1       6.437   3.668  12.222  0.00  0.00    +0.000 C 
ATOM     11  F   UNL     1       7.024   2.456  12.015  0.00  0.00    +0.000 F 
ATOM     12  F   UNL     1       5.218   3.597  11.621  0.00  0.00    +0.000 F 
ATOM     13  F   UNL     1       7.162   4.562  11.497  0.00  0.00    +0.000 F 
ENDBRANCH   6  10
ENDBRANCH   2   3
BRANCH   2  14
ATOM     14  C   UNL     1       5.126   6.605  17.801  0.00  0.00    +0.000 C 
ATOM     15  O   UNL     1       5.414   7.743  17.432  0.00  0.00    +0.000 OA
ATOM     16  N   UNL     1       3.898   6.258  18.364  0.00  0.00    +0.000 N 
ATOM     17  H   UNL     1       3.882   5.437  18.954  0.00  0.00    +0.000 HD
BRANCH  16  18
ATOM     18  C   UNL     1       2.905   7.227  18.611  0.00  0.00    +0.000 A 
ATOM     19  C   UNL     1       2.546   8.169  17.642  0.00  0.00    +0.000 A 
ATOM     20  C   UNL     1       1.650   9.192  17.955  0.00  0.00    +0.000 A 
ATOM     21  C   UNL     1       1.124   9.272  19.242  0.00  0.00    +0.000 A 
ATOM     22 CL   UNL     1       0.097  10.586  19.663  0.00  0.00    +0.000 Cl
ATOM     23  C   UNL     1       1.442   8.304  20.201  0.00  0.00    +0.000 A 
ATOM     24  C   UNL     1       2.310   7.264  19.873  0.00  0.00    +0.000 A 
ENDBRANCH  16  18
ENDBRANCH   2  14
TORSDOF 4
ENDMDL
MODEL 4
REMARK VINA RESULT:      -7.4      1.133      1.422
REMARK  Name = 
REMARK  5 active torsions:
REMARK  status: ('A' for Active; 'I' for Inactive)
REMARK    1  A    between atoms: C_1  and  C_2
REMARK    2  A    between atoms: C_2  and  C_3
REMARK    3  A    between atoms: C_2  and  C_13
REMARK    4  A    between atoms: N_5  and  C_6
REMARK    5  A    between atoms: C_16  and  C_17
REMARK                            x       y       z     vdW  Elec       q    Type
REMARK                         _______ _______ _______ _____ _____    ______ ____
ROOT
ATOM      1  C   UNL     1       6.965   6.633  18.162  0.00  0.00    +0.000 C 
ATOM      2  C   UNL     1       5.553   6.765  17.564  0.00  0.00    +0.000 C 
ENDROOT
BRANCH   2   3
ATOM      3  C   UNL     1       4.527   5.927  18.319  0.00  0.00    +0.000 A 
ATOM      4  N   UNL     1       4.961   4.734  18.818  0.00  0.00    +0.000 NA
ATOM      5  C   UNL     1       4.063   3.919  19.418  0.00  0.00    +0.000 A 
ATOM      6  C   UNL     1       2.724   4.228  19.565  0.00  0.00    +0.000 A 
ATOM      7  C   UNL     1       2.291   5.469  19.087  0.00  0.00    +0.000 A 
ATOM      8  C   UNL     1       3.197   6.337  18.473  0.00  0.00    +0.000 A 
ATOM      9 CL   UNL     1       2.617   7.879  17.956  0.00  0.00    +0.000 Cl
BRANCH   6  10
ATOM     10  C   UNL     1       1.783   3.256  20.205  0.00  0.00    +0.000 C 
ATOM     11  F   UNL     1       1.863   3.234  21.565  0.00  0.00    +0.000 F 
ATOM     12  F   UNL     1       0.480   3.526  19.915  0.00  0.00    +0.000 F 
ATOM     13  F   UNL     1       2.000   1.976  19.798  0.00  0.00    +0.000 F 
ENDBRANCH   6  10
ENDBRANCH   2   3
BRANCH   2  14
ATOM     14  C   UNL     1       5.607   6.373  16.083  0.00  0.00    +0.000 C 
ATOM     15  O   UNL     1       4.973   6.978  15.221  0.00  0.00    +0.000 OA
ATOM     16  N   UNL     1       6.396   5.252  15.825  0.00  0.00    +0.000 N 
ATOM     17  H   UNL     1       6.567   4.625  16.599  0.00  0.00    +0.000 HD
BRANCH  16  18
ATOM     18  C   UNL     1       6.470   4.691  14.534  0.00  0.00    +0.000 A 
ATOM     19  C   UNL     1       5.564   3.716  14.108  0.00  0.00    +0.000 A 
ATOM     20  C   UNL     1       5.736   3.090  12.872  0.00  0.00    +0.000 A 
ATOM     21  C   UNL     1       6.821   3.437  12.073  0.00  0.00    +0.000 A 
ATOM     22 CL   UNL     1       7.095   2.600  10.595  0.00  0.00    +0.000 Cl
ATOM     23  C   UNL     1       7.704   4.446  12.473  0.00  0.00    +0.000 A 
ATOM     24  C   UNL     1       7.508   5.094  13.692  0.00  0.00    +0.000 A 
ENDBRANCH  16  18
ENDBRANCH   2  14
TORSDOF 4
ENDMDL
MODEL 5
REMARK VINA RESULT:      -7.4      4.487      7.538
REMARK  Name = 
REMARK  5 active torsions:
REMARK  status: ('A' for Active; 'I' for Inactive)
REMARK    1  A    between atoms: C_1  and  C_2
REMARK    2  A    between atoms: C_2  and  C_3
REMARK    3  A    between atoms: C_2  and  C_13
REMARK    4  A    between atoms: N_5  and  C_6
REMARK    5  A    between atoms: C_16  and  C_17
REMARK                            x       y       z     vdW  Elec       q    Type
REMARK                         _______ _______ _______ _____ _____    ______ ____
ROOT
ATOM      1  C   UNL     1       2.813   3.111  21.443  0.00  0.00    +0.000 C 
ATOM      2  C   UNL     1       2.469   3.647  20.042  0.00  0.00    +0.000 C 
ENDROOT
BRANCH   2   3
ATOM      3  C   UNL     1       3.711   3.843  19.179  0.00  0.00    +0.000 A 
ATOM      4  N   UNL     1       4.821   4.325  19.808  0.00  0.00    +0.000 NA
ATOM      5  C   UNL     1       5.918   4.599  19.065  0.00  0.00    +0.000 A 
ATOM      6  C   UNL     1       5.986   4.409  17.698  0.00  0.00    +0.000 A 
ATOM      7  C   UNL     1       4.859   3.878  17.063  0.00  0.00    +0.000 A 
ATOM      8  C   UNL     1       3.715   3.575  17.805  0.00  0.00    +0.000 A 
ATOM      9 CL   UNL     1       2.375   2.867  16.976  0.00  0.00    +0.000 Cl
BRANCH   6  10
ATOM     10  C   UNL     1       7.223   4.773  16.938  0.00  0.00    +0.000 C 
ATOM     11  F   UNL     1       7.202   4.368  15.637  0.00  0.00    +0.000 F 
ATOM     12  F   UNL     1       7.436   6.117  16.905  0.00  0.00    +0.000 F 
ATOM     13  F   UNL     1       8.346   4.228  17.480  0.00  0.00    +0.000 F 
ENDBRANCH   6  10
ENDBRANCH   2   3
BRANCH   2  14
ATOM     14  C   UNL     1       1.687   4.956  20.194  0.00  0.00    +0.000 C 
ATOM     15  O   UNL     1       0.480   4.975  20.432  0.00  0.00    +0.000 OA
ATOM     16  N   UNL     1       2.458   6.101  19.994  0.00  0.00    +0.000 N 
ATOM     17  H   UNL     1       3.309   5.991  19.460  0.00  0.00    +0.000 HD
BRANCH  16  18
ATOM     18  C   UNL     1       1.876   7.384  19.990  0.00  0.00    +0.000 A 
ATOM     19  C   UNL     1       1.871   8.181  18.841  0.00  0.00    +0.000 A 
ATOM     20  C   UNL     1       1.399   9.493  18.899  0.00  0.00    +0.000 A 
ATOM     21  C   UNL     1       0.943  10.005  20.111  0.00  0.00    +0.000 A 
ATOM     22 CL   UNL     1       0.454  11.651  20.212  0.00  0.00    +0.000 Cl
ATOM     23  C   UNL     1       0.902   9.197  21.252  0.00  0.00    +0.000 A 
ATOM     24  C   UNL     1       1.341   7.876  21.182  0.00  0.00    +0.000 A 
ENDBRANCH  16  18
ENDBRANCH   2  14
TORSDOF 4
ENDMDL
MODEL 6
REMARK VINA RESULT:      -7.3      0.507      1.344
REMARK  Name = 
REMARK  5 active torsions:
REMARK  status: ('A' for Active; 'I' for Inactive)
REMARK    1  A    between atoms: C_1  and  C_2
REMARK    2  A    between atoms: C_2  and  C_3
REMARK    3  A    between atoms: C_2  and  C_13
REMARK    4  A    between atoms: N_5  and  C_6
REMARK    5  A    between atoms: C_16  and  C_17
REMARK                            x       y       z     vdW  Elec       q    Type
REMARK                         _______ _______ _______ _____ _____    ______ ____
ROOT
ATOM      1  C   UNL     1       7.446   5.688  19.516  0.00  0.00    +0.000 C 
ATOM      2  C   UNL     1       6.339   5.683  18.446  0.00  0.00    +0.000 C 
ENDROOT
BRANCH   2   3
ATOM      3  C   UNL     1       5.073   4.985  18.932  0.00  0.00    +0.000 A 
ATOM      4  N   UNL     1       5.234   3.758  19.507  0.00  0.00    +0.000 NA
ATOM      5  C   UNL     1       4.131   3.065  19.871  0.00  0.00    +0.000 A 
ATOM      6  C   UNL     1       2.840   3.532  19.704  0.00  0.00    +0.000 A 
ATOM      7  C   UNL     1       2.682   4.806  19.151  0.00  0.00    +0.000 A 
ATOM      8  C   UNL     1       3.802   5.551  18.775  0.00  0.00    +0.000 A 
ATOM      9 CL   UNL     1       3.546   7.141  18.151  0.00  0.00    +0.000 Cl
BRANCH   6  10
ATOM     10  C   UNL     1       1.668   2.689  20.097  0.00  0.00    +0.000 C 
ATOM     11  F   UNL     1       0.470   3.325  19.963  0.00  0.00    +0.000 F 
ATOM     12  F   UNL     1       1.571   1.555  19.350  0.00  0.00    +0.000 F 
ATOM     13  F   UNL     1       1.730   2.281  21.393  0.00  0.00    +0.000 F 
ENDBRANCH   6  10
ENDBRANCH   2   3
BRANCH   2  14
ATOM     14  C   UNL     1       6.884   5.020  17.177  0.00  0.00    +0.000 C 
ATOM     15  O   UNL     1       7.939   4.388  17.168  0.00  0.00    +0.000 OA
ATOM     16  N   UNL     1       6.102   5.242  16.044  0.00  0.00    +0.000 N 
ATOM     17  H   UNL     1       5.487   6.044  16.063  0.00  0.00    +0.000 HD
BRANCH  16  18
ATOM     18  C   UNL     1       6.512   4.796  14.771  0.00  0.00    +0.000 A 
ATOM     19  C   UNL     1       7.526   5.445  14.061  0.00  0.00    +0.000 A 
ATOM     20  C   UNL     1       7.827   5.058  12.754  0.00  0.00    +0.000 A 
ATOM     21  C   UNL     1       7.103   4.026  12.162  0.00  0.00    +0.000 A 
ATOM     22 CL   UNL     1       7.400   3.611  10.519  0.00  0.00    +0.000 Cl
ATOM     23  C   UNL     1       6.121   3.341  12.884  0.00  0.00    +0.000 A 
ATOM     24  C   UNL     1       5.848   3.708  14.201  0.00  0.00    +0.000 A 
ENDBRANCH  16  18
ENDBRANCH   2  14
TORSDOF 4
ENDMDL
MODEL 7
REMARK VINA RESULT:      -7.3      3.066      4.058
REMARK  Name = 
REMARK  5 active torsions:
REMARK  status: ('A' for Active; 'I' for Inactive)
REMARK    1  A    between atoms: C_1  and  C_2
REMARK    2  A    between atoms: C_2  and  C_3
REMARK    3  A    between atoms: C_2  and  C_13
REMARK    4  A    between atoms: N_5  and  C_6
REMARK    5  A    between atoms: C_16  and  C_17
REMARK                            x       y       z     vdW  Elec       q    Type
REMARK                         _______ _______ _______ _____ _____    ______ ____
ROOT
ATOM      1  C   UNL     1       2.294   2.533  18.054  0.00  0.00    +0.000 C 
ATOM      2  C   UNL     1       3.262   3.349  18.929  0.00  0.00    +0.000 C 
ENDROOT
BRANCH   2   3
ATOM      3  C   UNL     1       2.630   4.639  19.438  0.00  0.00    +0.000 A 
ATOM      4  N   UNL     1       2.906   5.774  18.733  0.00  0.00    +0.000 NA
ATOM      5  C   UNL     1       2.439   6.955  19.199  0.00  0.00    +0.000 A 
ATOM      6  C   UNL     1       1.685   7.082  20.351  0.00  0.00    +0.000 A 
ATOM      7  C   UNL     1       1.372   5.911  21.049  0.00  0.00    +0.000 A 
ATOM      8  C   UNL     1       1.830   4.675  20.586  0.00  0.00    +0.000 A 
ATOM      9 CL   UNL     1       1.362   3.260  21.457  0.00  0.00    +0.000 Cl
BRANCH   6  10
ATOM     10  C   UNL     1       1.238   8.429  20.825  0.00  0.00    +0.000 C 
ATOM     11  F   UNL     1      -0.080   8.476  21.166  0.00  0.00    +0.000 F 
ATOM     12  F   UNL     1       1.921   8.845  21.927  0.00  0.00    +0.000 F 
ATOM     13  F   UNL     1       1.415   9.397  19.886  0.00  0.00    +0.000 F 
ENDBRANCH   6  10
ENDBRANCH   2   3
BRANCH   2  14
ATOM     14  C   UNL     1       4.533   3.635  18.120  0.00  0.00    +0.000 C 
ATOM     15  O   UNL     1       5.641   3.715  18.648  0.00  0.00    +0.000 OA
ATOM     16  N   UNL     1       4.303   3.838  16.760  0.00  0.00    +0.000 N 
ATOM     17  H   UNL     1       3.368   4.113  16.491  0.00  0.00    +0.000 HD
BRANCH  16  18
ATOM     18  C   UNL     1       5.344   4.218  15.890  0.00  0.00    +0.000 A 
ATOM     19  C   UNL     1       6.179   5.302  16.179  0.00  0.00    +0.000 A 
ATOM     20  C   UNL     1       7.121   5.731  15.242  0.00  0.00    +0.000 A 
ATOM     21  C   UNL     1       7.216   5.078  14.016  0.00  0.00    +0.000 A 
ATOM     22 CL   UNL     1       8.304   5.664  12.820  0.00  0.00    +0.000 Cl
ATOM     23  C   UNL     1       6.416   3.964  13.742  0.00  0.00    +0.000 A 
ATOM     24  C   UNL     1       5.502   3.516  14.694  0.00  0.00    +0.000 A 
ENDBRANCH  16  18
ENDBRANCH   2  14
TORSDOF 4
ENDMDL
MODEL 8
REMARK VINA RESULT:      -7.3      4.517      7.436
REMARK  Name = 
REMARK  5 active torsions:
REMARK  status: ('A' for Active; 'I' for Inactive)
REMARK    1  A    between atoms: C_1  and  C_2
REMARK    2  A    between atoms: C_2  and  C_3
REMARK    3  A    between atoms: C_2  and  C_13
REMARK    4  A    between atoms: N_5  and  C_6
REMARK    5  A    between atoms: C_16  and  C_17
REMARK                            x       y       z     vdW  Elec       q    Type
REMARK                         _______ _______ _______ _____ _____    ______ ____
ROOT
ATOM      1  C   UNL     1       2.371   3.877  21.263  0.00  0.00    +0.000 C 
ATOM      2  C   UNL     1       2.291   4.609  19.912  0.00  0.00    +0.000 C 
ENDROOT
BRANCH   2   3
ATOM      3  C   UNL     1       3.605   4.541  19.142  0.00  0.00    +0.000 A 
ATOM      4  N   UNL     1       4.662   5.220  19.675  0.00  0.00    +0.000 NA
ATOM      5  C   UNL     1       5.821   5.260  18.980  0.00  0.00    +0.000 A 
ATOM      6  C   UNL     1       6.006   4.643  17.757  0.00  0.00    +0.000 A 
ATOM      7  C   UNL     1       4.933   3.916  17.233  0.00  0.00    +0.000 A 
ATOM      8  C   UNL     1       3.725   3.846  17.932  0.00  0.00    +0.000 A 
ATOM      9 CL   UNL     1       2.456   2.885  17.264  0.00  0.00    +0.000 Cl
BRANCH   6  10
ATOM     10  C   UNL     1       7.308   4.766  17.030  0.00  0.00    +0.000 C 
ATOM     11  F   UNL     1       7.287   4.225  15.779  0.00  0.00    +0.000 F 
ATOM     12  F   UNL     1       7.691   6.062  16.867  0.00  0.00    +0.000 F 
ATOM     13  F   UNL     1       8.330   4.152  17.684  0.00  0.00    +0.000 F 
ENDBRANCH   6  10
ENDBRANCH   2   3
BRANCH   2  14
ATOM     14  C   UNL     1       1.871   6.061  20.163  0.00  0.00    +0.000 C 
ATOM     15  O   UNL     1       1.196   6.389  21.138  0.00  0.00    +0.000 OA
ATOM     16  N   UNL     1       2.283   6.949  19.170  0.00  0.00    +0.000 N 
ATOM     17  H   UNL     1       2.496   6.554  18.264  0.00  0.00    +0.000 HD
BRANCH  16  18
ATOM     18  C   UNL     1       1.891   8.302  19.188  0.00  0.00    +0.000 A 
ATOM     19  C   UNL     1       1.231   8.858  20.288  0.00  0.00    +0.000 A 
ATOM     20  C   UNL     1       0.747  10.166  20.229  0.00  0.00    +0.000 A 
ATOM     21  C   UNL     1       0.917  10.907  19.063  0.00  0.00    +0.000 A 
ATOM     22 CL   UNL     1       0.235  12.483  18.948  0.00  0.00    +0.000 Cl
ATOM     23  C   UNL     1       1.618  10.373  17.977  0.00  0.00    +0.000 A 
ATOM     24  C   UNL     1       2.132   9.080  18.054  0.00  0.00    +0.000 A 
ENDBRANCH  16  18
ENDBRANCH   2  14
TORSDOF 4
ENDMDL
MODEL 9
REMARK VINA RESULT:      -7.2      4.529      7.430
REMARK  Name = 
REMARK  5 active torsions:
REMARK  status: ('A' for Active; 'I' for Inactive)
REMARK    1  A    between atoms: C_1  and  C_2
REMARK    2  A    between atoms: C_2  and  C_3
REMARK    3  A    between atoms: C_2  and  C_13
REMARK    4  A    between atoms: N_5  and  C_6
REMARK    5  A    between atoms: C_16  and  C_17
REMARK                            x       y       z     vdW  Elec       q    Type
REMARK                         _______ _______ _______ _____ _____    ______ ____
ROOT
ATOM      1  C   UNL     1       2.470   3.909  21.438  0.00  0.00    +0.000 C 
ATOM      2  C   UNL     1       2.321   4.534  20.039  0.00  0.00    +0.000 C 
ENDROOT
BRANCH   2   3
ATOM      3  C   UNL     1       3.625   4.495  19.250  0.00  0.00    +0.000 A 
ATOM      4  N   UNL     1       4.683   5.170  19.784  0.00  0.00    +0.000 NA
ATOM      5  C   UNL     1       5.832   5.236  19.074  0.00  0.00    +0.000 A 
ATOM      6  C   UNL     1       6.005   4.648  17.835  0.00  0.00    +0.000 A 
ATOM      7  C   UNL     1       4.930   3.925  17.308  0.00  0.00    +0.000 A 
ATOM      8  C   UNL     1       3.734   3.829  18.023  0.00  0.00    +0.000 A 
ATOM      9 CL   UNL     1       2.463   2.873  17.349  0.00  0.00    +0.000 Cl
BRANCH   6  10
ATOM     10  C   UNL     1       7.295   4.799  17.092  0.00  0.00    +0.000 C 
ATOM     11  F   UNL     1       7.692   6.095  16.945  0.00  0.00    +0.000 F 
ATOM     12  F   UNL     1       8.328   4.164  17.711  0.00  0.00    +0.000 F 
ATOM     13  F   UNL     1       7.236   4.283  15.835  0.00  0.00    +0.000 F 
ENDBRANCH   6  10
ENDBRANCH   2   3
BRANCH   2  14
ATOM     14  C   UNL     1       1.809   5.970  20.194  0.00  0.00    +0.000 C 
ATOM     15  O   UNL     1       1.004   6.289  21.067  0.00  0.00    +0.000 OA
ATOM     16  N   UNL     1       2.305   6.852  19.234  0.00  0.00    +0.000 N 
ATOM     17  H   UNL     1       2.646   6.446  18.373  0.00  0.00    +0.000 HD
BRANCH  16  18
ATOM     18  C   UNL     1       1.855   8.186  19.163  0.00  0.00    +0.000 A 
ATOM     19  C   UNL     1       2.040   8.960  18.013  0.00  0.00    +0.000 A 
ATOM     20  C   UNL     1       1.696  10.313  18.015  0.00  0.00    +0.000 A 
ATOM     21  C   UNL     1       1.176  10.886  19.172  0.00  0.00    +0.000 A 
ATOM     22 CL   UNL     1       0.843  12.574  19.212  0.00  0.00    +0.000 Cl
ATOM     23  C   UNL     1       0.944  10.105  20.309  0.00  0.00    +0.000 A 
ATOM     24  C   UNL     1       1.256   8.747  20.292  0.00  0.00    +0.000 A 
ENDBRANCH  16  18
ENDBRANCH   2  14
TORSDOF 4
ENDMDL
