MODEL 1
REMARK VINA RESULT:      -8.7      0.000      0.000
REMARK  Name = 
REMARK  9 active torsions:
REMARK  status: ('A' for Active; 'I' for Inactive)
REMARK    1  A    between atoms: C_1  and  C_2
REMARK    2  A    between atoms: C_2  and  C_3
REMARK    3  A    between atoms: C_2  and  O_4
REMARK    4  A    between atoms: O_4  and  C_5
REMARK    5  A    between atoms: C_10  and  N_11
REMARK    6  A    between atoms: N_14  and  C_15
REMARK    7  A    between atoms: C_18  and  N_19
REMARK    8  A    between atoms: N_19  and  S_20
REMARK    9  A    between atoms: S_20  and  C_23
REMARK                            x       y       z     vdW  Elec       q    Type
REMARK                         _______ _______ _______ _____ _____    ______ ____
ROOT
ATOM      1  C   UNL     1       1.458   7.921  19.442  0.00  0.00    +0.000 C 
ATOM      2  C   UNL     1       2.433   7.741  18.253  0.00  0.00    +0.000 C 
ATOM      3  C   UNL     1       2.563   6.272  17.826  0.00  0.00    +0.000 C 
ATOM      4  C   UNL     1       3.043   5.371  18.962  0.00  0.00    +0.000 C 
ATOM      5  C   UNL     1       2.069   5.500  20.133  0.00  0.00    +0.000 C 
ATOM      6  C   UNL     1       1.849   6.945  20.585  0.00  0.00    +0.000 C 
ENDROOT
BRANCH   1  10
ATOM      7  N   UNL     1      -0.758  11.376  20.506  0.00  0.00    +0.000 N 
ATOM      8  C   UNL     1       0.133  10.937  21.575  0.00  0.00    +0.000 C 
ATOM      9  C   UNL     1       0.681   9.522  21.213  0.00  0.00    +0.000 C 
ATOM     10  N   UNL     1       1.267   9.347  19.861  0.00  0.00    +0.000 NA
ATOM     11  C   UNL     1       0.566  10.152  18.825  0.00  0.00    +0.000 C 
ATOM     12  C   UNL     1      -0.032  11.521  19.235  0.00  0.00    +0.000 C 
BRANCH   7  18
ATOM     13  C   UNL     1      -2.966  12.256  19.712  0.00  0.00    +0.000 A 
ATOM     14  C   UNL     1      -4.193  12.847  20.074  0.00  0.00    +0.000 A 
ATOM     15  C   UNL     1      -4.410  13.343  21.357  0.00  0.00    +0.000 A 
ATOM     16  C   UNL     1      -3.415  13.213  22.309  0.00  0.00    +0.000 A 
ATOM     17  C   UNL     1      -2.231  12.546  21.983  0.00  0.00    +0.000 A 
ATOM     18  C   UNL     1      -1.972  12.021  20.695  0.00  0.00    +0.000 A 
BRANCH  13  19
ATOM     19  O   UNL     1      -2.759  11.826  18.419  0.00  0.00    +0.000 OA
BRANCH  19  21
ATOM     20  C   UNL     1      -4.445  11.505  16.730  0.00  0.00    +0.000 C 
ATOM     21  C   UNL     1      -3.700  10.868  17.898  0.00  0.00    +0.000 C 
ATOM     22  C   UNL     1      -2.930   9.631  17.444  0.00  0.00    +0.000 C 
ENDBRANCH  19  21
ENDBRANCH  13  19
ENDBRANCH   7  18
ENDBRANCH   1  10
BRANCH   4  23
ATOM     23  N   UNL     1       4.407   5.716  19.420  0.00  0.00    +0.000 NA
ATOM     24  H   UNL     1       4.486   6.154  20.342  0.00  0.00    +0.000 HD
BRANCH  23  25
ATOM     25  S   UNL     1       5.673   4.611  19.217  0.00  0.00    +0.000 S 
ATOM     26  O   UNL     1       6.809   5.182  19.900  0.00  0.00    +0.000 OA
ATOM     27  O   UNL     1       5.165   3.302  19.577  0.00  0.00    +0.000 OA
BRANCH  25  28
ATOM     28  C   UNL     1       6.006   4.633  17.495  0.00  0.00    +0.000 A 
ATOM     29  C   UNL     1       7.075   5.388  16.996  0.00  0.00    +0.000 A 
ATOM     30  C   UNL     1       7.310   5.440  15.621  0.00  0.00    +0.000 A 
ATOM     31  C   UNL     1       6.468   4.756  14.747  0.00  0.00    +0.000 A 
ATOM     32  C   UNL     1       5.402   4.005  15.246  0.00  0.00    +0.000 A 
ATOM     33  C   UNL     1       5.177   3.944  16.622  0.00  0.00    +0.000 A 
ATOM     34  F   UNL     1       4.158   3.197  17.066  0.00  0.00    +0.000 F 
ENDBRANCH  25  28
ENDBRANCH  23  25
ENDBRANCH   4  23
TORSDOF 7
ENDMDL
MODEL 2
REMARK VINA RESULT:      -8.7      0.850      1.194
REMARK  Name = 
REMARK  9 active torsions:
REMARK  status: ('A' for Active; 'I' for Inactive)
REMARK    1  A    between atoms: C_1  and  C_2
REMARK    2  A    between atoms: C_2  and  C_3
REMARK    3  A    between atoms: C_2  and  O_4
REMARK    4  A    between atoms: O_4  and  C_5
REMARK    5  A    between atoms: C_10  and  N_11
REMARK    6  A    between atoms: N_14  and  C_15
REMARK    7  A    between atoms: C_18  and  N_19
REMARK    8  A    between atoms: N_19  and  S_20
REMARK    9  A    between atoms: S_20  and  C_23
REMARK                            x       y       z     vdW  Elec       q    Type
REMARK                         _______ _______ _______ _____ _____    ______ ____
ROOT
ATOM      1  C   UNL     1       1.476   8.013  19.382  0.00  0.00    +0.000 C 
ATOM      2  C   UNL     1       2.459   7.765  18.213  0.00  0.00    +0.000 C 
ATOM      3  C   UNL     1       2.575   6.276  17.858  0.00  0.00    +0.000 C 
ATOM      4  C   UNL     1       3.035   5.425  19.040  0.00  0.00    +0.000 C 
ATOM      5  C   UNL     1       2.052   5.621  20.194  0.00  0.00    +0.000 C 
ATOM      6  C   UNL     1       1.845   7.088  20.575  0.00  0.00    +0.000 C 
ENDROOT
BRANCH   1  10
ATOM      7  N   UNL     1      -0.697  11.499  20.435  0.00  0.00    +0.000 N 
ATOM      8  C   UNL     1       0.294  11.137  21.444  0.00  0.00    +0.000 C 
ATOM      9  C   UNL     1       0.832   9.710  21.118  0.00  0.00    +0.000 C 
ATOM     10  N   UNL     1       1.297   9.459  19.731  0.00  0.00    +0.000 NA
ATOM     11  C   UNL     1       0.492  10.190  18.717  0.00  0.00    +0.000 C 
ATOM     12  C   UNL     1      -0.091  11.575  19.098  0.00  0.00    +0.000 C 
BRANCH   7  18
ATOM     13  C   UNL     1      -2.955  12.361  19.773  0.00  0.00    +0.000 A 
ATOM     14  C   UNL     1      -4.161  12.948  20.207  0.00  0.00    +0.000 A 
ATOM     15  C   UNL     1      -4.299  13.455  21.497  0.00  0.00    +0.000 A 
ATOM     16  C   UNL     1      -3.247  13.339  22.386  0.00  0.00    +0.000 A 
ATOM     17  C   UNL     1      -2.081  12.674  21.991  0.00  0.00    +0.000 A 
ATOM     18  C   UNL     1      -1.901  12.140  20.694  0.00  0.00    +0.000 A 
BRANCH  13  19
ATOM     19  O   UNL     1      -2.828  11.920  18.474  0.00  0.00    +0.000 OA
BRANCH  19  21
ATOM     20  C   UNL     1      -4.553  11.607  16.823  0.00  0.00    +0.000 C 
ATOM     21  C   UNL     1      -3.820  10.986  18.007  0.00  0.00    +0.000 C 
ATOM     22  C   UNL     1      -3.115   9.696  17.597  0.00  0.00    +0.000 C 
ENDBRANCH  19  21
ENDBRANCH  13  19
ENDBRANCH   7  18
ENDBRANCH   1  10
BRANCH   4  23
ATOM     23  N   UNL     1       4.399   5.776  19.494  0.00  0.00    +0.000 NA
ATOM     24  H   UNL     1       4.483   6.166  20.437  0.00  0.00    +0.000 HD
BRANCH  23  25
ATOM     25  S   UNL     1       5.684   4.712  19.212  0.00  0.00    +0.000 S 
ATOM     26  O   UNL     1       6.833   5.303  19.855  0.00  0.00    +0.000 OA
ATOM     27  O   UNL     1       5.230   3.383  19.567  0.00  0.00    +0.000 OA
BRANCH  25  28
ATOM     28  C   UNL     1       5.938   4.777  17.478  0.00  0.00    +0.000 A 
ATOM     29  C   UNL     1       5.190   3.953  16.627  0.00  0.00    +0.000 A 
ATOM     30  C   UNL     1       5.426   3.973  15.252  0.00  0.00    +0.000 A 
ATOM     31  C   UNL     1       6.418   4.800  14.730  0.00  0.00    +0.000 A 
ATOM     32  C   UNL     1       7.164   5.620  15.579  0.00  0.00    +0.000 A 
ATOM     33  C   UNL     1       6.917   5.607  16.953  0.00  0.00    +0.000 A 
ATOM     34  F   UNL     1       7.637   6.423  17.735  0.00  0.00    +0.000 F 
ENDBRANCH  25  28
ENDBRANCH  23  25
ENDBRANCH   4  23
TORSDOF 7
ENDMDL
MODEL 3
REMARK VINA RESULT:      -8.5      2.096      3.566
REMARK  Name = 
REMARK  9 active torsions:
REMARK  status: ('A' for Active; 'I' for Inactive)
REMARK    1  A    between atoms: C_1  and  C_2
REMARK    2  A    between atoms: C_2  and  C_3
REMARK    3  A    between atoms: C_2  and  O_4
REMARK    4  A    between atoms: O_4  and  C_5
REMARK    5  A    between atoms: C_10  and  N_11
REMARK    6  A    between atoms: N_14  and  C_15
REMARK    7  A    between atoms: C_18  and  N_19
REMARK    8  A    between atoms: N_19  and  S_20
REMARK    9  A    between atoms: S_20  and  C_23
REMARK                            x       y       z     vdW  Elec       q    Type
REMARK                         _______ _______ _______ _____ _____    ______ ____
ROOT
ATOM      1  C   UNL     1       2.447   6.087  19.441  0.00  0.00    +0.000 C 
ATOM      2  C   UNL     1       1.656   5.585  18.209  0.00  0.00    +0.000 C 
ATOM      3  C   UNL     1       1.907   4.097  17.925  0.00  0.00    +0.000 C 
ATOM      4  C   UNL     1       3.384   3.786  17.689  0.00  0.00    +0.000 C 
ATOM      5  C   UNL     1       4.179   4.235  18.914  0.00  0.00    +0.000 C 
ATOM      6  C   UNL     1       3.943   5.698  19.291  0.00  0.00    +0.000 C 
ENDROOT
BRANCH   1  10
ATOM      7  N   UNL     1       0.222   9.694  19.597  0.00  0.00    +0.000 N 
ATOM      8  C   UNL     1       0.567   9.196  20.926  0.00  0.00    +0.000 C 
ATOM      9  C   UNL     1       1.121   7.745  20.782  0.00  0.00    +0.000 C 
ATOM     10  N   UNL     1       2.195   7.524  19.782  0.00  0.00    +0.000 NA
ATOM     11  C   UNL     1       2.034   8.373  18.573  0.00  0.00    +0.000 C 
ATOM     12  C   UNL     1       1.412   9.782  18.738  0.00  0.00    +0.000 C 
BRANCH   7  18
ATOM     13  C   UNL     1      -1.400  11.565  19.979  0.00  0.00    +0.000 A 
ATOM     14  C   UNL     1      -2.526  12.260  19.495  0.00  0.00    +0.000 A 
ATOM     15  C   UNL     1      -3.276  11.773  18.427  0.00  0.00    +0.000 A 
ATOM     16  C   UNL     1      -2.881  10.605  17.800  0.00  0.00    +0.000 A 
ATOM     17  C   UNL     1      -1.712   9.961  18.216  0.00  0.00    +0.000 A 
ATOM     18  C   UNL     1      -0.917  10.424  19.291  0.00  0.00    +0.000 A 
BRANCH  13  19
ATOM     19  O   UNL     1      -0.711  12.041  21.074  0.00  0.00    +0.000 OA
BRANCH  19  21
ATOM     20  C   UNL     1      -1.488  11.209  23.197  0.00  0.00    +0.000 C 
ATOM     21  C   UNL     1      -1.496  12.390  22.231  0.00  0.00    +0.000 C 
ATOM     22  C   UNL     1      -0.882  13.628  22.877  0.00  0.00    +0.000 C 
ENDBRANCH  19  21
ENDBRANCH  13  19
ENDBRANCH   7  18
ENDBRANCH   1  10
BRANCH   4  23
ATOM     23  N   UNL     1       3.918   4.459  16.484  0.00  0.00    +0.000 NA
ATOM     24  H   UNL     1       3.738   5.464  16.402  0.00  0.00    +0.000 HD
BRANCH  23  25
ATOM     25  S   UNL     1       5.493   4.130  15.960  0.00  0.00    +0.000 S 
ATOM     26  O   UNL     1       5.767   2.771  16.362  0.00  0.00    +0.000 OA
ATOM     27  O   UNL     1       5.578   4.531  14.570  0.00  0.00    +0.000 OA
BRANCH  25  28
ATOM     28  C   UNL     1       6.508   5.194  16.917  0.00  0.00    +0.000 A 
ATOM     29  C   UNL     1       7.401   4.658  17.854  0.00  0.00    +0.000 A 
ATOM     30  C   UNL     1       8.173   5.509  18.646  0.00  0.00    +0.000 A 
ATOM     31  C   UNL     1       8.041   6.889  18.516  0.00  0.00    +0.000 A 
ATOM     32  C   UNL     1       7.151   7.422  17.582  0.00  0.00    +0.000 A 
ATOM     33  C   UNL     1       6.388   6.570  16.782  0.00  0.00    +0.000 A 
ATOM     34  F   UNL     1       5.559   7.116  15.882  0.00  0.00    +0.000 F 
ENDBRANCH  25  28
ENDBRANCH  23  25
ENDBRANCH   4  23
TORSDOF 7
ENDMDL
MODEL 4
REMARK VINA RESULT:      -8.2      4.324     10.304
REMARK  Name = 
REMARK  9 active torsions:
REMARK  status: ('A' for Active; 'I' for Inactive)
REMARK    1  A    between atoms: C_1  and  C_2
REMARK    2  A    between atoms: C_2  and  C_3
REMARK    3  A    between atoms: C_2  and  O_4
REMARK    4  A    between atoms: O_4  and  C_5
REMARK    5  A    between atoms: C_10  and  N_11
REMARK    6  A    between atoms: N_14  and  C_15
REMARK    7  A    between atoms: C_18  and  N_19
REMARK    8  A    between atoms: N_19  and  S_20
REMARK    9  A    between atoms: S_20  and  C_23
REMARK                            x       y       z     vdW  Elec       q    Type
REMARK                         _______ _______ _______ _____ _____    ______ ____
ROOT
ATOM      1  C   UNL     1       0.137  10.008  19.467  0.00  0.00    +0.000 C 
ATOM      2  C   UNL     1       0.124  11.067  20.595  0.00  0.00    +0.000 C 
ATOM      3  C   UNL     1      -1.223  11.799  20.687  0.00  0.00    +0.000 C 
ATOM      4  C   UNL     1      -1.599  12.502  19.384  0.00  0.00    +0.000 C 
ATOM      5  C   UNL     1      -1.634  11.464  18.262  0.00  0.00    +0.000 C 
ATOM      6  C   UNL     1      -0.340  10.657  18.139  0.00  0.00    +0.000 C 
ENDROOT
BRANCH   1  10
ATOM      7  N   UNL     1       2.559   6.604  18.739  0.00  0.00    +0.000 N 
ATOM      8  C   UNL     1       2.895   7.721  17.863  0.00  0.00    +0.000 C 
ATOM      9  C   UNL     1       1.785   8.808  18.000  0.00  0.00    +0.000 C 
ATOM     10  N   UNL     1       1.418   9.236  19.372  0.00  0.00    +0.000 NA
ATOM     11  C   UNL     1       1.482   8.122  20.355  0.00  0.00    +0.000 C 
ATOM     12  C   UNL     1       2.550   7.018  20.150  0.00  0.00    +0.000 C 
BRANCH   7  18
ATOM     13  C   UNL     1       3.901   4.554  18.211  0.00  0.00    +0.000 A 
ATOM     14  C   UNL     1       3.877   3.167  17.964  0.00  0.00    +0.000 A 
ATOM     15  C   UNL     1       2.680   2.485  17.762  0.00  0.00    +0.000 A 
ATOM     16  C   UNL     1       1.485   3.176  17.849  0.00  0.00    +0.000 A 
ATOM     17  C   UNL     1       1.497   4.533  18.186  0.00  0.00    +0.000 A 
ATOM     18  C   UNL     1       2.689   5.263  18.405  0.00  0.00    +0.000 A 
BRANCH  13  19
ATOM     19  O   UNL     1       5.103   5.212  18.350  0.00  0.00    +0.000 OA
BRANCH  19  21
ATOM     20  C   UNL     1       5.950   6.150  16.300  0.00  0.00    +0.000 C 
ATOM     21  C   UNL     1       6.075   5.011  17.306  0.00  0.00    +0.000 C 
ATOM     22  C   UNL     1       7.465   4.990  17.936  0.00  0.00    +0.000 C 
ENDBRANCH  19  21
ENDBRANCH  13  19
ENDBRANCH   7  18
ENDBRANCH   1  10
BRANCH   4  23
ATOM     23  N   UNL     1      -0.648  13.578  19.027  0.00  0.00    +0.000 NA
ATOM     24  H   UNL     1      -0.606  13.844  18.039  0.00  0.00    +0.000 HD
BRANCH  23  25
ATOM     25  S   UNL     1      -0.546  14.969  19.984  0.00  0.00    +0.000 S 
ATOM     26  O   UNL     1      -1.905  15.313  20.327  0.00  0.00    +0.000 OA
ATOM     27  O   UNL     1       0.443  14.714  21.012  0.00  0.00    +0.000 OA
BRANCH  25  28
ATOM     28  C   UNL     1       0.072  16.205  18.902  0.00  0.00    +0.000 A 
ATOM     29  C   UNL     1      -0.804  17.132  18.324  0.00  0.00    +0.000 A 
ATOM     30  C   UNL     1      -0.316  18.085  17.428  0.00  0.00    +0.000 A 
ATOM     31  C   UNL     1       1.037  18.099  17.097  0.00  0.00    +0.000 A 
ATOM     32  C   UNL     1       1.908  17.174  17.675  0.00  0.00    +0.000 A 
ATOM     33  C   UNL     1       1.421  16.230  18.580  0.00  0.00    +0.000 A 
ATOM     34  F   UNL     1       2.289  15.370  19.131  0.00  0.00    +0.000 F 
ENDBRANCH  25  28
ENDBRANCH  23  25
ENDBRANCH   4  23
TORSDOF 7
ENDMDL
MODEL 5
REMARK VINA RESULT:      -8.1      2.784      4.352
REMARK  Name = 
REMARK  9 active torsions:
REMARK  status: ('A' for Active; 'I' for Inactive)
REMARK    1  A    between atoms: C_1  and  C_2
REMARK    2  A    between atoms: C_2  and  C_3
REMARK    3  A    between atoms: C_2  and  O_4
REMARK    4  A    between atoms: O_4  and  C_5
REMARK    5  A    between atoms: C_10  and  N_11
REMARK    6  A    between atoms: N_14  and  C_15
REMARK    7  A    between atoms: C_18  and  N_19
REMARK    8  A    between atoms: N_19  and  S_20
REMARK    9  A    between atoms: S_20  and  C_23
REMARK                            x       y       z     vdW  Elec       q    Type
REMARK                         _______ _______ _______ _____ _____    ______ ____
ROOT
ATOM      1  C   UNL     1       2.367   7.913  19.367  0.00  0.00    +0.000 C 
ATOM      2  C   UNL     1       2.678   6.499  19.914  0.00  0.00    +0.000 C 
ATOM      3  C   UNL     1       4.028   5.967  19.411  0.00  0.00    +0.000 C 
ATOM      4  C   UNL     1       4.103   5.903  17.887  0.00  0.00    +0.000 C 
ATOM      5  C   UNL     1       3.841   7.301  17.327  0.00  0.00    +0.000 C 
ATOM      6  C   UNL     1       2.533   7.921  17.823  0.00  0.00    +0.000 C 
ENDROOT
BRANCH   1  10
ATOM      7  N   UNL     1      -0.126  10.851  21.138  0.00  0.00    +0.000 N 
ATOM      8  C   UNL     1      -0.533  10.527  19.774  0.00  0.00    +0.000 C 
ATOM      9  C   UNL     1       0.590   9.670  19.114  0.00  0.00    +0.000 C 
ATOM     10  N   UNL     1       1.079   8.491  19.870  0.00  0.00    +0.000 NA
ATOM     11  C   UNL     1       1.097   8.721  21.339  0.00  0.00    +0.000 C 
ATOM     12  C   UNL     1       0.010   9.637  21.955  0.00  0.00    +0.000 C 
BRANCH   7  18
ATOM     13  C   UNL     1       0.453  13.265  21.481  0.00  0.00    +0.000 A 
ATOM     14  C   UNL     1       0.109  14.476  22.115  0.00  0.00    +0.000 A 
ATOM     15  C   UNL     1      -0.861  14.524  23.113  0.00  0.00    +0.000 A 
ATOM     16  C   UNL     1      -1.534  13.366  23.458  0.00  0.00    +0.000 A 
ATOM     17  C   UNL     1      -1.264  12.180  22.769  0.00  0.00    +0.000 A 
ATOM     18  C   UNL     1      -0.291  12.088  21.746  0.00  0.00    +0.000 A 
BRANCH  13  19
ATOM     19  O   UNL     1       1.457  13.238  20.539  0.00  0.00    +0.000 OA
BRANCH  19  21
ATOM     20  C   UNL     1       2.698  14.203  18.714  0.00  0.00    +0.000 C 
ATOM     21  C   UNL     1       1.383  14.219  19.486  0.00  0.00    +0.000 C 
ATOM     22  C   UNL     1       0.212  13.865  18.575  0.00  0.00    +0.000 C 
ENDBRANCH  19  21
ENDBRANCH  13  19
ENDBRANCH   7  18
ENDBRANCH   1  10
BRANCH   4  23
ATOM     23  N   UNL     1       3.125   4.954  17.311  0.00  0.00    +0.000 NA
ATOM     24  H   UNL     1       2.854   5.109  16.336  0.00  0.00    +0.000 HD
BRANCH  23  25
ATOM     25  S   UNL     1       3.295   3.293  17.586  0.00  0.00    +0.000 S 
ATOM     26  O   UNL     1       2.389   2.646  16.667  0.00  0.00    +0.000 OA
ATOM     27  O   UNL     1       4.714   2.997  17.571  0.00  0.00    +0.000 OA
BRANCH  25  28
ATOM     28  C   UNL     1       2.685   3.050  19.212  0.00  0.00    +0.000 A 
ATOM     29  C   UNL     1       3.541   2.593  20.223  0.00  0.00    +0.000 A 
ATOM     30  C   UNL     1       3.042   2.358  21.504  0.00  0.00    +0.000 A 
ATOM     31  C   UNL     1       1.690   2.559  21.771  0.00  0.00    +0.000 A 
ATOM     32  C   UNL     1       0.838   3.014  20.763  0.00  0.00    +0.000 A 
ATOM     33  C   UNL     1       1.342   3.262  19.485  0.00  0.00    +0.000 A 
ATOM     34  F   UNL     1       0.499   3.717  18.548  0.00  0.00    +0.000 F 
ENDBRANCH  25  28
ENDBRANCH  23  25
ENDBRANCH   4  23
TORSDOF 7
ENDMDL
MODEL 6
REMARK VINA RESULT:      -8.1      3.829      9.745
REMARK  Name = 
REMARK  9 active torsions:
REMARK  status: ('A' for Active; 'I' for Inactive)
REMARK    1  A    between atoms: C_1  and  C_2
REMARK    2  A    between atoms: C_2  and  C_3
REMARK    3  A    between atoms: C_2  and  O_4
REMARK    4  A    between atoms: O_4  and  C_5
REMARK    5  A    between atoms: C_10  and  N_11
REMARK    6  A    between atoms: N_14  and  C_15
REMARK    7  A    between atoms: C_18  and  N_19
REMARK    8  A    between atoms: N_19  and  S_20
REMARK    9  A    between atoms: S_20  and  C_23
REMARK                            x       y       z     vdW  Elec       q    Type
REMARK                         _______ _______ _______ _____ _____    ______ ____
ROOT
ATOM      1  C   UNL     1       0.202   9.919  19.514  0.00  0.00    +0.000 C 
ATOM      2  C   UNL     1       0.336  11.148  20.445  0.00  0.00    +0.000 C 
ATOM      3  C   UNL     1      -1.000  11.880  20.635  0.00  0.00    +0.000 C 
ATOM      4  C   UNL     1      -1.599  12.360  19.315  0.00  0.00    +0.000 C 
ATOM      5  C   UNL     1      -1.781  11.153  18.394  0.00  0.00    +0.000 C 
ATOM      6  C   UNL     1      -0.500  10.341  18.194  0.00  0.00    +0.000 C 
ENDROOT
BRANCH   1  10
ATOM      7  N   UNL     1       2.571   6.513  18.635  0.00  0.00    +0.000 N 
ATOM      8  C   UNL     1       2.851   7.630  17.738  0.00  0.00    +0.000 C 
ATOM      9  C   UNL     1       1.751   8.718  17.945  0.00  0.00    +0.000 C 
ATOM     10  N   UNL     1       1.474   9.147  19.338  0.00  0.00    +0.000 NA
ATOM     11  C   UNL     1       1.600   8.033  20.315  0.00  0.00    +0.000 C 
ATOM     12  C   UNL     1       2.652   6.929  20.043  0.00  0.00    +0.000 C 
BRANCH   7  18
ATOM     13  C   UNL     1       3.868   4.479  17.956  0.00  0.00    +0.000 A 
ATOM     14  C   UNL     1       3.835   3.090  17.720  0.00  0.00    +0.000 A 
ATOM     15  C   UNL     1       2.632   2.390  17.671  0.00  0.00    +0.000 A 
ATOM     16  C   UNL     1       1.447   3.065  17.902  0.00  0.00    +0.000 A 
ATOM     17  C   UNL     1       1.480   4.424  18.227  0.00  0.00    +0.000 A 
ATOM     18  C   UNL     1       2.678   5.172  18.294  0.00  0.00    +0.000 A 
BRANCH  13  19
ATOM     19  O   UNL     1       5.068   5.155  17.942  0.00  0.00    +0.000 OA
BRANCH  19  21
ATOM     20  C   UNL     1       5.349   5.788  15.635  0.00  0.00    +0.000 C 
ATOM     21  C   UNL     1       5.908   4.960  16.787  0.00  0.00    +0.000 C 
ATOM     22  C   UNL     1       7.325   5.402  17.138  0.00  0.00    +0.000 C 
ENDBRANCH  19  21
ENDBRANCH  13  19
ENDBRANCH   7  18
ENDBRANCH   1  10
BRANCH   4  23
ATOM     23  N   UNL     1      -0.750  13.366  18.640  0.00  0.00    +0.000 NA
ATOM     24  H   UNL     1      -0.909  13.504  17.638  0.00  0.00    +0.000 HD
BRANCH  23  25
ATOM     25  S   UNL     1      -0.472  14.866  19.372  0.00  0.00    +0.000 S 
ATOM     26  O   UNL     1      -0.428  15.828  18.297  0.00  0.00    +0.000 OA
ATOM     27  O   UNL     1      -1.424  15.000  20.457  0.00  0.00    +0.000 OA
BRANCH  25  28
ATOM     28  C   UNL     1       1.140  14.734  20.050  0.00  0.00    +0.000 A 
ATOM     29  C   UNL     1       1.363  15.043  21.398  0.00  0.00    +0.000 A 
ATOM     30  C   UNL     1       2.655  14.980  21.923  0.00  0.00    +0.000 A 
ATOM     31  C   UNL     1       3.722  14.630  21.100  0.00  0.00    +0.000 A 
ATOM     32  C   UNL     1       3.499  14.323  19.757  0.00  0.00    +0.000 A 
ATOM     33  C   UNL     1       2.204  14.373  19.237  0.00  0.00    +0.000 A 
ATOM     34  F   UNL     1       2.025  14.052  17.948  0.00  0.00    +0.000 F 
ENDBRANCH  25  28
ENDBRANCH  23  25
ENDBRANCH   4  23
TORSDOF 7
ENDMDL
MODEL 7
REMARK VINA RESULT:      -8.1      2.282      3.756
REMARK  Name = 
REMARK  9 active torsions:
REMARK  status: ('A' for Active; 'I' for Inactive)
REMARK    1  A    between atoms: C_1  and  C_2
REMARK    2  A    between atoms: C_2  and  C_3
REMARK    3  A    between atoms: C_2  and  O_4
REMARK    4  A    between atoms: O_4  and  C_5
REMARK    5  A    between atoms: C_10  and  N_11
REMARK    6  A    between atoms: N_14  and  C_15
REMARK    7  A    between atoms: C_18  and  N_19
REMARK    8  A    between atoms: N_19  and  S_20
REMARK    9  A    between atoms: S_20  and  C_23
REMARK                            x       y       z     vdW  Elec       q    Type
REMARK                         _______ _______ _______ _____ _____    ______ ____
ROOT
ATOM      1  C   UNL     1       3.002   6.312  19.140  0.00  0.00    +0.000 C 
ATOM      2  C   UNL     1       2.199   5.641  18.000  0.00  0.00    +0.000 C 
ATOM      3  C   UNL     1       2.612   4.178  17.782  0.00  0.00    +0.000 C 
ATOM      4  C   UNL     1       4.096   4.029  17.456  0.00  0.00    +0.000 C 
ATOM      5  C   UNL     1       4.910   4.648  18.592  0.00  0.00    +0.000 C 
ATOM      6  C   UNL     1       4.522   6.095  18.902  0.00  0.00    +0.000 C 
ENDROOT
BRANCH   1  10
ATOM      7  N   UNL     1       0.429   9.682  19.090  0.00  0.00    +0.000 N 
ATOM      8  C   UNL     1       0.777   9.270  20.446  0.00  0.00    +0.000 C 
ATOM      9  C   UNL     1       1.476   7.877  20.375  0.00  0.00    +0.000 C 
ATOM     10  N   UNL     1       2.599   7.728  19.417  0.00  0.00    +0.000 NA
ATOM     11  C   UNL     1       2.395   8.513  18.171  0.00  0.00    +0.000 C 
ATOM     12  C   UNL     1       1.632   9.858  18.263  0.00  0.00    +0.000 C 
BRANCH   7  18
ATOM     13  C   UNL     1      -1.481  11.263  19.457  0.00  0.00    +0.000 A 
ATOM     14  C   UNL     1      -2.639  11.851  18.911  0.00  0.00    +0.000 A 
ATOM     15  C   UNL     1      -3.192  11.395  17.717  0.00  0.00    +0.000 A 
ATOM     16  C   UNL     1      -2.566  10.372  17.029  0.00  0.00    +0.000 A 
ATOM     17  C   UNL     1      -1.366   9.846  17.517  0.00  0.00    +0.000 A 
ATOM     18  C   UNL     1      -0.766  10.284  18.722  0.00  0.00    +0.000 A 
BRANCH  13  19
ATOM     19  O   UNL     1      -0.989  11.696  20.669  0.00  0.00    +0.000 OA
BRANCH  19  21
ATOM     20  C   UNL     1      -0.774  13.543  22.201  0.00  0.00    +0.000 C 
ATOM     21  C   UNL     1      -0.613  13.084  20.755  0.00  0.00    +0.000 C 
ATOM     22  C   UNL     1       0.836  13.222  20.298  0.00  0.00    +0.000 C 
ENDBRANCH  19  21
ENDBRANCH  13  19
ENDBRANCH   7  18
ENDBRANCH   1  10
BRANCH   4  23
ATOM     23  N   UNL     1       4.463   4.682  16.179  0.00  0.00    +0.000 NA
ATOM     24  H   UNL     1       3.913   5.503  15.908  0.00  0.00    +0.000 HD
BRANCH  23  25
ATOM     25  S   UNL     1       6.091   4.951  15.804  0.00  0.00    +0.000 S 
ATOM     26  O   UNL     1       6.279   6.381  15.868  0.00  0.00    +0.000 OA
ATOM     27  O   UNL     1       6.878   4.055  16.626  0.00  0.00    +0.000 OA
BRANCH  25  28
ATOM     28  C   UNL     1       6.244   4.458  14.127  0.00  0.00    +0.000 A 
ATOM     29  C   UNL     1       5.262   3.650  13.540  0.00  0.00    +0.000 A 
ATOM     30  C   UNL     1       5.409   3.222  12.220  0.00  0.00    +0.000 A 
ATOM     31  C   UNL     1       6.542   3.584  11.495  0.00  0.00    +0.000 A 
ATOM     32  C   UNL     1       7.520   4.389  12.081  0.00  0.00    +0.000 A 
ATOM     33  C   UNL     1       7.364   4.827  13.398  0.00  0.00    +0.000 A 
ATOM     34  F   UNL     1       8.313   5.616  13.921  0.00  0.00    +0.000 F 
ENDBRANCH  25  28
ENDBRANCH  23  25
ENDBRANCH   4  23
TORSDOF 7
ENDMDL
MODEL 8
REMARK VINA RESULT:      -8.0      4.498     10.267
REMARK  Name = 
REMARK  9 active torsions:
REMARK  status: ('A' for Active; 'I' for Inactive)
REMARK    1  A    between atoms: C_1  and  C_2
REMARK    2  A    between atoms: C_2  and  C_3
REMARK    3  A    between atoms: C_2  and  O_4
REMARK    4  A    between atoms: O_4  and  C_5
REMARK    5  A    between atoms: C_10  and  N_11
REMARK    6  A    between atoms: N_14  and  C_15
REMARK    7  A    between atoms: C_18  and  N_19
REMARK    8  A    between atoms: N_19  and  S_20
REMARK    9  A    between atoms: S_20  and  C_23
REMARK                            x       y       z     vdW  Elec       q    Type
REMARK                         _______ _______ _______ _____ _____    ______ ____
ROOT
ATOM      1  C   UNL     1       0.443   9.751  19.616  0.00  0.00    +0.000 C 
ATOM      2  C   UNL     1       0.588  10.862  20.684  0.00  0.00    +0.000 C 
ATOM      3  C   UNL     1      -0.708  11.665  20.865  0.00  0.00    +0.000 C 
ATOM      4  C   UNL     1      -1.176  12.324  19.569  0.00  0.00    +0.000 C 
ATOM      5  C   UNL     1      -1.368  11.238  18.511  0.00  0.00    +0.000 C 
ATOM      6  C   UNL     1      -0.131  10.361  18.308  0.00  0.00    +0.000 C 
ENDROOT
BRANCH   1  10
ATOM      7  N   UNL     1       2.625   6.217  18.761  0.00  0.00    +0.000 N 
ATOM      8  C   UNL     1       2.955   7.307  17.849  0.00  0.00    +0.000 C 
ATOM      9  C   UNL     1       1.916   8.453  18.051  0.00  0.00    +0.000 C 
ATOM     10  N   UNL     1       1.672   8.912  19.440  0.00  0.00    +0.000 NA
ATOM     11  C   UNL     1       1.747   7.805  20.429  0.00  0.00    +0.000 C 
ATOM     12  C   UNL     1       2.738   6.644  20.163  0.00  0.00    +0.000 C 
BRANCH   7  18
ATOM     13  C   UNL     1       3.795   4.128  18.021  0.00  0.00    +0.000 A 
ATOM     14  C   UNL     1       3.697   2.738  17.811  0.00  0.00    +0.000 A 
ATOM     15  C   UNL     1       2.469   2.081  17.863  0.00  0.00    +0.000 A 
ATOM     16  C   UNL     1       1.330   2.801  18.170  0.00  0.00    +0.000 A 
ATOM     17  C   UNL     1       1.434   4.163  18.470  0.00  0.00    +0.000 A 
ATOM     18  C   UNL     1       2.660   4.868  18.435  0.00  0.00    +0.000 A 
BRANCH  13  19
ATOM     19  O   UNL     1       5.014   4.760  17.906  0.00  0.00    +0.000 OA
BRANCH  19  21
ATOM     20  C   UNL     1       5.424   5.371  15.612  0.00  0.00    +0.000 C 
ATOM     21  C   UNL     1       5.808   4.431  16.750  0.00  0.00    +0.000 C 
ATOM     22  C   UNL     1       7.282   4.589  17.113  0.00  0.00    +0.000 C 
ENDBRANCH  19  21
ENDBRANCH  13  19
ENDBRANCH   7  18
ENDBRANCH   1  10
BRANCH   4  23
ATOM     23  N   UNL     1      -0.216  13.332  19.068  0.00  0.00    +0.000 NA
ATOM     24  H   UNL     1      -0.352  13.659  18.107  0.00  0.00    +0.000 HD
BRANCH  23  25
ATOM     25  S   UNL     1       0.224  14.642  20.045  0.00  0.00    +0.000 S 
ATOM     26  O   UNL     1      -0.960  14.988  20.796  0.00  0.00    +0.000 OA
ATOM     27  O   UNL     1       1.457  14.285  20.717  0.00  0.00    +0.000 OA
BRANCH  25  28
ATOM     28  C   UNL     1       0.552  15.944  18.916  0.00  0.00    +0.000 A 
ATOM     29  C   UNL     1       1.859  16.166  18.462  0.00  0.00    +0.000 A 
ATOM     30  C   UNL     1       2.124  17.231  17.600  0.00  0.00    +0.000 A 
ATOM     31  C   UNL     1       1.093  18.081  17.208  0.00  0.00    +0.000 A 
ATOM     32  C   UNL     1      -0.208  17.858  17.662  0.00  0.00    +0.000 A 
ATOM     33  C   UNL     1      -0.474  16.785  18.514  0.00  0.00    +0.000 A 
ATOM     34  F   UNL     1      -1.738  16.589  18.913  0.00  0.00    +0.000 F 
ENDBRANCH  25  28
ENDBRANCH  23  25
ENDBRANCH   4  23
TORSDOF 7
ENDMDL
MODEL 9
REMARK VINA RESULT:      -8.0      2.798      4.662
REMARK  Name = 
REMARK  9 active torsions:
REMARK  status: ('A' for Active; 'I' for Inactive)
REMARK    1  A    between atoms: C_1  and  C_2
REMARK    2  A    between atoms: C_2  and  C_3
REMARK    3  A    between atoms: C_2  and  O_4
REMARK    4  A    between atoms: O_4  and  C_5
REMARK    5  A    between atoms: C_10  and  N_11
REMARK    6  A    between atoms: N_14  and  C_15
REMARK    7  A    between atoms: C_18  and  N_19
REMARK    8  A    between atoms: N_19  and  S_20
REMARK    9  A    between atoms: S_20  and  C_23
REMARK                            x       y       z     vdW  Elec       q    Type
REMARK                         _______ _______ _______ _____ _____    ______ ____
ROOT
ATOM      1  C   UNL     1       2.501   8.047  19.097  0.00  0.00    +0.000 C 
ATOM      2  C   UNL     1       2.587   6.648  19.756  0.00  0.00    +0.000 C 
ATOM      3  C   UNL     1       3.914   5.941  19.445  0.00  0.00    +0.000 C 
ATOM      4  C   UNL     1       4.148   5.765  17.946  0.00  0.00    +0.000 C 
ATOM      5  C   UNL     1       4.110   7.141  17.281  0.00  0.00    +0.000 C 
ATOM      6  C   UNL     1       2.835   7.929  17.585  0.00  0.00    +0.000 C 
ENDROOT
BRANCH   1  10
ATOM      7  N   UNL     1       0.178  11.235  20.652  0.00  0.00    +0.000 N 
ATOM      8  C   UNL     1      -0.009  11.062  19.215  0.00  0.00    +0.000 C 
ATOM      9  C   UNL     1       1.081  10.077  18.690  0.00  0.00    +0.000 C 
ATOM     10  N   UNL     1       1.240   8.792  19.414  0.00  0.00    +0.000 NA
ATOM     11  C   UNL     1       1.015   8.928  20.877  0.00  0.00    +0.000 C 
ATOM     12  C   UNL     1      -0.022   9.968  21.370  0.00  0.00    +0.000 C 
BRANCH   7  18
ATOM     13  C   UNL     1       1.032  13.497  21.311  0.00  0.00    +0.000 A 
ATOM     14  C   UNL     1       0.757  14.708  21.977  0.00  0.00    +0.000 A 
ATOM     15  C   UNL     1      -0.371  14.854  22.781  0.00  0.00    +0.000 A 
ATOM     16  C   UNL     1      -1.264  13.803  22.892  0.00  0.00    +0.000 A 
ATOM     17  C   UNL     1      -1.045  12.632  22.160  0.00  0.00    +0.000 A 
ATOM     18  C   UNL     1       0.084  12.444  21.328  0.00  0.00    +0.000 A 
BRANCH  13  19
ATOM     19  O   UNL     1       2.185  13.362  20.569  0.00  0.00    +0.000 OA
BRANCH  19  21
ATOM     20  C   UNL     1       3.840  14.935  19.800  0.00  0.00    +0.000 C 
ATOM     21  C   UNL     1       2.439  14.375  19.577  0.00  0.00    +0.000 C 
ATOM     22  C   UNL     1       2.320  13.740  18.195  0.00  0.00    +0.000 C 
ENDBRANCH  19  21
ENDBRANCH  13  19
ENDBRANCH   7  18
ENDBRANCH   1  10
BRANCH   4  23
ATOM     23  N   UNL     1       3.137   4.888  17.315  0.00  0.00    +0.000 NA
ATOM     24  H   UNL     1       2.906   5.083  16.336  0.00  0.00    +0.000 HD
BRANCH  23  25
ATOM     25  S   UNL     1       3.204   3.214  17.549  0.00  0.00    +0.000 S 
ATOM     26  O   UNL     1       2.269   2.645  16.607  0.00  0.00    +0.000 OA
ATOM     27  O   UNL     1       4.602   2.832  17.538  0.00  0.00    +0.000 OA
BRANCH  25  28
ATOM     28  C   UNL     1       2.565   2.968  19.165  0.00  0.00    +0.000 A 
ATOM     29  C   UNL     1       1.212   3.217  19.430  0.00  0.00    +0.000 A 
ATOM     30  C   UNL     1       0.717   3.065  20.726  0.00  0.00    +0.000 A 
ATOM     31  C   UNL     1       1.574   2.684  21.756  0.00  0.00    +0.000 A 
ATOM     32  C   UNL     1       2.922   2.438  21.490  0.00  0.00    +0.000 A 
ATOM     33  C   UNL     1       3.413   2.578  20.191  0.00  0.00    +0.000 A 
ATOM     34  F   UNL     1       4.707   2.312  19.969  0.00  0.00    +0.000 F 
ENDBRANCH  25  28
ENDBRANCH  23  25
ENDBRANCH   4  23
TORSDOF 7
ENDMDL
