MODEL 1
REMARK VINA RESULT:      -7.2      0.000      0.000
REMARK  Name = 
REMARK  9 active torsions:
REMARK  status: ('A' for Active; 'I' for Inactive)
REMARK    1  A    between atoms: C_1  and  N_2
REMARK    2  A    between atoms: N_2  and  C_3
REMARK    3  A    between atoms: N_2  and  C_4
REMARK    4  A    between atoms: C_7  and  C_8
REMARK    5  A    between atoms: C_8  and  C_9
REMARK    6  A    between atoms: C_8  and  C_16
REMARK    7  A    between atoms: C_19  and  N_20
REMARK    8  A    between atoms: N_20  and  C_21
REMARK    9  A    between atoms: N_20  and  C_22
REMARK                            x       y       z     vdW  Elec       q    Type
REMARK                         _______ _______ _______ _____ _____    ______ ____
ROOT
ATOM      1  C   UNL     1       0.510  10.505  19.696  0.00  0.00    +0.000 C 
ENDROOT
BRANCH   1   2
ATOM      2  C   UNL     1      -0.834  10.676  18.962  0.00  0.00    +0.000 A 
ATOM      3  C   UNL     1      -1.124  10.001  17.768  0.00  0.00    +0.000 A 
ATOM      4  C   UNL     1      -2.328  10.217  17.096  0.00  0.00    +0.000 A 
ATOM      5  C   UNL     1      -3.242  11.142  17.594  0.00  0.00    +0.000 A 
ATOM      6 CL   UNL     1      -4.716  11.429  16.755  0.00  0.00    +0.000 Cl
ATOM      7  C   UNL     1      -2.961  11.849  18.761  0.00  0.00    +0.000 A 
ATOM      8  C   UNL     1      -1.767  11.613  19.446  0.00  0.00    +0.000 A 
ENDBRANCH   1   2
BRANCH   1  12
ATOM      9  C   UNL     1       2.997  14.122  19.292  0.00  0.00    +0.000 A 
ATOM     10  C   UNL     1       2.595  13.357  18.186  0.00  0.00    +0.000 A 
ATOM     11  C   UNL     1       1.766  12.232  18.315  0.00  0.00    +0.000 A 
ATOM     12  C   UNL     1       1.288  11.823  19.568  0.00  0.00    +0.000 A 
ATOM     13  C   UNL     1       1.656  12.589  20.678  0.00  0.00    +0.000 A 
ATOM     14  C   UNL     1       2.473  13.721  20.534  0.00  0.00    +0.000 A 
BRANCH   9  16
ATOM     15  C   UNL     1       3.281  16.575  19.162  0.00  0.00    +0.000 C 
ATOM     16  N   UNL     1       3.847  15.228  19.173  0.00  0.00    +0.000 N 
ATOM     17  C   UNL     1       5.102  15.055  18.443  0.00  0.00    +0.000 C 
ENDBRANCH   9  16
ENDBRANCH   1  12
BRANCH   1  18
ATOM     18  C   UNL     1       1.283   9.208  19.385  0.00  0.00    +0.000 A 
ATOM     19  C   UNL     1       1.965   9.024  18.178  0.00  0.00    +0.000 A 
ATOM     20  C   UNL     1       2.674   7.839  17.913  0.00  0.00    +0.000 A 
ATOM     21  C   UNL     1       2.774   6.792  18.842  0.00  0.00    +0.000 A 
ATOM     22  C   UNL     1       2.137   7.011  20.068  0.00  0.00    +0.000 A 
ATOM     23  C   UNL     1       1.429   8.194  20.345  0.00  0.00    +0.000 A 
BRANCH  21  24
ATOM     24  N   UNL     1       3.435   5.612  18.538  0.00  0.00    +0.000 N 
ATOM     25  C   UNL     1       4.693   5.274  19.199  0.00  0.00    +0.000 C 
ATOM     26  C   UNL     1       2.770   4.499  17.870  0.00  0.00    +0.000 C 
ENDBRANCH  21  24
ENDBRANCH   1  18
TORSDOF 5
ENDMDL
MODEL 2
REMARK VINA RESULT:      -7.2      0.472      1.048
REMARK  Name = 
REMARK  9 active torsions:
REMARK  status: ('A' for Active; 'I' for Inactive)
REMARK    1  A    between atoms: C_1  and  N_2
REMARK    2  A    between atoms: N_2  and  C_3
REMARK    3  A    between atoms: N_2  and  C_4
REMARK    4  A    between atoms: C_7  and  C_8
REMARK    5  A    between atoms: C_8  and  C_9
REMARK    6  A    between atoms: C_8  and  C_16
REMARK    7  A    between atoms: C_19  and  N_20
REMARK    8  A    between atoms: N_20  and  C_21
REMARK    9  A    between atoms: N_20  and  C_22
REMARK                            x       y       z     vdW  Elec       q    Type
REMARK                         _______ _______ _______ _____ _____    ______ ____
ROOT
ATOM      1  C   UNL     1       0.552  10.483  19.641  0.00  0.00    +0.000 C 
ENDROOT
BRANCH   1   2
ATOM      2  C   UNL     1      -0.787  10.654  18.899  0.00  0.00    +0.000 A 
ATOM      3  C   UNL     1      -1.065   9.989  17.696  0.00  0.00    +0.000 A 
ATOM      4  C   UNL     1      -2.265  10.205  17.017  0.00  0.00    +0.000 A 
ATOM      5  C   UNL     1      -3.188  11.120  17.517  0.00  0.00    +0.000 A 
ATOM      6 CL   UNL     1      -4.657  11.406  16.670  0.00  0.00    +0.000 Cl
ATOM      7  C   UNL     1      -2.920  11.816  18.694  0.00  0.00    +0.000 A 
ATOM      8  C   UNL     1      -1.730  11.581  19.385  0.00  0.00    +0.000 A 
ENDBRANCH   1   2
BRANCH   1  12
ATOM      9  C   UNL     1       2.523  14.413  19.317  0.00  0.00    +0.000 A 
ATOM     10  C   UNL     1       2.132  13.866  20.549  0.00  0.00    +0.000 A 
ATOM     11  C   UNL     1       1.546  12.595  20.652  0.00  0.00    +0.000 A 
ATOM     12  C   UNL     1       1.331  11.801  19.516  0.00  0.00    +0.000 A 
ATOM     13  C   UNL     1       1.738  12.319  18.284  0.00  0.00    +0.000 A 
ATOM     14  C   UNL     1       2.338  13.585  18.196  0.00  0.00    +0.000 A 
BRANCH   9  16
ATOM     15  C   UNL     1       2.679  16.562  18.104  0.00  0.00    +0.000 C 
ATOM     16  N   UNL     1       3.082  15.692  19.206  0.00  0.00    +0.000 N 
ATOM     17  C   UNL     1       4.434  15.899  19.724  0.00  0.00    +0.000 C 
ENDBRANCH   9  16
ENDBRANCH   1  12
BRANCH   1  18
ATOM     18  C   UNL     1       1.326   9.185  19.337  0.00  0.00    +0.000 A 
ATOM     19  C   UNL     1       2.006   8.994  18.129  0.00  0.00    +0.000 A 
ATOM     20  C   UNL     1       2.715   7.809  17.871  0.00  0.00    +0.000 A 
ATOM     21  C   UNL     1       2.819   6.769  18.807  0.00  0.00    +0.000 A 
ATOM     22  C   UNL     1       2.185   6.995  20.033  0.00  0.00    +0.000 A 
ATOM     23  C   UNL     1       1.477   8.179  20.304  0.00  0.00    +0.000 A 
BRANCH  21  24
ATOM     24  N   UNL     1       3.482   5.588  18.508  0.00  0.00    +0.000 N 
ATOM     25  C   UNL     1       4.682   5.202  19.247  0.00  0.00    +0.000 C 
ATOM     26  C   UNL     1       2.850   4.511  17.754  0.00  0.00    +0.000 C 
ENDBRANCH  21  24
ENDBRANCH   1  18
TORSDOF 5
ENDMDL
MODEL 3
REMARK VINA RESULT:      -7.2      0.242      1.192
REMARK  Name = 
REMARK  9 active torsions:
REMARK  status: ('A' for Active; 'I' for Inactive)
REMARK    1  A    between atoms: C_1  and  N_2
REMARK    2  A    between atoms: N_2  and  C_3
REMARK    3  A    between atoms: N_2  and  C_4
REMARK    4  A    between atoms: C_7  and  C_8
REMARK    5  A    between atoms: C_8  and  C_9
REMARK    6  A    between atoms: C_8  and  C_16
REMARK    7  A    between atoms: C_19  and  N_20
REMARK    8  A    between atoms: N_20  and  C_21
REMARK    9  A    between atoms: N_20  and  C_22
REMARK                            x       y       z     vdW  Elec       q    Type
REMARK                         _______ _______ _______ _____ _____    ______ ____
ROOT
ATOM      1  C   UNL     1       0.480  10.666  19.764  0.00  0.00    +0.000 C 
ENDROOT
BRANCH   1   2
ATOM      2  C   UNL     1      -0.844  10.875  19.006  0.00  0.00    +0.000 A 
ATOM      3  C   UNL     1      -1.834  11.759  19.460  0.00  0.00    +0.000 A 
ATOM      4  C   UNL     1      -3.047  11.887  18.783  0.00  0.00    +0.000 A 
ATOM      5  C   UNL     1      -3.300  11.104  17.659  0.00  0.00    +0.000 A 
ATOM      6 CL   UNL     1      -4.804  11.242  16.837  0.00  0.00    +0.000 Cl
ATOM      7  C   UNL     1      -2.345  10.195  17.209  0.00  0.00    +0.000 A 
ATOM      8  C   UNL     1      -1.121  10.086  17.872  0.00  0.00    +0.000 A 
ENDBRANCH   1   2
BRANCH   1  12
ATOM      9  C   UNL     1       3.155  14.130  19.235  0.00  0.00    +0.000 A 
ATOM     10  C   UNL     1       2.706  13.354  18.155  0.00  0.00    +0.000 A 
ATOM     11  C   UNL     1       1.818  12.279  18.323  0.00  0.00    +0.000 A 
ATOM     12  C   UNL     1       1.327  11.936  19.591  0.00  0.00    +0.000 A 
ATOM     13  C   UNL     1       1.742  12.715  20.674  0.00  0.00    +0.000 A 
ATOM     14  C   UNL     1       2.618  13.796  20.490  0.00  0.00    +0.000 A 
BRANCH   9  16
ATOM     15  C   UNL     1       3.673  16.536  19.470  0.00  0.00    +0.000 C 
ATOM     16  N   UNL     1       4.062  15.185  19.076  0.00  0.00    +0.000 N 
ATOM     17  C   UNL     1       5.046  15.089  17.998  0.00  0.00    +0.000 C 
ENDBRANCH   9  16
ENDBRANCH   1  12
BRANCH   1  18
ATOM     18  C   UNL     1       1.188   9.319  19.518  0.00  0.00    +0.000 A 
ATOM     19  C   UNL     1       1.863   9.044  18.324  0.00  0.00    +0.000 A 
ATOM     20  C   UNL     1       2.512   7.814  18.119  0.00  0.00    +0.000 A 
ATOM     21  C   UNL     1       2.558   6.809  19.097  0.00  0.00    +0.000 A 
ATOM     22  C   UNL     1       1.930   7.118  20.309  0.00  0.00    +0.000 A 
ATOM     23  C   UNL     1       1.282   8.347  20.526  0.00  0.00    +0.000 A 
BRANCH  21  24
ATOM     24  N   UNL     1       3.160   5.585  18.852  0.00  0.00    +0.000 N 
ATOM     25  C   UNL     1       2.562   4.639  17.912  0.00  0.00    +0.000 C 
ATOM     26  C   UNL     1       4.555   5.322  19.188  0.00  0.00    +0.000 C 
ENDBRANCH  21  24
ENDBRANCH   1  18
TORSDOF 5
ENDMDL
MODEL 4
REMARK VINA RESULT:      -7.2      0.566      1.446
REMARK  Name = 
REMARK  9 active torsions:
REMARK  status: ('A' for Active; 'I' for Inactive)
REMARK    1  A    between atoms: C_1  and  N_2
REMARK    2  A    between atoms: N_2  and  C_3
REMARK    3  A    between atoms: N_2  and  C_4
REMARK    4  A    between atoms: C_7  and  C_8
REMARK    5  A    between atoms: C_8  and  C_9
REMARK    6  A    between atoms: C_8  and  C_16
REMARK    7  A    between atoms: C_19  and  N_20
REMARK    8  A    between atoms: N_20  and  C_21
REMARK    9  A    between atoms: N_20  and  C_22
REMARK                            x       y       z     vdW  Elec       q    Type
REMARK                         _______ _______ _______ _____ _____    ______ ____
ROOT
ATOM      1  C   UNL     1       0.568  10.626  19.646  0.00  0.00    +0.000 C 
ENDROOT
BRANCH   1   2
ATOM      2  C   UNL     1      -0.772  10.831  18.914  0.00  0.00    +0.000 A 
ATOM      3  C   UNL     1      -1.750  11.721  19.382  0.00  0.00    +0.000 A 
ATOM      4  C   UNL     1      -2.977  11.846  18.730  0.00  0.00    +0.000 A 
ATOM      5  C   UNL     1      -3.255  11.054  17.619  0.00  0.00    +0.000 A 
ATOM      6 CL   UNL     1      -4.775  11.188  16.827  0.00  0.00    +0.000 Cl
ATOM      7  C   UNL     1      -2.311  10.140  17.155  0.00  0.00    +0.000 A 
ATOM      8  C   UNL     1      -1.074  10.034  17.794  0.00  0.00    +0.000 A 
ENDBRANCH   1   2
BRANCH   1  12
ATOM      9  C   UNL     1       2.658  14.488  19.255  0.00  0.00    +0.000 A 
ATOM     10  C   UNL     1       2.249  13.975  20.496  0.00  0.00    +0.000 A 
ATOM     11  C   UNL     1       1.624  12.724  20.621  0.00  0.00    +0.000 A 
ATOM     12  C   UNL     1       1.387  11.918  19.498  0.00  0.00    +0.000 A 
ATOM     13  C   UNL     1       1.813  12.400  18.258  0.00  0.00    +0.000 A 
ATOM     14  C   UNL     1       2.450  13.646  18.149  0.00  0.00    +0.000 A 
BRANCH   9  16
ATOM     15  C   UNL     1       3.299  16.649  20.270  0.00  0.00    +0.000 C 
ATOM     16  N   UNL     1       3.256  15.747  19.122  0.00  0.00    +0.000 N 
ATOM     17  C   UNL     1       3.232  16.384  17.806  0.00  0.00    +0.000 C 
ENDBRANCH   9  16
ENDBRANCH   1  12
BRANCH   1  18
ATOM     18  C   UNL     1       1.298   9.301  19.349  0.00  0.00    +0.000 A 
ATOM     19  C   UNL     1       1.962   9.077  18.138  0.00  0.00    +0.000 A 
ATOM     20  C   UNL     1       2.632   7.866  17.887  0.00  0.00    +0.000 A 
ATOM     21  C   UNL     1       2.709   6.833  18.832  0.00  0.00    +0.000 A 
ATOM     22  C   UNL     1       2.091   7.091  20.060  0.00  0.00    +0.000 A 
ATOM     23  C   UNL     1       1.423   8.300  20.324  0.00  0.00    +0.000 A 
BRANCH  21  24
ATOM     24  N   UNL     1       3.331   5.628  18.541  0.00  0.00    +0.000 N 
ATOM     25  C   UNL     1       4.535   5.221  19.261  0.00  0.00    +0.000 C 
ATOM     26  C   UNL     1       2.653   4.558  17.818  0.00  0.00    +0.000 C 
ENDBRANCH  21  24
ENDBRANCH   1  18
TORSDOF 5
ENDMDL
MODEL 5
REMARK VINA RESULT:      -7.1      0.479      1.094
REMARK  Name = 
REMARK  9 active torsions:
REMARK  status: ('A' for Active; 'I' for Inactive)
REMARK    1  A    between atoms: C_1  and  N_2
REMARK    2  A    between atoms: N_2  and  C_3
REMARK    3  A    between atoms: N_2  and  C_4
REMARK    4  A    between atoms: C_7  and  C_8
REMARK    5  A    between atoms: C_8  and  C_9
REMARK    6  A    between atoms: C_8  and  C_16
REMARK    7  A    between atoms: C_19  and  N_20
REMARK    8  A    between atoms: N_20  and  C_21
REMARK    9  A    between atoms: N_20  and  C_22
REMARK                            x       y       z     vdW  Elec       q    Type
REMARK                         _______ _______ _______ _____ _____    ______ ____
ROOT
ATOM      1  C   UNL     1       0.544  10.534  19.677  0.00  0.00    +0.000 C 
ENDROOT
BRANCH   1   2
ATOM      2  C   UNL     1      -0.799  10.686  18.939  0.00  0.00    +0.000 A 
ATOM      3  C   UNL     1      -1.081   9.996  17.751  0.00  0.00    +0.000 A 
ATOM      4  C   UNL     1      -2.285  10.194  17.074  0.00  0.00    +0.000 A 
ATOM      5  C   UNL     1      -3.210  11.115  17.562  0.00  0.00    +0.000 A 
ATOM      6 CL   UNL     1      -4.684  11.380  16.717  0.00  0.00    +0.000 Cl
ATOM      7  C   UNL     1      -2.937  11.836  18.722  0.00  0.00    +0.000 A 
ATOM      8  C   UNL     1      -1.743  11.618  19.412  0.00  0.00    +0.000 A 
ENDBRANCH   1   2
BRANCH   1  12
ATOM      9  C   UNL     1       2.973  14.194  19.305  0.00  0.00    +0.000 A 
ATOM     10  C   UNL     1       2.626  13.405  18.197  0.00  0.00    +0.000 A 
ATOM     11  C   UNL     1       1.815  12.266  18.314  0.00  0.00    +0.000 A 
ATOM     12  C   UNL     1       1.301  11.866  19.556  0.00  0.00    +0.000 A 
ATOM     13  C   UNL     1       1.614  12.655  20.666  0.00  0.00    +0.000 A 
ATOM     14  C   UNL     1       2.414  13.801  20.534  0.00  0.00    +0.000 A 
BRANCH   9  16
ATOM     15  C   UNL     1       3.370  16.592  19.759  0.00  0.00    +0.000 C 
ATOM     16  N   UNL     1       3.805  15.315  19.199  0.00  0.00    +0.000 N 
ATOM     17  C   UNL     1       4.710  15.393  18.053  0.00  0.00    +0.000 C 
ENDBRANCH   9  16
ENDBRANCH   1  12
BRANCH   1  18
ATOM     18  C   UNL     1       1.341   9.251  19.364  0.00  0.00    +0.000 A 
ATOM     19  C   UNL     1       1.452   8.206  20.287  0.00  0.00    +0.000 A 
ATOM     20  C   UNL     1       2.175   7.039  19.984  0.00  0.00    +0.000 A 
ATOM     21  C   UNL     1       2.791   6.831  18.741  0.00  0.00    +0.000 A 
ATOM     22  C   UNL     1       2.624   7.857  17.805  0.00  0.00    +0.000 A 
ATOM     23  C   UNL     1       1.900   9.027  18.097  0.00  0.00    +0.000 A 
BRANCH  21  24
ATOM     24  N   UNL     1       3.542   5.693  18.484  0.00  0.00    +0.000 N 
ATOM     25  C   UNL     1       4.403   5.622  17.307  0.00  0.00    +0.000 C 
ATOM     26  C   UNL     1       3.818   4.696  19.512  0.00  0.00    +0.000 C 
ENDBRANCH  21  24
ENDBRANCH   1  18
TORSDOF 5
ENDMDL
MODEL 6
REMARK VINA RESULT:      -7.1      0.473      1.824
REMARK  Name = 
REMARK  9 active torsions:
REMARK  status: ('A' for Active; 'I' for Inactive)
REMARK    1  A    between atoms: C_1  and  N_2
REMARK    2  A    between atoms: N_2  and  C_3
REMARK    3  A    between atoms: N_2  and  C_4
REMARK    4  A    between atoms: C_7  and  C_8
REMARK    5  A    between atoms: C_8  and  C_9
REMARK    6  A    between atoms: C_8  and  C_16
REMARK    7  A    between atoms: C_19  and  N_20
REMARK    8  A    between atoms: N_20  and  C_21
REMARK    9  A    between atoms: N_20  and  C_22
REMARK                            x       y       z     vdW  Elec       q    Type
REMARK                         _______ _______ _______ _____ _____    ______ ____
ROOT
ATOM      1  C   UNL     1       0.596  10.601  19.707  0.00  0.00    +0.000 C 
ENDROOT
BRANCH   1   2
ATOM      2  C   UNL     1      -0.721  10.800  18.933  0.00  0.00    +0.000 A 
ATOM      3  C   UNL     1      -1.714  11.691  19.365  0.00  0.00    +0.000 A 
ATOM      4  C   UNL     1      -2.921  11.809  18.674  0.00  0.00    +0.000 A 
ATOM      5  C   UNL     1      -3.163  11.009  17.560  0.00  0.00    +0.000 A 
ATOM      6 CL   UNL     1      -4.658  11.136  16.722  0.00  0.00    +0.000 Cl
ATOM      7  C   UNL     1      -2.204  10.094  17.132  0.00  0.00    +0.000 A 
ATOM      8  C   UNL     1      -0.987   9.994  17.809  0.00  0.00    +0.000 A 
ENDBRANCH   1   2
BRANCH   1  12
ATOM      9  C   UNL     1       2.750  14.419  19.244  0.00  0.00    +0.000 A 
ATOM     10  C   UNL     1       2.295  13.958  20.489  0.00  0.00    +0.000 A 
ATOM     11  C   UNL     1       1.649  12.721  20.639  0.00  0.00    +0.000 A 
ATOM     12  C   UNL     1       1.437  11.876  19.540  0.00  0.00    +0.000 A 
ATOM     13  C   UNL     1       1.908  12.307  18.296  0.00  0.00    +0.000 A 
ATOM     14  C   UNL     1       2.566  13.540  18.163  0.00  0.00    +0.000 A 
BRANCH   9  16
ATOM     15  C   UNL     1       3.177  16.412  17.844  0.00  0.00    +0.000 C 
ATOM     16  N   UNL     1       3.369  15.665  19.084  0.00  0.00    +0.000 N 
ATOM     17  C   UNL     1       4.631  15.901  19.786  0.00  0.00    +0.000 C 
ENDBRANCH   9  16
ENDBRANCH   1  12
BRANCH   1  18
ATOM     18  C   UNL     1       1.316   9.258  19.475  0.00  0.00    +0.000 A 
ATOM     19  C   UNL     1       1.327   8.247  20.442  0.00  0.00    +0.000 A 
ATOM     20  C   UNL     1       1.980   7.024  20.212  0.00  0.00    +0.000 A 
ATOM     21  C   UNL     1       2.622   6.724  19.001  0.00  0.00    +0.000 A 
ATOM     22  C   UNL     1       2.555   7.719  18.020  0.00  0.00    +0.000 A 
ATOM     23  C   UNL     1       1.900   8.944  18.238  0.00  0.00    +0.000 A 
BRANCH  21  24
ATOM     24  N   UNL     1       3.304   5.531  18.817  0.00  0.00    +0.000 N 
ATOM     25  C   UNL     1       2.806   4.529  17.877  0.00  0.00    +0.000 C 
ATOM     26  C   UNL     1       4.694   5.358  19.223  0.00  0.00    +0.000 C 
ENDBRANCH  21  24
ENDBRANCH   1  18
TORSDOF 5
ENDMDL
MODEL 7
REMARK VINA RESULT:      -7.0      2.957      5.523
REMARK  Name = 
REMARK  9 active torsions:
REMARK  status: ('A' for Active; 'I' for Inactive)
REMARK    1  A    between atoms: C_1  and  N_2
REMARK    2  A    between atoms: N_2  and  C_3
REMARK    3  A    between atoms: N_2  and  C_4
REMARK    4  A    between atoms: C_7  and  C_8
REMARK    5  A    between atoms: C_8  and  C_9
REMARK    6  A    between atoms: C_8  and  C_16
REMARK    7  A    between atoms: C_19  and  N_20
REMARK    8  A    between atoms: N_20  and  C_21
REMARK    9  A    between atoms: N_20  and  C_22
REMARK                            x       y       z     vdW  Elec       q    Type
REMARK                         _______ _______ _______ _____ _____    ______ ____
ROOT
ATOM      1  C   UNL     1       0.503  10.773  18.342  0.00  0.00    +0.000 C 
ENDROOT
BRANCH   1   2
ATOM      2  C   UNL     1       0.987  12.025  19.095  0.00  0.00    +0.000 A 
ATOM      3  C   UNL     1       0.820  12.176  20.480  0.00  0.00    +0.000 A 
ATOM      4  C   UNL     1       1.219  13.345  21.128  0.00  0.00    +0.000 A 
ATOM      5  C   UNL     1       1.759  14.396  20.390  0.00  0.00    +0.000 A 
ATOM      6 CL   UNL     1       2.229  15.848  21.183  0.00  0.00    +0.000 Cl
ATOM      7  C   UNL     1       1.904  14.282  19.010  0.00  0.00    +0.000 A 
ATOM      8  C   UNL     1       1.528  13.102  18.366  0.00  0.00    +0.000 A 
ENDBRANCH   1   2
BRANCH   1  12
ATOM      9  C   UNL     1      -3.883  11.001  17.959  0.00  0.00    +0.000 A 
ATOM     10  C   UNL     1      -3.123  10.002  17.331  0.00  0.00    +0.000 A 
ATOM     11  C   UNL     1      -1.732   9.906  17.492  0.00  0.00    +0.000 A 
ATOM     12  C   UNL     1      -1.033  10.809  18.305  0.00  0.00    +0.000 A 
ATOM     13  C   UNL     1      -1.776  11.794  18.960  0.00  0.00    +0.000 A 
ATOM     14  C   UNL     1      -3.169  11.870  18.803  0.00  0.00    +0.000 A 
BRANCH   9  16
ATOM     15  C   UNL     1      -5.812  12.313  17.140  0.00  0.00    +0.000 C 
ATOM     16  N   UNL     1      -5.267  11.118  17.779  0.00  0.00    +0.000 N 
ATOM     17  C   UNL     1      -6.144  10.447  18.738  0.00  0.00    +0.000 C 
ENDBRANCH   9  16
ENDBRANCH   1  12
BRANCH   1  18
ATOM     18  C   UNL     1       1.158   9.442  18.762  0.00  0.00    +0.000 A 
ATOM     19  C   UNL     1       1.957   8.701  17.885  0.00  0.00    +0.000 A 
ATOM     20  C   UNL     1       2.555   7.493  18.286  0.00  0.00    +0.000 A 
ATOM     21  C   UNL     1       2.421   6.976  19.584  0.00  0.00    +0.000 A 
ATOM     22  C   UNL     1       1.667   7.754  20.469  0.00  0.00    +0.000 A 
ATOM     23  C   UNL     1       1.070   8.966  20.079  0.00  0.00    +0.000 A 
BRANCH  21  24
ATOM     24  N   UNL     1       2.978   5.757  19.940  0.00  0.00    +0.000 N 
ATOM     25  C   UNL     1       2.204   4.785  20.709  0.00  0.00    +0.000 C 
ATOM     26  C   UNL     1       4.162   5.220  19.279  0.00  0.00    +0.000 C 
ENDBRANCH  21  24
ENDBRANCH   1  18
TORSDOF 5
ENDMDL
MODEL 8
REMARK VINA RESULT:      -7.0      3.034      7.113
REMARK  Name = 
REMARK  9 active torsions:
REMARK  status: ('A' for Active; 'I' for Inactive)
REMARK    1  A    between atoms: C_1  and  N_2
REMARK    2  A    between atoms: N_2  and  C_3
REMARK    3  A    between atoms: N_2  and  C_4
REMARK    4  A    between atoms: C_7  and  C_8
REMARK    5  A    between atoms: C_8  and  C_9
REMARK    6  A    between atoms: C_8  and  C_16
REMARK    7  A    between atoms: C_19  and  N_20
REMARK    8  A    between atoms: N_20  and  C_21
REMARK    9  A    between atoms: N_20  and  C_22
REMARK                            x       y       z     vdW  Elec       q    Type
REMARK                         _______ _______ _______ _____ _____    ______ ____
ROOT
ATOM      1  C   UNL     1      -0.066  11.070  19.844  0.00  0.00    +0.000 C 
ENDROOT
BRANCH   1   2
ATOM      2  C   UNL     1       0.837  12.301  19.638  0.00  0.00    +0.000 A 
ATOM      3  C   UNL     1       0.797  13.069  18.466  0.00  0.00    +0.000 A 
ATOM      4  C   UNL     1       1.665  14.146  18.284  0.00  0.00    +0.000 A 
ATOM      5  C   UNL     1       2.610  14.447  19.261  0.00  0.00    +0.000 A 
ATOM      6 CL   UNL     1       3.697  15.759  19.029  0.00  0.00    +0.000 Cl
ATOM      7  C   UNL     1       2.690  13.678  20.420  0.00  0.00    +0.000 A 
ATOM      8  C   UNL     1       1.805  12.616  20.612  0.00  0.00    +0.000 A 
ENDBRANCH   1   2
BRANCH   1  12
ATOM      9  C   UNL     1       2.454   7.620  18.757  0.00  0.00    +0.000 A 
ATOM     10  C   UNL     1       1.885   7.765  20.032  0.00  0.00    +0.000 A 
ATOM     11  C   UNL     1       1.047   8.842  20.360  0.00  0.00    +0.000 A 
ATOM     12  C   UNL     1       0.728   9.827  19.414  0.00  0.00    +0.000 A 
ATOM     13  C   UNL     1       1.263   9.684  18.131  0.00  0.00    +0.000 A 
ATOM     14  C   UNL     1       2.088   8.594  17.812  0.00  0.00    +0.000 A 
BRANCH   9  16
ATOM     15  C   UNL     1       3.682   5.593  19.460  0.00  0.00    +0.000 C 
ATOM     16  N   UNL     1       3.313   6.563  18.432  0.00  0.00    +0.000 N 
ATOM     17  C   UNL     1       4.296   6.778  17.370  0.00  0.00    +0.000 C 
ENDBRANCH   9  16
ENDBRANCH   1  12
BRANCH   1  18
ATOM     18  C   UNL     1      -1.506  11.196  19.307  0.00  0.00    +0.000 A 
ATOM     19  C   UNL     1      -2.000  10.349  18.310  0.00  0.00    +0.000 A 
ATOM     20  C   UNL     1      -3.319  10.471  17.837  0.00  0.00    +0.000 A 
ATOM     21  C   UNL     1      -4.224  11.411  18.351  0.00  0.00    +0.000 A 
ATOM     22  C   UNL     1      -3.737  12.214  19.388  0.00  0.00    +0.000 A 
ATOM     23  C   UNL     1      -2.422  12.097  19.871  0.00  0.00    +0.000 A 
BRANCH  21  24
ATOM     24  N   UNL     1      -5.503  11.546  17.832  0.00  0.00    +0.000 N 
ATOM     25  C   UNL     1      -6.623  10.814  18.419  0.00  0.00    +0.000 C 
ATOM     26  C   UNL     1      -5.878  12.660  16.969  0.00  0.00    +0.000 C 
ENDBRANCH  21  24
ENDBRANCH   1  18
TORSDOF 5
ENDMDL
MODEL 9
REMARK VINA RESULT:      -6.9      1.094      6.467
REMARK  Name = 
REMARK  9 active torsions:
REMARK  status: ('A' for Active; 'I' for Inactive)
REMARK    1  A    between atoms: C_1  and  N_2
REMARK    2  A    between atoms: N_2  and  C_3
REMARK    3  A    between atoms: N_2  and  C_4
REMARK    4  A    between atoms: C_7  and  C_8
REMARK    5  A    between atoms: C_8  and  C_9
REMARK    6  A    between atoms: C_8  and  C_16
REMARK    7  A    between atoms: C_19  and  N_20
REMARK    8  A    between atoms: N_20  and  C_21
REMARK    9  A    between atoms: N_20  and  C_22
REMARK                            x       y       z     vdW  Elec       q    Type
REMARK                         _______ _______ _______ _____ _____    ______ ____
ROOT
ATOM      1  C   UNL     1       0.813  10.768  18.207  0.00  0.00    +0.000 C 
ENDROOT
BRANCH   1   2
ATOM      2  C   UNL     1      -0.727  10.761  18.185  0.00  0.00    +0.000 A 
ATOM      3  C   UNL     1      -1.459   9.827  17.437  0.00  0.00    +0.000 A 
ATOM      4  C   UNL     1      -2.853   9.879  17.392  0.00  0.00    +0.000 A 
ATOM      5  C   UNL     1      -3.531  10.890  18.069  0.00  0.00    +0.000 A 
ATOM      6 CL   UNL     1      -5.247  10.971  17.995  0.00  0.00    +0.000 Cl
ATOM      7  C   UNL     1      -2.823  11.848  18.792  0.00  0.00    +0.000 A 
ATOM      8  C   UNL     1      -1.429  11.780  18.857  0.00  0.00    +0.000 A 
ENDBRANCH   1   2
BRANCH   1  12
ATOM      9  C   UNL     1       2.394   6.906  19.628  0.00  0.00    +0.000 A 
ATOM     10  C   UNL     1       1.643   7.760  20.451  0.00  0.00    +0.000 A 
ATOM     11  C   UNL     1       1.103   8.968  19.981  0.00  0.00    +0.000 A 
ATOM     12  C   UNL     1       1.284   9.374  18.651  0.00  0.00    +0.000 A 
ATOM     13  C   UNL     1       2.007   8.523  17.811  0.00  0.00    +0.000 A 
ATOM     14  C   UNL     1       2.529   7.311  18.289  0.00  0.00    +0.000 A 
BRANCH   9  16
ATOM     15  C   UNL     1       4.098   5.129  19.396  0.00  0.00    +0.000 C 
ATOM     16  N   UNL     1       2.959   5.714  20.099  0.00  0.00    +0.000 N 
ATOM     17  C   UNL     1       2.090   4.774  20.807  0.00  0.00    +0.000 C 
ENDBRANCH   9  16
ENDBRANCH   1  12
BRANCH   1  18
ATOM     18  C   UNL     1       1.469  11.977  18.902  0.00  0.00    +0.000 A 
ATOM     19  C   UNL     1       1.316  12.217  20.272  0.00  0.00    +0.000 A 
ATOM     20  C   UNL     1       1.928  13.320  20.893  0.00  0.00    +0.000 A 
ATOM     21  C   UNL     1       2.751  14.219  20.199  0.00  0.00    +0.000 A 
ATOM     22  C   UNL     1       2.944  13.938  18.842  0.00  0.00    +0.000 A 
ATOM     23  C   UNL     1       2.340  12.835  18.213  0.00  0.00    +0.000 A 
BRANCH  21  24
ATOM     24  N   UNL     1       3.301  15.329  20.823  0.00  0.00    +0.000 N 
ATOM     25  C   UNL     1       4.003  15.192  22.097  0.00  0.00    +0.000 C 
ATOM     26  C   UNL     1       3.554  16.576  20.110  0.00  0.00    +0.000 C 
ENDBRANCH  21  24
ENDBRANCH   1  18
TORSDOF 5
ENDMDL
