MODEL 1
REMARK VINA RESULT:      -9.4      0.000      0.000
REMARK  Name = 
REMARK  5 active torsions:
REMARK  status: ('A' for Active; 'I' for Inactive)
REMARK    1  A    between atoms: C_1  and  C_2
REMARK    2  A    between atoms: C_7  and  N_8
REMARK    3  A    between atoms: N_11  and  C_12
REMARK    4  A    between atoms: C_22  and  C_23
REMARK    5  A    between atoms: C_22  and  C_24
REMARK                            x       y       z     vdW  Elec       q    Type
REMARK                         _______ _______ _______ _____ _____    ______ ____
ROOT
ATOM      1  N   UNL     1       3.010   5.889  19.063  0.00  0.00    +0.000 N 
ATOM      2  C   UNL     1       2.472   7.165  19.241  0.00  0.00    +0.000 C 
ATOM      3  O   UNL     1       2.587   8.048  18.389  0.00  0.00    +0.000 OA
ATOM      4  N   UNL     1       1.791   7.399  20.428  0.00  0.00    +0.000 N 
ATOM      5  C   UNL     1       4.161   5.791  18.294  0.00  0.00    +0.000 C 
ATOM      6  N   UNL     1       4.451   6.560  17.299  0.00  0.00    +0.000 NA
ATOM      7  C   UNL     1       5.747   6.225  16.697  0.00  0.00    +0.000 C 
ATOM      8  C   UNL     1       6.636   5.520  17.723  0.00  0.00    +0.000 C 
ATOM      9  C   UNL     1       7.423   6.528  18.570  0.00  0.00    +0.000 C 
ATOM     10  C   UNL     1       7.588   4.533  17.053  0.00  0.00    +0.000 C 
ATOM     11  S   UNL     1       5.408   4.635  18.746  0.00  0.00    +0.000 S 
ATOM     12  H   UNL     1       1.928   6.693  21.150  0.00  0.00    +0.000 HD
ENDROOT
BRANCH   1  19
ATOM     13  C   UNL     1       1.309   3.961  17.538  0.00  0.00    +0.000 C 
ATOM     14  C   UNL     1       1.687   3.810  18.990  0.00  0.00    +0.000 A 
ATOM     15  C   UNL     1       1.115   2.737  19.694  0.00  0.00    +0.000 A 
ATOM     16  C   UNL     1       1.349   2.588  21.051  0.00  0.00    +0.000 A 
ATOM     17  C   UNL     1       2.122   3.544  21.679  0.00  0.00    +0.000 A 
ATOM     18  N   UNL     1       2.648   4.629  21.060  0.00  0.00    +0.000 NA
ATOM     19  C   UNL     1       2.464   4.744  19.715  0.00  0.00    +0.000 A 
ENDBRANCH   1  19
BRANCH   4  20
ATOM     20  C   UNL     1       1.227   8.646  20.814  0.00  0.00    +0.000 A 
ATOM     21  C   UNL     1       0.891   8.957  22.138  0.00  0.00    +0.000 A 
ATOM     22  C   UNL     1       0.278  10.167  22.477  0.00  0.00    +0.000 A 
ATOM     23  C   UNL     1      -0.005  11.099  21.488  0.00  0.00    +0.000 A 
ATOM     24  C   UNL     1       0.344  10.815  20.169  0.00  0.00    +0.000 A 
ATOM     25 CL   UNL     1      -0.018  11.969  18.941  0.00  0.00    +0.000 Cl
ATOM     26  C   UNL     1       0.961   9.605  19.828  0.00  0.00    +0.000 A 
ENDBRANCH   4  20
TORSDOF 2
ENDMDL
MODEL 2
REMARK VINA RESULT:      -9.3      1.012      1.376
REMARK  Name = 
REMARK  5 active torsions:
REMARK  status: ('A' for Active; 'I' for Inactive)
REMARK    1  A    between atoms: C_1  and  C_2
REMARK    2  A    between atoms: C_7  and  N_8
REMARK    3  A    between atoms: N_11  and  C_12
REMARK    4  A    between atoms: C_22  and  C_23
REMARK    5  A    between atoms: C_22  and  C_24
REMARK                            x       y       z     vdW  Elec       q    Type
REMARK                         _______ _______ _______ _____ _____    ______ ____
ROOT
ATOM      1  N   UNL     1       3.016   5.958  18.835  0.00  0.00    +0.000 N 
ATOM      2  C   UNL     1       2.459   7.237  18.882  0.00  0.00    +0.000 C 
ATOM      3  O   UNL     1       2.596   8.045  17.962  0.00  0.00    +0.000 OA
ATOM      4  N   UNL     1       1.733   7.564  20.020  0.00  0.00    +0.000 N 
ATOM      5  C   UNL     1       4.196   5.810  18.119  0.00  0.00    +0.000 C 
ATOM      6  N   UNL     1       4.514   6.493  17.072  0.00  0.00    +0.000 NA
ATOM      7  C   UNL     1       5.834   6.125  16.548  0.00  0.00    +0.000 C 
ATOM      8  C   UNL     1       6.693   5.524  17.663  0.00  0.00    +0.000 C 
ATOM      9  C   UNL     1       7.438   6.612  18.446  0.00  0.00    +0.000 C 
ATOM     10  C   UNL     1       7.679   4.495  17.115  0.00  0.00    +0.000 C 
ATOM     11  S   UNL     1       5.438   4.713  18.714  0.00  0.00    +0.000 S 
ATOM     12  H   UNL     1       1.851   6.925  20.804  0.00  0.00    +0.000 HD
ENDROOT
BRANCH   1  19
ATOM     13  C   UNL     1       1.255   3.974  17.457  0.00  0.00    +0.000 C 
ATOM     14  C   UNL     1       1.653   3.905  18.910  0.00  0.00    +0.000 A 
ATOM     15  C   UNL     1       1.072   2.889  19.687  0.00  0.00    +0.000 A 
ATOM     16  C   UNL     1       1.324   2.819  21.047  0.00  0.00    +0.000 A 
ATOM     17  C   UNL     1       2.125   3.796  21.604  0.00  0.00    +0.000 A 
ATOM     18  N   UNL     1       2.662   4.830  20.911  0.00  0.00    +0.000 NA
ATOM     19  C   UNL     1       2.459   4.866  19.564  0.00  0.00    +0.000 A 
ENDBRANCH   1  19
BRANCH   4  20
ATOM     20  C   UNL     1       1.142   8.831  20.275  0.00  0.00    +0.000 A 
ATOM     21  C   UNL     1       1.247   9.917  19.395  0.00  0.00    +0.000 A 
ATOM     22  C   UNL     1       0.709  11.170  19.704  0.00  0.00    +0.000 A 
ATOM     23  C   UNL     1       0.041  11.357  20.907  0.00  0.00    +0.000 A 
ATOM     24  C   UNL     1      -0.094  10.282  21.783  0.00  0.00    +0.000 A 
ATOM     25 CL   UNL     1      -0.913  10.519  23.280  0.00  0.00    +0.000 Cl
ATOM     26  C   UNL     1       0.443   9.025  21.473  0.00  0.00    +0.000 A 
ENDBRANCH   4  20
TORSDOF 2
ENDMDL
MODEL 3
REMARK VINA RESULT:      -8.6      1.111      1.234
REMARK  Name = 
REMARK  5 active torsions:
REMARK  status: ('A' for Active; 'I' for Inactive)
REMARK    1  A    between atoms: C_1  and  C_2
REMARK    2  A    between atoms: C_7  and  N_8
REMARK    3  A    between atoms: N_11  and  C_12
REMARK    4  A    between atoms: C_22  and  C_23
REMARK    5  A    between atoms: C_22  and  C_24
REMARK                            x       y       z     vdW  Elec       q    Type
REMARK                         _______ _______ _______ _____ _____    ______ ____
ROOT
ATOM      1  N   UNL     1       3.028   6.268  18.433  0.00  0.00    +0.000 N 
ATOM      2  C   UNL     1       2.489   7.552  18.331  0.00  0.00    +0.000 C 
ATOM      3  O   UNL     1       2.637   8.246  17.324  0.00  0.00    +0.000 OA
ATOM      4  N   UNL     1       1.767   8.018  19.422  0.00  0.00    +0.000 N 
ATOM      5  C   UNL     1       4.206   6.022  17.741  0.00  0.00    +0.000 C 
ATOM      6  N   UNL     1       4.533   6.576  16.623  0.00  0.00    +0.000 NA
ATOM      7  C   UNL     1       5.848   6.132  16.146  0.00  0.00    +0.000 C 
ATOM      8  C   UNL     1       6.699   5.651  17.324  0.00  0.00    +0.000 C 
ATOM      9  C   UNL     1       7.458   6.812  17.978  0.00  0.00    +0.000 C 
ATOM     10  C   UNL     1       7.670   4.552  16.900  0.00  0.00    +0.000 C 
ATOM     11  S   UNL     1       5.433   4.985  18.460  0.00  0.00    +0.000 S 
ATOM     12  H   UNL     1       1.876   7.472  20.276  0.00  0.00    +0.000 HD
ENDROOT
BRANCH   1  19
ATOM     13  C   UNL     1       1.266   4.144  17.286  0.00  0.00    +0.000 C 
ATOM     14  C   UNL     1       1.649   4.248  18.740  0.00  0.00    +0.000 A 
ATOM     15  C   UNL     1       1.053   3.336  19.628  0.00  0.00    +0.000 A 
ATOM     16  C   UNL     1       1.292   3.429  20.988  0.00  0.00    +0.000 A 
ATOM     17  C   UNL     1       2.095   4.461  21.432  0.00  0.00    +0.000 A 
ATOM     18  N   UNL     1       2.646   5.401  20.626  0.00  0.00    +0.000 NA
ATOM     19  C   UNL     1       2.456   5.276  19.282  0.00  0.00    +0.000 A 
ENDBRANCH   1  19
BRANCH   4  20
ATOM     20  C   UNL     1       1.193   9.314  19.529  0.00  0.00    +0.000 A 
ATOM     21  C   UNL     1       0.005   9.570  20.226  0.00  0.00    +0.000 A 
ATOM     22  C   UNL     1      -0.569  10.845  20.258  0.00  0.00    +0.000 A 
ATOM     23  C   UNL     1       0.048  11.897  19.596  0.00  0.00    +0.000 A 
ATOM     24  C   UNL     1       1.244  11.665  18.918  0.00  0.00    +0.000 A 
ATOM     25 CL   UNL     1       2.002  12.970  18.088  0.00  0.00    +0.000 Cl
ATOM     26  C   UNL     1       1.821  10.389  18.887  0.00  0.00    +0.000 A 
ENDBRANCH   4  20
TORSDOF 2
ENDMDL
MODEL 4
REMARK VINA RESULT:      -8.1      1.647      1.724
REMARK  Name = 
REMARK  5 active torsions:
REMARK  status: ('A' for Active; 'I' for Inactive)
REMARK    1  A    between atoms: C_1  and  C_2
REMARK    2  A    between atoms: C_7  and  N_8
REMARK    3  A    between atoms: N_11  and  C_12
REMARK    4  A    between atoms: C_22  and  C_23
REMARK    5  A    between atoms: C_22  and  C_24
REMARK                            x       y       z     vdW  Elec       q    Type
REMARK                         _______ _______ _______ _____ _____    ______ ____
ROOT
ATOM      1  N   UNL     1       3.141   6.347  18.245  0.00  0.00    +0.000 N 
ATOM      2  C   UNL     1       2.620   7.609  17.955  0.00  0.00    +0.000 C 
ATOM      3  O   UNL     1       2.877   8.195  16.902  0.00  0.00    +0.000 OA
ATOM      4  N   UNL     1       1.790   8.180  18.910  0.00  0.00    +0.000 N 
ATOM      5  C   UNL     1       4.384   6.038  17.710  0.00  0.00    +0.000 C 
ATOM      6  N   UNL     1       4.829   6.475  16.581  0.00  0.00    +0.000 NA
ATOM      7  C   UNL     1       6.185   5.993  16.294  0.00  0.00    +0.000 C 
ATOM      8  C   UNL     1       6.905   5.644  17.598  0.00  0.00    +0.000 C 
ATOM      9  C   UNL     1       7.597   6.871  18.204  0.00  0.00    +0.000 C 
ATOM     10  C   UNL     1       7.912   4.514  17.395  0.00  0.00    +0.000 C 
ATOM     11  S   UNL     1       5.524   5.090  18.658  0.00  0.00    +0.000 S 
ATOM     12  H   UNL     1       1.806   7.727  19.822  0.00  0.00    +0.000 HD
ENDROOT
BRANCH   1  19
ATOM     13  C   UNL     1       1.593   4.037  17.148  0.00  0.00    +0.000 C 
ATOM     14  C   UNL     1       1.773   4.329  18.616  0.00  0.00    +0.000 A 
ATOM     15  C   UNL     1       1.081   3.510  19.524  0.00  0.00    +0.000 A 
ATOM     16  C   UNL     1       1.132   3.774  20.882  0.00  0.00    +0.000 A 
ATOM     17  C   UNL     1       1.846   4.881  21.296  0.00  0.00    +0.000 A 
ATOM     18  N   UNL     1       2.483   5.737  20.460  0.00  0.00    +0.000 NA
ATOM     19  C   UNL     1       2.479   5.444  19.129  0.00  0.00    +0.000 A 
ENDBRANCH   1  19
BRANCH   4  20
ATOM     20  C   UNL     1       1.213   9.477  18.821  0.00  0.00    +0.000 A 
ATOM     21  C   UNL     1       1.922  10.651  19.104  0.00  0.00    +0.000 A 
ATOM     22  C   UNL     1       1.309  11.907  19.070  0.00  0.00    +0.000 A 
ATOM     23  C   UNL     1      -0.035  12.011  18.738  0.00  0.00    +0.000 A 
ATOM     24  C   UNL     1      -0.749  10.855  18.429  0.00  0.00    +0.000 A 
ATOM     25 CL   UNL     1      -2.419  10.985  18.028  0.00  0.00    +0.000 Cl
ATOM     26  C   UNL     1      -0.135   9.596  18.460  0.00  0.00    +0.000 A 
ENDBRANCH   4  20
TORSDOF 2
ENDMDL
MODEL 5
REMARK VINA RESULT:      -7.2      1.369      2.044
REMARK  Name = 
REMARK  5 active torsions:
REMARK  status: ('A' for Active; 'I' for Inactive)
REMARK    1  A    between atoms: C_1  and  C_2
REMARK    2  A    between atoms: C_7  and  N_8
REMARK    3  A    between atoms: N_11  and  C_12
REMARK    4  A    between atoms: C_22  and  C_23
REMARK    5  A    between atoms: C_22  and  C_24
REMARK                            x       y       z     vdW  Elec       q    Type
REMARK                         _______ _______ _______ _____ _____    ______ ____
ROOT
ATOM      1  N   UNL     1       2.973   6.053  18.345  0.00  0.00    +0.000 N 
ATOM      2  C   UNL     1       2.533   7.357  18.575  0.00  0.00    +0.000 C 
ATOM      3  O   UNL     1       2.955   8.314  17.924  0.00  0.00    +0.000 OA
ATOM      4  N   UNL     1       1.587   7.534  19.576  0.00  0.00    +0.000 N 
ATOM      5  C   UNL     1       4.273   5.897  17.883  0.00  0.00    +0.000 C 
ATOM      6  N   UNL     1       4.889   6.736  17.121  0.00  0.00    +0.000 NA
ATOM      7  C   UNL     1       6.260   6.308  16.818  0.00  0.00    +0.000 C 
ATOM      8  C   UNL     1       6.772   5.372  17.915  0.00  0.00    +0.000 C 
ATOM      9  C   UNL     1       7.399   6.156  19.075  0.00  0.00    +0.000 C 
ATOM     10  C   UNL     1       7.768   4.356  17.361  0.00  0.00    +0.000 C 
ATOM     11  S   UNL     1       5.237   4.539  18.451  0.00  0.00    +0.000 S 
ATOM     12  H   UNL     1       1.458   6.733  20.193  0.00  0.00    +0.000 HD
ENDROOT
BRANCH   1  19
ATOM     13  C   UNL     1       2.646   5.181  21.185  0.00  0.00    +0.000 C 
ATOM     14  C   UNL     1       1.980   4.523  20.004  0.00  0.00    +0.000 A 
ATOM     15  C   UNL     1       1.233   3.360  20.253  0.00  0.00    +0.000 A 
ATOM     16  C   UNL     1       0.665   2.655  19.205  0.00  0.00    +0.000 A 
ATOM     17  C   UNL     1       0.894   3.114  17.923  0.00  0.00    +0.000 A 
ATOM     18  N   UNL     1       1.655   4.196  17.623  0.00  0.00    +0.000 NA
ATOM     19  C   UNL     1       2.166   4.919  18.659  0.00  0.00    +0.000 A 
ENDBRANCH   1  19
BRANCH   4  20
ATOM     20  C   UNL     1       1.063   8.788  19.993  0.00  0.00    +0.000 A 
ATOM     21  C   UNL     1       1.142   9.948  19.213  0.00  0.00    +0.000 A 
ATOM     22  C   UNL     1       0.674  11.181  19.677  0.00  0.00    +0.000 A 
ATOM     23  C   UNL     1       0.105  11.273  20.940  0.00  0.00    +0.000 A 
ATOM     24  C   UNL     1      -0.003  10.123  21.720  0.00  0.00    +0.000 A 
ATOM     25 CL   UNL     1      -0.700  10.240  23.292  0.00  0.00    +0.000 Cl
ATOM     26  C   UNL     1       0.462   8.887  21.255  0.00  0.00    +0.000 A 
ENDBRANCH   4  20
TORSDOF 2
ENDMDL
MODEL 6
REMARK VINA RESULT:      -7.2      0.856      1.498
REMARK  Name = 
REMARK  5 active torsions:
REMARK  status: ('A' for Active; 'I' for Inactive)
REMARK    1  A    between atoms: C_1  and  C_2
REMARK    2  A    between atoms: C_7  and  N_8
REMARK    3  A    between atoms: N_11  and  C_12
REMARK    4  A    between atoms: C_22  and  C_23
REMARK    5  A    between atoms: C_22  and  C_24
REMARK                            x       y       z     vdW  Elec       q    Type
REMARK                         _______ _______ _______ _____ _____    ______ ____
ROOT
ATOM      1  N   UNL     1       2.900   5.997  18.505  0.00  0.00    +0.000 N 
ATOM      2  C   UNL     1       2.476   7.272  18.881  0.00  0.00    +0.000 C 
ATOM      3  O   UNL     1       2.869   8.288  18.303  0.00  0.00    +0.000 OA
ATOM      4  N   UNL     1       1.582   7.352  19.940  0.00  0.00    +0.000 N 
ATOM      5  C   UNL     1       4.174   5.887  17.966  0.00  0.00    +0.000 C 
ATOM      6  N   UNL     1       4.754   6.795  17.257  0.00  0.00    +0.000 NA
ATOM      7  C   UNL     1       6.107   6.400  16.846  0.00  0.00    +0.000 C 
ATOM      8  C   UNL     1       6.670   5.364  17.821  0.00  0.00    +0.000 C 
ATOM      9  C   UNL     1       7.356   6.034  19.018  0.00  0.00    +0.000 C 
ATOM     10  C   UNL     1       7.633   4.406  17.124  0.00  0.00    +0.000 C 
ATOM     11  S   UNL     1       5.161   4.482  18.352  0.00  0.00    +0.000 S 
ATOM     12  H   UNL     1       1.482   6.496  20.483  0.00  0.00    +0.000 HD
ENDROOT
BRANCH   1  19
ATOM     13  C   UNL     1       2.731   4.843  21.258  0.00  0.00    +0.000 C 
ATOM     14  C   UNL     1       1.994   4.308  20.056  0.00  0.00    +0.000 A 
ATOM     15  C   UNL     1       1.255   3.125  20.230  0.00  0.00    +0.000 A 
ATOM     16  C   UNL     1       0.624   2.530  19.151  0.00  0.00    +0.000 A 
ATOM     17  C   UNL     1       0.782   3.116  17.911  0.00  0.00    +0.000 A 
ATOM     18  N   UNL     1       1.531   4.222  17.677  0.00  0.00    +0.000 NA
ATOM     19  C   UNL     1       2.105   4.837  18.749  0.00  0.00    +0.000 A 
ENDBRANCH   1  19
BRANCH   4  20
ATOM     20  C   UNL     1       1.084   8.559  20.501  0.00  0.00    +0.000 A 
ATOM     21  C   UNL     1       1.062   8.811  21.879  0.00  0.00    +0.000 A 
ATOM     22  C   UNL     1       0.506   9.982  22.404  0.00  0.00    +0.000 A 
ATOM     23  C   UNL     1      -0.032  10.934  21.550  0.00  0.00    +0.000 A 
ATOM     24  C   UNL     1       0.004  10.711  20.175  0.00  0.00    +0.000 A 
ATOM     25 CL   UNL     1      -0.674  11.889  19.117  0.00  0.00    +0.000 Cl
ATOM     26  C   UNL     1       0.563   9.540  19.647  0.00  0.00    +0.000 A 
ENDBRANCH   4  20
TORSDOF 2
ENDMDL
MODEL 7
REMARK VINA RESULT:      -7.0      5.711      7.743
REMARK  Name = 
REMARK  5 active torsions:
REMARK  status: ('A' for Active; 'I' for Inactive)
REMARK    1  A    between atoms: C_1  and  C_2
REMARK    2  A    between atoms: C_7  and  N_8
REMARK    3  A    between atoms: N_11  and  C_12
REMARK    4  A    between atoms: C_22  and  C_23
REMARK    5  A    between atoms: C_22  and  C_24
REMARK                            x       y       z     vdW  Elec       q    Type
REMARK                         _______ _______ _______ _____ _____    ______ ____
ROOT
ATOM      1  N   UNL     1      -0.159  11.966  19.758  0.00  0.00    +0.000 N 
ATOM      2  C   UNL     1      -1.294  12.101  18.957  0.00  0.00    +0.000 C 
ATOM      3  O   UNL     1      -1.223  12.431  17.772  0.00  0.00    +0.000 OA
ATOM      4  N   UNL     1      -2.520  11.841  19.556  0.00  0.00    +0.000 N 
ATOM      5  C   UNL     1       0.925  12.779  19.458  0.00  0.00    +0.000 C 
ATOM      6  N   UNL     1       1.238  13.182  18.273  0.00  0.00    +0.000 NA
ATOM      7  C   UNL     1       2.424  14.048  18.276  0.00  0.00    +0.000 C 
ATOM      8  C   UNL     1       2.588  14.709  19.646  0.00  0.00    +0.000 C 
ATOM      9  C   UNL     1       1.782  16.011  19.741  0.00  0.00    +0.000 C 
ATOM     10  C   UNL     1       4.057  14.969  19.968  0.00  0.00    +0.000 C 
ATOM     11  S   UNL     1       1.901  13.439  20.765  0.00  0.00    +0.000 S 
ATOM     12  H   UNL     1      -2.499  11.785  20.573  0.00  0.00    +0.000 HD
ENDROOT
BRANCH   1  19
ATOM     13  C   UNL     1       1.144   9.281  19.582  0.00  0.00    +0.000 C 
ATOM     14  C   UNL     1       0.508   9.847  20.827  0.00  0.00    +0.000 A 
ATOM     15  C   UNL     1       0.441   9.008  21.952  0.00  0.00    +0.000 A 
ATOM     16  C   UNL     1      -0.205   9.430  23.101  0.00  0.00    +0.000 A 
ATOM     17  C   UNL     1      -0.805  10.674  23.081  0.00  0.00    +0.000 A 
ATOM     18  N   UNL     1      -0.821  11.498  22.005  0.00  0.00    +0.000 NA
ATOM     19  C   UNL     1      -0.137  11.104  20.894  0.00  0.00    +0.000 A 
ENDBRANCH   1  19
BRANCH   4  20
ATOM     20  C   UNL     1      -3.785  11.980  18.922  0.00  0.00    +0.000 A 
ATOM     21  C   UNL     1      -4.059  11.476  17.644  0.00  0.00    +0.000 A 
ATOM     22  C   UNL     1      -5.293  11.684  17.020  0.00  0.00    +0.000 A 
ATOM     23  C   UNL     1      -6.287  12.398  17.676  0.00  0.00    +0.000 A 
ATOM     24  C   UNL     1      -6.039  12.885  18.958  0.00  0.00    +0.000 A 
ATOM     25 CL   UNL     1      -7.270  13.780  19.766  0.00  0.00    +0.000 Cl
ATOM     26  C   UNL     1      -4.804  12.675  19.585  0.00  0.00    +0.000 A 
ENDBRANCH   4  20
TORSDOF 2
ENDMDL
MODEL 8
REMARK VINA RESULT:      -6.9      9.142     11.021
REMARK  Name = 
REMARK  5 active torsions:
REMARK  status: ('A' for Active; 'I' for Inactive)
REMARK    1  A    between atoms: C_1  and  C_2
REMARK    2  A    between atoms: C_7  and  N_8
REMARK    3  A    between atoms: N_11  and  C_12
REMARK    4  A    between atoms: C_22  and  C_23
REMARK    5  A    between atoms: C_22  and  C_24
REMARK                            x       y       z     vdW  Elec       q    Type
REMARK                         _______ _______ _______ _____ _____    ______ ____
ROOT
ATOM      1  N   UNL     1       9.226  14.245  19.857  0.00  0.00    +0.000 N 
ATOM      2  C   UNL     1       8.437  14.069  20.995  0.00  0.00    +0.000 C 
ATOM      3  O   UNL     1       7.391  14.697  21.169  0.00  0.00    +0.000 OA
ATOM      4  N   UNL     1       8.882  13.145  21.931  0.00  0.00    +0.000 N 
ATOM      5  C   UNL     1       9.212  15.502  19.267  0.00  0.00    +0.000 C 
ATOM      6  N   UNL     1       8.198  16.299  19.257  0.00  0.00    +0.000 NA
ATOM      7  C   UNL     1       8.494  17.565  18.576  0.00  0.00    +0.000 C 
ATOM      8  C   UNL     1       9.999  17.842  18.612  0.00  0.00    +0.000 C 
ATOM      9  C   UNL     1      10.404  18.574  19.897  0.00  0.00    +0.000 C 
ATOM     10  C   UNL     1      10.451  18.631  17.386  0.00  0.00    +0.000 C 
ATOM     11  S   UNL     1      10.696  16.154  18.582  0.00  0.00    +0.000 S 
ATOM     12  H   UNL     1       9.846  12.837  21.808  0.00  0.00    +0.000 HD
ENDROOT
BRANCH   1  19
ATOM     13  C   UNL     1       8.433  12.629  17.471  0.00  0.00    +0.000 C 
ATOM     14  C   UNL     1       9.731  12.472  18.221  0.00  0.00    +0.000 A 
ATOM     15  C   UNL     1      10.579  11.424  17.823  0.00  0.00    +0.000 A 
ATOM     16  C   UNL     1      11.747  11.167  18.522  0.00  0.00    +0.000 A 
ATOM     17  C   UNL     1      12.017  11.945  19.630  0.00  0.00    +0.000 A 
ATOM     18  N   UNL     1      11.206  12.928  20.091  0.00  0.00    +0.000 NA
ATOM     19  C   UNL     1      10.086  13.216  19.370  0.00  0.00    +0.000 A 
ENDBRANCH   1  19
BRANCH   4  20
ATOM     20  C   UNL     1       8.248  12.870  23.173  0.00  0.00    +0.000 A 
ATOM     21  C   UNL     1       7.488  11.717  23.406  0.00  0.00    +0.000 A 
ATOM     22  C   UNL     1       6.823  11.506  24.617  0.00  0.00    +0.000 A 
ATOM     23  C   UNL     1       6.917  12.450  25.631  0.00  0.00    +0.000 A 
ATOM     24  C   UNL     1       7.689  13.592  25.425  0.00  0.00    +0.000 A 
ATOM     25 CL   UNL     1       7.796  14.768  26.680  0.00  0.00    +0.000 Cl
ATOM     26  C   UNL     1       8.358  13.803  24.212  0.00  0.00    +0.000 A 
ENDBRANCH   4  20
TORSDOF 2
ENDMDL
MODEL 9
REMARK VINA RESULT:      -6.9      5.252      7.478
REMARK  Name = 
REMARK  5 active torsions:
REMARK  status: ('A' for Active; 'I' for Inactive)
REMARK    1  A    between atoms: C_1  and  C_2
REMARK    2  A    between atoms: C_7  and  N_8
REMARK    3  A    between atoms: N_11  and  C_12
REMARK    4  A    between atoms: C_22  and  C_23
REMARK    5  A    between atoms: C_22  and  C_24
REMARK                            x       y       z     vdW  Elec       q    Type
REMARK                         _______ _______ _______ _____ _____    ______ ____
ROOT
ATOM      1  N   UNL     1       0.388  11.986  19.360  0.00  0.00    +0.000 N 
ATOM      2  C   UNL     1      -0.829  12.210  18.714  0.00  0.00    +0.000 C 
ATOM      3  O   UNL     1      -0.916  12.924  17.713  0.00  0.00    +0.000 OA
ATOM      4  N   UNL     1      -1.949  11.587  19.249  0.00  0.00    +0.000 N 
ATOM      5  C   UNL     1       1.330  13.004  19.303  0.00  0.00    +0.000 C 
ATOM      6  N   UNL     1       1.474  13.821  18.316  0.00  0.00    +0.000 NA
ATOM      7  C   UNL     1       2.539  14.801  18.555  0.00  0.00    +0.000 C 
ATOM      8  C   UNL     1       2.755  14.984  20.059  0.00  0.00    +0.000 C 
ATOM      9  C   UNL     1       1.811  16.044  20.637  0.00  0.00    +0.000 C 
ATOM     10  C   UNL     1       4.207  15.336  20.375  0.00  0.00    +0.000 C 
ATOM     11  S   UNL     1       2.342  13.326  20.707  0.00  0.00    +0.000 S 
ATOM     12  H   UNL     1      -1.821  11.199  20.182  0.00  0.00    +0.000 HD
ENDROOT
BRANCH   1  19
ATOM     13  C   UNL     1       1.557   9.559  18.064  0.00  0.00    +0.000 C 
ATOM     14  C   UNL     1       1.211   9.668  19.527  0.00  0.00    +0.000 A 
ATOM     15  C   UNL     1       1.361   8.511  20.310  0.00  0.00    +0.000 A 
ATOM     16  C   UNL     1       0.981   8.514  21.642  0.00  0.00    +0.000 A 
ATOM     17  C   UNL     1       0.422   9.671  22.148  0.00  0.00    +0.000 A 
ATOM     18  N   UNL     1       0.201  10.794  21.423  0.00  0.00    +0.000 NA
ATOM     19  C   UNL     1       0.626  10.808  20.128  0.00  0.00    +0.000 A 
ENDBRANCH   1  19
BRANCH   4  20
ATOM     20  C   UNL     1      -3.277  11.740  18.766  0.00  0.00    +0.000 A 
ATOM     21  C   UNL     1      -3.693  11.281  17.510  0.00  0.00    +0.000 A 
ATOM     22  C   UNL     1      -4.990  11.504  17.037  0.00  0.00    +0.000 A 
ATOM     23  C   UNL     1      -5.905  12.188  17.826  0.00  0.00    +0.000 A 
ATOM     24  C   UNL     1      -5.515  12.630  19.089  0.00  0.00    +0.000 A 
ATOM     25 CL   UNL     1      -6.649  13.488  20.062  0.00  0.00    +0.000 Cl
ATOM     26  C   UNL     1      -4.217  12.405  19.565  0.00  0.00    +0.000 A 
ENDBRANCH   4  20
TORSDOF 2
ENDMDL
