MODEL 1
REMARK VINA RESULT:      -7.1      0.000      0.000
REMARK  Name = 
REMARK  8 active torsions:
REMARK  status: ('A' for Active; 'I' for Inactive)
REMARK    1  A    between atoms: C_1  and  O_2
REMARK    2  A    between atoms: O_2  and  C_3
REMARK    3  A    between atoms: C_5  and  O_6
REMARK    4  A    between atoms: O_6  and  C_7
REMARK    5  A    between atoms: C_8  and  C_9
REMARK    6  A    between atoms: N_18  and  C_19
REMARK    7  A    between atoms: C_19  and  C_20
REMARK    8  A    between atoms: C_20  and  O_21
REMARK                            x       y       z     vdW  Elec       q    Type
REMARK                         _______ _______ _______ _____ _____    ______ ____
ROOT
ATOM      1  C   UNL     1       2.719   7.027  18.891  0.00  0.00    +0.000 A 
ATOM      2  C   UNL     1       2.247   6.835  20.189  0.00  0.00    +0.000 A 
ATOM      3  N   UNL     1       1.494   7.897  20.491  0.00  0.00    +0.000 N 
ATOM      4  C   UNL     1       0.795   8.180  21.610  0.00  0.00    +0.000 A 
ATOM      5  C   UNL     1       0.104   9.391  21.658  0.00  0.00    +0.000 A 
ATOM      6  C   UNL     1       0.155  10.273  20.540  0.00  0.00    +0.000 A 
ATOM      7  N   UNL     1      -0.519  11.537  20.560  0.00  0.00    +0.000 N 
ATOM      8  C   UNL     1      -0.791  12.236  21.808  0.00  0.00    +0.000 C 
ATOM      9  C   UNL     1      -0.130  13.619  21.733  0.00  0.00    +0.000 C 
ATOM     10  N   UNL     1      -0.600  14.383  20.554  0.00  0.00    +0.000 NA
ATOM     11  C   UNL     1      -0.280  13.628  19.317  0.00  0.00    +0.000 C 
ATOM     12  C   UNL     1      -0.898  12.221  19.330  0.00  0.00    +0.000 C 
ATOM     13  N   UNL     1       0.852   9.885  19.422  0.00  0.00    +0.000 NA
ATOM     14  C   UNL     1       1.518   8.702  19.428  0.00  0.00    +0.000 A 
ATOM     15  N   UNL     1       2.246   8.208  18.409  0.00  0.00    +0.000 NA
ENDROOT
BRANCH   1  19
ATOM     16  C   UNL     1       5.180   4.432  16.471  0.00  0.00    +0.000 A 
ATOM     17  C   UNL     1       3.864   4.074  16.764  0.00  0.00    +0.000 A 
ATOM     18  C   UNL     1       3.032   4.875  17.563  0.00  0.00    +0.000 A 
ATOM     19  C   UNL     1       3.545   6.080  18.097  0.00  0.00    +0.000 A 
ATOM     20  C   UNL     1       4.884   6.423  17.840  0.00  0.00    +0.000 A 
ATOM     21  C   UNL     1       5.701   5.628  17.027  0.00  0.00    +0.000 A 
ATOM     22 CL   UNL     1       7.337   6.219  16.761  0.00  0.00    +0.000 Cl
BRANCH  16  24
ATOM     23  C   UNL     1       6.261   3.757  14.349  0.00  0.00    +0.000 C 
ATOM     24  O   UNL     1       5.843   3.576  15.647  0.00  0.00    +0.000 OA
ENDBRANCH  16  24
BRANCH  18  25
ATOM     25  O   UNL     1       1.754   4.495  17.835  0.00  0.00    +0.000 OA
ATOM     26  C   UNL     1       1.376   3.379  18.559  0.00  0.00    +0.000 C 
ENDBRANCH  18  25
ENDBRANCH   1  19
BRANCH  10  27
ATOM     27  C   UNL     1      -2.030  14.785  20.616  0.00  0.00    +0.000 C 
BRANCH  27  28
ATOM     28  C   UNL     1      -2.222  16.307  20.584  0.00  0.00    +0.000 C 
BRANCH  28  29
ATOM     29  O   UNL     1      -2.015  16.808  19.292  0.00  0.00    +0.000 OA
ATOM     30  H   UNL     1      -2.897  16.800  18.839  0.00  0.00    +0.000 HD
ENDBRANCH  28  29
ENDBRANCH  27  28
ENDBRANCH  10  27
TORSDOF 6
ENDMDL
MODEL 2
REMARK VINA RESULT:      -7.0      3.621     10.400
REMARK  Name = 
REMARK  8 active torsions:
REMARK  status: ('A' for Active; 'I' for Inactive)
REMARK    1  A    between atoms: C_1  and  O_2
REMARK    2  A    between atoms: O_2  and  C_3
REMARK    3  A    between atoms: C_5  and  O_6
REMARK    4  A    between atoms: O_6  and  C_7
REMARK    5  A    between atoms: C_8  and  C_9
REMARK    6  A    between atoms: N_18  and  C_19
REMARK    7  A    between atoms: C_19  and  C_20
REMARK    8  A    between atoms: C_20  and  O_21
REMARK                            x       y       z     vdW  Elec       q    Type
REMARK                         _______ _______ _______ _____ _____    ______ ____
ROOT
ATOM      1  C   UNL     1       0.312  11.302  20.972  0.00  0.00    +0.000 A 
ATOM      2  C   UNL     1       0.712  11.550  19.659  0.00  0.00    +0.000 A 
ATOM      3  N   UNL     1       1.212  10.406  19.182  0.00  0.00    +0.000 N 
ATOM      4  C   UNL     1       1.706  10.113  17.961  0.00  0.00    +0.000 A 
ATOM      5  C   UNL     1       2.186   8.820  17.745  0.00  0.00    +0.000 A 
ATOM      6  C   UNL     1       2.133   7.867  18.803  0.00  0.00    +0.000 A 
ATOM      7  N   UNL     1       2.639   6.538  18.629  0.00  0.00    +0.000 N 
ATOM      8  C   UNL     1       3.688   6.241  17.663  0.00  0.00    +0.000 C 
ATOM      9  C   UNL     1       4.867   5.612  18.419  0.00  0.00    +0.000 C 
ATOM     10  N   UNL     1       4.448   4.406  19.173  0.00  0.00    +0.000 NA
ATOM     11  C   UNL     1       3.392   4.777  20.149  0.00  0.00    +0.000 C 
ATOM     12  C   UNL     1       2.183   5.432  19.462  0.00  0.00    +0.000 C 
ATOM     13  N   UNL     1       1.570   8.235  19.999  0.00  0.00    +0.000 NA
ATOM     14  C   UNL     1       1.128   9.508  20.166  0.00  0.00    +0.000 A 
ATOM     15  N   UNL     1       0.568  10.003  21.285  0.00  0.00    +0.000 NA
ENDROOT
BRANCH   1  19
ATOM     16  C   UNL     1      -1.826  14.035  23.543  0.00  0.00    +0.000 A 
ATOM     17  C   UNL     1      -0.626  14.426  22.951  0.00  0.00    +0.000 A 
ATOM     18  C   UNL     1       0.116  13.566  22.124  0.00  0.00    +0.000 A 
ATOM     19  C   UNL     1      -0.364  12.257  21.890  0.00  0.00    +0.000 A 
ATOM     20  C   UNL     1      -1.552  11.844  22.518  0.00  0.00    +0.000 A 
ATOM     21  C   UNL     1      -2.293  12.713  23.327  0.00  0.00    +0.000 A 
ATOM     22 CL   UNL     1      -3.782  12.061  24.002  0.00  0.00    +0.000 Cl
BRANCH  16  24
ATOM     23  C   UNL     1      -2.208  15.402  25.571  0.00  0.00    +0.000 C 
ATOM     24  O   UNL     1      -2.449  14.995  24.280  0.00  0.00    +0.000 OA
ENDBRANCH  16  24
BRANCH  18  25
ATOM     25  O   UNL     1       1.287  13.977  21.566  0.00  0.00    +0.000 OA
ATOM     26  C   UNL     1       1.987  15.121  21.900  0.00  0.00    +0.000 C 
ENDBRANCH  18  25
ENDBRANCH   1  19
BRANCH  10  27
ATOM     27  C   UNL     1       4.048   3.259  18.318  0.00  0.00    +0.000 C 
BRANCH  27  28
ATOM     28  C   UNL     1       3.554   2.054  19.131  0.00  0.00    +0.000 C 
BRANCH  28  29
ATOM     29  O   UNL     1       2.502   1.406  18.472  0.00  0.00    +0.000 OA
ATOM     30  H   UNL     1       1.870   1.104  19.174  0.00  0.00    +0.000 HD
ENDBRANCH  28  29
ENDBRANCH  27  28
ENDBRANCH  10  27
TORSDOF 6
ENDMDL
MODEL 3
REMARK VINA RESULT:      -6.8      2.912      3.774
REMARK  Name = 
REMARK  8 active torsions:
REMARK  status: ('A' for Active; 'I' for Inactive)
REMARK    1  A    between atoms: C_1  and  O_2
REMARK    2  A    between atoms: O_2  and  C_3
REMARK    3  A    between atoms: C_5  and  O_6
REMARK    4  A    between atoms: O_6  and  C_7
REMARK    5  A    between atoms: C_8  and  C_9
REMARK    6  A    between atoms: N_18  and  C_19
REMARK    7  A    between atoms: C_19  and  C_20
REMARK    8  A    between atoms: C_20  and  O_21
REMARK                            x       y       z     vdW  Elec       q    Type
REMARK                         _______ _______ _______ _____ _____    ______ ____
ROOT
ATOM      1  C   UNL     1       2.013   7.215  19.664  0.00  0.00    +0.000 A 
ATOM      2  C   UNL     1       2.103   8.176  18.658  0.00  0.00    +0.000 A 
ATOM      3  N   UNL     1       1.477   9.269  19.106  0.00  0.00    +0.000 N 
ATOM      4  C   UNL     1       1.306  10.475  18.526  0.00  0.00    +0.000 A 
ATOM      5  C   UNL     1       0.581  11.439  19.228  0.00  0.00    +0.000 A 
ATOM      6  C   UNL     1       0.057  11.122  20.515  0.00  0.00    +0.000 A 
ATOM      7  N   UNL     1      -0.716  12.075  21.256  0.00  0.00    +0.000 N 
ATOM      8  C   UNL     1      -1.471  13.128  20.590  0.00  0.00    +0.000 C 
ATOM      9  C   UNL     1      -2.945  12.985  20.994  0.00  0.00    +0.000 C 
ATOM     10  N   UNL     1      -3.112  13.026  22.466  0.00  0.00    +0.000 NA
ATOM     11  C   UNL     1      -2.334  11.922  23.082  0.00  0.00    +0.000 C 
ATOM     12  C   UNL     1      -0.845  11.992  22.705  0.00  0.00    +0.000 C 
ATOM     13  N   UNL     1       0.318   9.886  21.051  0.00  0.00    +0.000 NA
ATOM     14  C   UNL     1       1.018   8.977  20.325  0.00  0.00    +0.000 A 
ATOM     15  N   UNL     1       1.333   7.731  20.723  0.00  0.00    +0.000 NA
ENDROOT
BRANCH   1  19
ATOM     16  C   UNL     1       3.767   3.272  19.830  0.00  0.00    +0.000 A 
ATOM     17  C   UNL     1       4.323   4.250  19.007  0.00  0.00    +0.000 A 
ATOM     18  C   UNL     1       3.778   5.540  18.904  0.00  0.00    +0.000 A 
ATOM     19  C   UNL     1       2.619   5.857  19.652  0.00  0.00    +0.000 A 
ATOM     20  C   UNL     1       2.030   4.861  20.450  0.00  0.00    +0.000 A 
ATOM     21  C   UNL     1       2.592   3.584  20.560  0.00  0.00    +0.000 A 
ATOM     22 CL   UNL     1       1.764   2.465  21.638  0.00  0.00    +0.000 Cl
BRANCH  16  24
ATOM     23  C   UNL     1       5.081   1.469  20.903  0.00  0.00    +0.000 C 
ATOM     24  O   UNL     1       4.437   2.088  19.857  0.00  0.00    +0.000 OA
ENDBRANCH  16  24
BRANCH  18  25
ATOM     25  O   UNL     1       4.341   6.471  18.086  0.00  0.00    +0.000 OA
ATOM     26  C   UNL     1       4.874   6.233  16.833  0.00  0.00    +0.000 C 
ENDBRANCH  18  25
ENDBRANCH   1  19
BRANCH  10  27
ATOM     27  C   UNL     1      -2.804  14.344  23.079  0.00  0.00    +0.000 C 
BRANCH  27  28
ATOM     28  C   UNL     1      -3.263  14.442  24.540  0.00  0.00    +0.000 C 
BRANCH  28  29
ATOM     29  O   UNL     1      -4.619  14.786  24.614  0.00  0.00    +0.000 OA
ATOM     30  H   UNL     1      -4.861  14.785  25.576  0.00  0.00    +0.000 HD
ENDBRANCH  28  29
ENDBRANCH  27  28
ENDBRANCH  10  27
TORSDOF 6
ENDMDL
MODEL 4
REMARK VINA RESULT:      -6.7      2.585      3.361
REMARK  Name = 
REMARK  8 active torsions:
REMARK  status: ('A' for Active; 'I' for Inactive)
REMARK    1  A    between atoms: C_1  and  O_2
REMARK    2  A    between atoms: O_2  and  C_3
REMARK    3  A    between atoms: C_5  and  O_6
REMARK    4  A    between atoms: O_6  and  C_7
REMARK    5  A    between atoms: C_8  and  C_9
REMARK    6  A    between atoms: N_18  and  C_19
REMARK    7  A    between atoms: C_19  and  C_20
REMARK    8  A    between atoms: C_20  and  O_21
REMARK                            x       y       z     vdW  Elec       q    Type
REMARK                         _______ _______ _______ _____ _____    ______ ____
ROOT
ATOM      1  C   UNL     1       1.629   7.605  20.314  0.00  0.00    +0.000 A 
ATOM      2  C   UNL     1       0.908   7.979  21.448  0.00  0.00    +0.000 A 
ATOM      3  N   UNL     1       0.586   9.267  21.298  0.00  0.00    +0.000 N 
ATOM      4  C   UNL     1      -0.126  10.087  22.099  0.00  0.00    +0.000 A 
ATOM      5  C   UNL     1      -0.291  11.412  21.694  0.00  0.00    +0.000 A 
ATOM      6  C   UNL     1       0.285  11.847  20.465  0.00  0.00    +0.000 A 
ATOM      7  N   UNL     1       0.161  13.205  20.028  0.00  0.00    +0.000 N 
ATOM      8  C   UNL     1      -0.025  14.297  20.973  0.00  0.00    +0.000 C 
ATOM      9  C   UNL     1       1.123  15.298  20.777  0.00  0.00    +0.000 C 
ATOM     10  N   UNL     1       1.191  15.779  19.377  0.00  0.00    +0.000 NA
ATOM     11  C   UNL     1       1.397  14.625  18.467  0.00  0.00    +0.000 C 
ATOM     12  C   UNL     1       0.289  13.570  18.622  0.00  0.00    +0.000 C 
ATOM     13  N   UNL     1       0.954  10.935  19.688  0.00  0.00    +0.000 NA
ATOM     14  C   UNL     1       1.099   9.659  20.130  0.00  0.00    +0.000 A 
ATOM     15  N   UNL     1       1.739   8.671  19.477  0.00  0.00    +0.000 NA
ENDROOT
BRANCH   1  19
ATOM     16  C   UNL     1       3.163   3.634  19.590  0.00  0.00    +0.000 A 
ATOM     17  C   UNL     1       3.583   4.701  18.797  0.00  0.00    +0.000 A 
ATOM     18  C   UNL     1       3.098   6.006  18.981  0.00  0.00    +0.000 A 
ATOM     19  C   UNL     1       2.145   6.247  19.997  0.00  0.00    +0.000 A 
ATOM     20  C   UNL     1       1.686   5.167  20.771  0.00  0.00    +0.000 A 
ATOM     21  C   UNL     1       2.189   3.872  20.593  0.00  0.00    +0.000 A 
ATOM     22 CL   UNL     1       1.549   2.639  21.673  0.00  0.00    +0.000 Cl
BRANCH  16  24
ATOM     23  C   UNL     1       3.494   1.537  18.317  0.00  0.00    +0.000 C 
ATOM     24  O   UNL     1       3.758   2.440  19.320  0.00  0.00    +0.000 OA
ENDBRANCH  16  24
BRANCH  18  25
ATOM     25  O   UNL     1       3.524   7.024  18.185  0.00  0.00    +0.000 OA
ATOM     26  C   UNL     1       4.455   6.925  17.168  0.00  0.00    +0.000 C 
ENDBRANCH  18  25
ENDBRANCH   1  19
BRANCH  10  27
ATOM     27  C   UNL     1       0.040  16.625  18.965  0.00  0.00    +0.000 C 
BRANCH  27  28
ATOM     28  C   UNL     1       0.464  17.835  18.122  0.00  0.00    +0.000 C 
BRANCH  28  29
ATOM     29  O   UNL     1       1.746  18.269  18.483  0.00  0.00    +0.000 OA
ATOM     30  H   UNL     1       2.213  18.505  17.640  0.00  0.00    +0.000 HD
ENDBRANCH  28  29
ENDBRANCH  27  28
ENDBRANCH  10  27
TORSDOF 6
ENDMDL
MODEL 5
REMARK VINA RESULT:      -6.6      3.629     10.241
REMARK  Name = 
REMARK  8 active torsions:
REMARK  status: ('A' for Active; 'I' for Inactive)
REMARK    1  A    between atoms: C_1  and  O_2
REMARK    2  A    between atoms: O_2  and  C_3
REMARK    3  A    between atoms: C_5  and  O_6
REMARK    4  A    between atoms: O_6  and  C_7
REMARK    5  A    between atoms: C_8  and  C_9
REMARK    6  A    between atoms: N_18  and  C_19
REMARK    7  A    between atoms: C_19  and  C_20
REMARK    8  A    between atoms: C_20  and  O_21
REMARK                            x       y       z     vdW  Elec       q    Type
REMARK                         _______ _______ _______ _____ _____    ______ ____
ROOT
ATOM      1  C   UNL     1      -0.306  11.211  20.128  0.00  0.00    +0.000 A 
ATOM      2  C   UNL     1       0.562  11.502  19.077  0.00  0.00    +0.000 A 
ATOM      3  N   UNL     1       1.206  10.369  18.778  0.00  0.00    +0.000 N 
ATOM      4  C   UNL     1       2.127  10.115  17.826  0.00  0.00    +0.000 A 
ATOM      5  C   UNL     1       2.653   8.824  17.755  0.00  0.00    +0.000 A 
ATOM      6  C   UNL     1       2.202   7.832  18.674  0.00  0.00    +0.000 A 
ATOM      7  N   UNL     1       2.736   6.503  18.651  0.00  0.00    +0.000 N 
ATOM      8  C   UNL     1       4.073   6.227  18.144  0.00  0.00    +0.000 C 
ATOM      9  C   UNL     1       4.877   5.550  19.264  0.00  0.00    +0.000 C 
ATOM     10  N   UNL     1       4.202   4.324  19.752  0.00  0.00    +0.000 NA
ATOM     11  C   UNL     1       2.855   4.674  20.269  0.00  0.00    +0.000 C 
ATOM     12  C   UNL     1       1.997   5.373  19.202  0.00  0.00    +0.000 C 
ATOM     13  N   UNL     1       1.227   8.164  19.580  0.00  0.00    +0.000 NA
ATOM     14  C   UNL     1       0.755   9.436  19.619  0.00  0.00    +0.000 A 
ATOM     15  N   UNL     1      -0.188   9.897  20.462  0.00  0.00    +0.000 NA
ENDROOT
BRANCH   1  19
ATOM     16  C   UNL     1      -3.098  13.822  22.137  0.00  0.00    +0.000 A 
ATOM     17  C   UNL     1      -3.458  13.200  20.942  0.00  0.00    +0.000 A 
ATOM     18  C   UNL     1      -2.579  12.359  20.242  0.00  0.00    +0.000 A 
ATOM     19  C   UNL     1      -1.280  12.141  20.759  0.00  0.00    +0.000 A 
ATOM     20  C   UNL     1      -0.898  12.798  21.941  0.00  0.00    +0.000 A 
ATOM     21  C   UNL     1      -1.788  13.621  22.642  0.00  0.00    +0.000 A 
ATOM     22 CL   UNL     1      -1.175  14.333  24.130  0.00  0.00    +0.000 Cl
BRANCH  16  24
ATOM     23  C   UNL     1      -4.847  14.294  23.824  0.00  0.00    +0.000 C 
ATOM     24  O   UNL     1      -4.075  14.569  22.720  0.00  0.00    +0.000 OA
ENDBRANCH  16  24
BRANCH  18  25
ATOM     25  O   UNL     1      -2.959  11.773  19.074  0.00  0.00    +0.000 OA
ATOM     26  C   UNL     1      -4.232  11.787  18.536  0.00  0.00    +0.000 C 
ENDBRANCH  18  25
ENDBRANCH   1  19
BRANCH  10  27
ATOM     27  C   UNL     1       4.157   3.216  18.763  0.00  0.00    +0.000 C 
BRANCH  27  28
ATOM     28  C   UNL     1       4.021   1.836  19.422  0.00  0.00    +0.000 C 
BRANCH  28  29
ATOM     29  O   UNL     1       5.208   1.478  20.076  0.00  0.00    +0.000 OA
ATOM     30  H   UNL     1       5.352   2.150  20.791  0.00  0.00    +0.000 HD
ENDBRANCH  28  29
ENDBRANCH  27  28
ENDBRANCH  10  27
TORSDOF 6
ENDMDL
MODEL 6
REMARK VINA RESULT:      -6.5      2.623      3.497
REMARK  Name = 
REMARK  8 active torsions:
REMARK  status: ('A' for Active; 'I' for Inactive)
REMARK    1  A    between atoms: C_1  and  O_2
REMARK    2  A    between atoms: O_2  and  C_3
REMARK    3  A    between atoms: C_5  and  O_6
REMARK    4  A    between atoms: O_6  and  C_7
REMARK    5  A    between atoms: C_8  and  C_9
REMARK    6  A    between atoms: N_18  and  C_19
REMARK    7  A    between atoms: C_19  and  C_20
REMARK    8  A    between atoms: C_20  and  O_21
REMARK                            x       y       z     vdW  Elec       q    Type
REMARK                         _______ _______ _______ _____ _____    ______ ____
ROOT
ATOM      1  C   UNL     1       2.416   6.838  19.401  0.00  0.00    +0.000 A 
ATOM      2  C   UNL     1       2.467   7.664  18.278  0.00  0.00    +0.000 A 
ATOM      3  N   UNL     1       1.852   8.805  18.605  0.00  0.00    +0.000 N 
ATOM      4  C   UNL     1       1.656   9.928  17.884  0.00  0.00    +0.000 A 
ATOM      5  C   UNL     1       0.952  10.974  18.482  0.00  0.00    +0.000 A 
ATOM      6  C   UNL     1       0.474  10.824  19.816  0.00  0.00    +0.000 A 
ATOM      7  N   UNL     1      -0.276  11.862  20.457  0.00  0.00    +0.000 N 
ATOM      8  C   UNL     1      -1.058  12.822  19.690  0.00  0.00    +0.000 C 
ATOM      9  C   UNL     1      -2.516  12.733  20.160  0.00  0.00    +0.000 C 
ATOM     10  N   UNL     1      -2.632  12.961  21.620  0.00  0.00    +0.000 NA
ATOM     11  C   UNL     1      -1.829  11.944  22.343  0.00  0.00    +0.000 C 
ATOM     12  C   UNL     1      -0.354  11.965  21.909  0.00  0.00    +0.000 C 
ATOM     13  N   UNL     1       0.759   9.665  20.495  0.00  0.00    +0.000 NA
ATOM     14  C   UNL     1       1.437   8.671  19.867  0.00  0.00    +0.000 A 
ATOM     15  N   UNL     1       1.771   7.485  20.409  0.00  0.00    +0.000 NA
ENDROOT
BRANCH   1  19
ATOM     16  C   UNL     1       4.161   2.935  20.004  0.00  0.00    +0.000 A 
ATOM     17  C   UNL     1       4.800   3.867  19.187  0.00  0.00    +0.000 A 
ATOM     18  C   UNL     1       4.262   5.142  18.944  0.00  0.00    +0.000 A 
ATOM     19  C   UNL     1       3.027   5.490  19.540  0.00  0.00    +0.000 A 
ATOM     20  C   UNL     1       2.359   4.538  20.330  0.00  0.00    +0.000 A 
ATOM     21  C   UNL     1       2.912   3.277  20.580  0.00  0.00    +0.000 A 
ATOM     22 CL   UNL     1       1.976   2.217  21.629  0.00  0.00    +0.000 Cl
BRANCH  16  24
ATOM     23  C   UNL     1       5.336   1.206  21.330  0.00  0.00    +0.000 C 
ATOM     24  O   UNL     1       4.830   1.763  20.178  0.00  0.00    +0.000 OA
ENDBRANCH  16  24
BRANCH  18  25
ATOM     25  O   UNL     1       4.907   6.027  18.137  0.00  0.00    +0.000 OA
ATOM     26  C   UNL     1       5.316   5.790  16.837  0.00  0.00    +0.000 C 
ENDBRANCH  18  25
ENDBRANCH   1  19
BRANCH  10  27
ATOM     27  C   UNL     1      -2.308  14.347  22.049  0.00  0.00    +0.000 C 
BRANCH  27  28
ATOM     28  C   UNL     1      -3.315  15.381  21.527  0.00  0.00    +0.000 C 
BRANCH  28  29
ATOM     29  O   UNL     1      -2.813  16.036  20.395  0.00  0.00    +0.000 OA
ATOM     30  H   UNL     1      -2.700  16.990  20.645  0.00  0.00    +0.000 HD
ENDBRANCH  28  29
ENDBRANCH  27  28
ENDBRANCH  10  27
TORSDOF 6
ENDMDL
MODEL 7
REMARK VINA RESULT:      -6.4      1.381      1.641
REMARK  Name = 
REMARK  8 active torsions:
REMARK  status: ('A' for Active; 'I' for Inactive)
REMARK    1  A    between atoms: C_1  and  O_2
REMARK    2  A    between atoms: O_2  and  C_3
REMARK    3  A    between atoms: C_5  and  O_6
REMARK    4  A    between atoms: O_6  and  C_7
REMARK    5  A    between atoms: C_8  and  C_9
REMARK    6  A    between atoms: N_18  and  C_19
REMARK    7  A    between atoms: C_19  and  C_20
REMARK    8  A    between atoms: C_20  and  O_21
REMARK                            x       y       z     vdW  Elec       q    Type
REMARK                         _______ _______ _______ _____ _____    ______ ____
ROOT
ATOM      1  C   UNL     1       1.855   7.835  19.800  0.00  0.00    +0.000 A 
ATOM      2  C   UNL     1       1.468   7.785  21.138  0.00  0.00    +0.000 A 
ATOM      3  N   UNL     1       0.804   8.916  21.395  0.00  0.00    +0.000 N 
ATOM      4  C   UNL     1       0.207   9.339  22.528  0.00  0.00    +0.000 A 
ATOM      5  C   UNL     1      -0.405  10.593  22.515  0.00  0.00    +0.000 A 
ATOM      6  C   UNL     1      -0.382  11.371  21.321  0.00  0.00    +0.000 A 
ATOM      7  N   UNL     1      -0.975  12.674  21.274  0.00  0.00    +0.000 N 
ATOM      8  C   UNL     1      -1.113  13.493  22.471  0.00  0.00    +0.000 C 
ATOM      9  C   UNL     1      -0.378  14.819  22.228  0.00  0.00    +0.000 C 
ATOM     10  N   UNL     1      -0.886  15.509  21.019  0.00  0.00    +0.000 NA
ATOM     11  C   UNL     1      -0.703  14.632  19.836  0.00  0.00    +0.000 C 
ATOM     12  C   UNL     1      -1.401  13.275  20.016  0.00  0.00    +0.000 C 
ATOM     13  N   UNL     1       0.206  10.845  20.199  0.00  0.00    +0.000 NA
ATOM     14  C   UNL     1       0.799   9.625  20.264  0.00  0.00    +0.000 A 
ATOM     15  N   UNL     1       1.420   9.000  19.247  0.00  0.00    +0.000 NA
ENDROOT
BRANCH   1  19
ATOM     16  C   UNL     1       3.856   4.839  17.420  0.00  0.00    +0.000 A 
ATOM     17  C   UNL     1       3.017   4.455  18.465  0.00  0.00    +0.000 A 
ATOM     18  C   UNL     1       2.360   5.392  19.279  0.00  0.00    +0.000 A 
ATOM     19  C   UNL     1       2.563   6.771  19.039  0.00  0.00    +0.000 A 
ATOM     20  C   UNL     1       3.441   7.163  18.014  0.00  0.00    +0.000 A 
ATOM     21  C   UNL     1       4.078   6.222  17.196  0.00  0.00    +0.000 A 
ATOM     22 CL   UNL     1       5.108   6.872  15.926  0.00  0.00    +0.000 Cl
BRANCH  16  24
ATOM     23  C   UNL     1       5.596   3.730  16.052  0.00  0.00    +0.000 C 
ATOM     24  O   UNL     1       4.383   3.815  16.693  0.00  0.00    +0.000 OA
ENDBRANCH  16  24
BRANCH  18  25
ATOM     25  O   UNL     1       1.552   4.985  20.295  0.00  0.00    +0.000 OA
ATOM     26  C   UNL     1       1.082   3.700  20.493  0.00  0.00    +0.000 C 
ENDBRANCH  18  25
ENDBRANCH   1  19
BRANCH  10  27
ATOM     27  C   UNL     1      -2.281  16.008  21.142  0.00  0.00    +0.000 C 
BRANCH  27  28
ATOM     28  C   UNL     1      -2.587  17.160  20.174  0.00  0.00    +0.000 C 
BRANCH  28  29
ATOM     29  O   UNL     1      -3.798  16.939  19.505  0.00  0.00    +0.000 OA
ATOM     30  H   UNL     1      -3.762  17.471  18.669  0.00  0.00    +0.000 HD
ENDBRANCH  28  29
ENDBRANCH  27  28
ENDBRANCH  10  27
TORSDOF 6
ENDMDL
MODEL 8
REMARK VINA RESULT:      -6.4      3.016      9.701
REMARK  Name = 
REMARK  8 active torsions:
REMARK  status: ('A' for Active; 'I' for Inactive)
REMARK    1  A    between atoms: C_1  and  O_2
REMARK    2  A    between atoms: O_2  and  C_3
REMARK    3  A    between atoms: C_5  and  O_6
REMARK    4  A    between atoms: O_6  and  C_7
REMARK    5  A    between atoms: C_8  and  C_9
REMARK    6  A    between atoms: N_18  and  C_19
REMARK    7  A    between atoms: C_19  and  C_20
REMARK    8  A    between atoms: C_20  and  O_21
REMARK                            x       y       z     vdW  Elec       q    Type
REMARK                         _______ _______ _______ _____ _____    ______ ____
ROOT
ATOM      1  C   UNL     1       0.906  11.457  19.541  0.00  0.00    +0.000 A 
ATOM      2  C   UNL     1       0.440  10.767  20.660  0.00  0.00    +0.000 A 
ATOM      3  N   UNL     1       0.894   9.513  20.562  0.00  0.00    +0.000 N 
ATOM      4  C   UNL     1       0.745   8.464  21.397  0.00  0.00    +0.000 A 
ATOM      5  C   UNL     1       1.321   7.248  21.026  0.00  0.00    +0.000 A 
ATOM      6  C   UNL     1       2.040   7.159  19.799  0.00  0.00    +0.000 A 
ATOM      7  N   UNL     1       2.623   5.923  19.369  0.00  0.00    +0.000 N 
ATOM      8  C   UNL     1       2.086   4.638  19.796  0.00  0.00    +0.000 C 
ATOM      9  C   UNL     1       1.705   3.840  18.541  0.00  0.00    +0.000 C 
ATOM     10  N   UNL     1       2.859   3.685  17.624  0.00  0.00    +0.000 NA
ATOM     11  C   UNL     1       3.348   5.025  17.214  0.00  0.00    +0.000 C 
ATOM     12  C   UNL     1       3.734   5.889  18.426  0.00  0.00    +0.000 C 
ATOM     13  N   UNL     1       2.184   8.288  19.032  0.00  0.00    +0.000 NA
ATOM     14  C   UNL     1       1.595   9.445  19.428  0.00  0.00    +0.000 A 
ATOM     15  N   UNL     1       1.647  10.617  18.769  0.00  0.00    +0.000 NA
ENDROOT
BRANCH   1  19
ATOM     16  C   UNL     1       0.469  15.694  18.832  0.00  0.00    +0.000 A 
ATOM     17  C   UNL     1      -0.656  14.872  18.871  0.00  0.00    +0.000 A 
ATOM     18  C   UNL     1      -0.564  13.486  19.079  0.00  0.00    +0.000 A 
ATOM     19  C   UNL     1       0.713  12.901  19.244  0.00  0.00    +0.000 A 
ATOM     20  C   UNL     1       1.853  13.719  19.163  0.00  0.00    +0.000 A 
ATOM     21  C   UNL     1       1.750  15.102  18.974  0.00  0.00    +0.000 A 
ATOM     22 CL   UNL     1       3.268  15.993  18.944  0.00  0.00    +0.000 Cl
BRANCH  16  24
ATOM     23  C   UNL     1      -0.650  17.646  17.800  0.00  0.00    +0.000 C 
ATOM     24  O   UNL     1       0.213  17.021  18.669  0.00  0.00    +0.000 OA
ENDBRANCH  16  24
BRANCH  18  25
ATOM     25  O   UNL     1      -1.682  12.711  19.106  0.00  0.00    +0.000 OA
ATOM     26  C   UNL     1      -2.635  12.695  20.107  0.00  0.00    +0.000 C 
ENDBRANCH  18  25
ENDBRANCH   1  19
BRANCH  10  27
ATOM     27  C   UNL     1       3.949   2.824  18.154  0.00  0.00    +0.000 C 
BRANCH  27  28
ATOM     28  C   UNL     1       3.479   1.397  18.469  0.00  0.00    +0.000 C 
BRANCH  28  29
ATOM     29  O   UNL     1       4.539   0.620  18.955  0.00  0.00    +0.000 OA
ATOM     30  H   UNL     1       4.329  -0.322  18.725  0.00  0.00    +0.000 HD
ENDBRANCH  28  29
ENDBRANCH  27  28
ENDBRANCH  10  27
TORSDOF 6
ENDMDL
MODEL 9
REMARK VINA RESULT:      -6.3      3.354      9.744
REMARK  Name = 
REMARK  8 active torsions:
REMARK  status: ('A' for Active; 'I' for Inactive)
REMARK    1  A    between atoms: C_1  and  O_2
REMARK    2  A    between atoms: O_2  and  C_3
REMARK    3  A    between atoms: C_5  and  O_6
REMARK    4  A    between atoms: O_6  and  C_7
REMARK    5  A    between atoms: C_8  and  C_9
REMARK    6  A    between atoms: N_18  and  C_19
REMARK    7  A    between atoms: C_19  and  C_20
REMARK    8  A    between atoms: C_20  and  O_21
REMARK                            x       y       z     vdW  Elec       q    Type
REMARK                         _______ _______ _______ _____ _____    ______ ____
ROOT
ATOM      1  C   UNL     1       0.476   9.606  19.807  0.00  0.00    +0.000 A 
ATOM      2  C   UNL     1       0.676   8.534  20.676  0.00  0.00    +0.000 A 
ATOM      3  N   UNL     1       1.618   7.760  20.129  0.00  0.00    +0.000 N 
ATOM      4  C   UNL     1       2.183   6.622  20.583  0.00  0.00    +0.000 A 
ATOM      5  C   UNL     1       3.145   6.005  19.781  0.00  0.00    +0.000 A 
ATOM      6  C   UNL     1       3.494   6.592  18.530  0.00  0.00    +0.000 A 
ATOM      7  N   UNL     1       4.456   5.977  17.665  0.00  0.00    +0.000 N 
ATOM      8  C   UNL     1       4.700   4.541  17.695  0.00  0.00    +0.000 C 
ATOM      9  C   UNL     1       4.434   3.983  16.290  0.00  0.00    +0.000 C 
ATOM     10  N   UNL     1       5.261   4.667  15.268  0.00  0.00    +0.000 NA
ATOM     11  C   UNL     1       4.955   6.120  15.276  0.00  0.00    +0.000 C 
ATOM     12  C   UNL     1       5.184   6.744  16.662  0.00  0.00    +0.000 C 
ATOM     13  N   UNL     1       2.905   7.777  18.166  0.00  0.00    +0.000 NA
ATOM     14  C   UNL     1       1.966   8.332  18.975  0.00  0.00    +0.000 A 
ATOM     15  N   UNL     1       1.304   9.479  18.735  0.00  0.00    +0.000 NA
ENDROOT
BRANCH   1  19
ATOM     16  C   UNL     1      -2.198  12.900  20.610  0.00  0.00    +0.000 A 
ATOM     17  C   UNL     1      -2.277  12.215  19.398  0.00  0.00    +0.000 A 
ATOM     18  C   UNL     1      -1.417  11.151  19.083  0.00  0.00    +0.000 A 
ATOM     19  C   UNL     1      -0.430  10.766  20.020  0.00  0.00    +0.000 A 
ATOM     20  C   UNL     1      -0.319  11.481  21.225  0.00  0.00    +0.000 A 
ATOM     21  C   UNL     1      -1.193  12.528  21.539  0.00  0.00    +0.000 A 
ATOM     22 CL   UNL     1      -0.954  13.291  23.107  0.00  0.00    +0.000 Cl
BRANCH  16  24
ATOM     23  C   UNL     1      -4.487  13.766  20.981  0.00  0.00    +0.000 C 
ATOM     24  O   UNL     1      -3.130  13.876  20.787  0.00  0.00    +0.000 OA
ENDBRANCH  16  24
BRANCH  18  25
ATOM     25  O   UNL     1      -1.516  10.507  17.888  0.00  0.00    +0.000 OA
ATOM     26  C   UNL     1      -2.662   9.938  17.366  0.00  0.00    +0.000 C 
ENDBRANCH  18  25
ENDBRANCH   1  19
BRANCH  10  27
ATOM     27  C   UNL     1       6.718   4.396  15.380  0.00  0.00    +0.000 C 
BRANCH  27  28
ATOM     28  C   UNL     1       7.454   4.539  14.040  0.00  0.00    +0.000 C 
BRANCH  28  29
ATOM     29  O   UNL     1       8.236   5.701  14.023  0.00  0.00    +0.000 OA
ATOM     30  H   UNL     1       7.630   6.447  13.780  0.00  0.00    +0.000 HD
ENDBRANCH  28  29
ENDBRANCH  27  28
ENDBRANCH  10  27
TORSDOF 6
ENDMDL
