MODEL 1
REMARK VINA RESULT:      -6.9      0.000      0.000
REMARK  Name = 
REMARK  6 active torsions:
REMARK  status: ('A' for Active; 'I' for Inactive)
REMARK    1  A    between atoms: N_1  and  C_2
REMARK    2  A    between atoms: C_2  and  C_3
REMARK    3  A    between atoms: C_3  and  C_4
REMARK    4  A    between atoms: C_3  and  C_8
REMARK    5  A    between atoms: C_4  and  C_5
REMARK    6  A    between atoms: C_5  and  O_7
REMARK                            x       y       z     vdW  Elec       q    Type
REMARK                         _______ _______ _______ _____ _____    ______ ____
ROOT
ATOM      1  C   UNL     1       4.814   5.579  17.633  0.00  0.00    +0.000 A 
ATOM      2  C   UNL     1       4.013   6.699  17.512  0.00  0.00    +0.000 A 
ATOM      3  N   UNL     1       2.914   6.534  18.305  0.00  0.00    +0.000 N 
ATOM      4  C   UNL     1       2.968   5.328  18.954  0.00  0.00    +0.000 A 
ATOM      5  C   UNL     1       2.067   4.758  19.859  0.00  0.00    +0.000 A 
ATOM      6  C   UNL     1       2.395   3.509  20.390  0.00  0.00    +0.000 A 
ATOM      7 CL   UNL     1       1.322   2.771  21.518  0.00  0.00    +0.000 Cl
ATOM      8  C   UNL     1       3.572   2.857  20.031  0.00  0.00    +0.000 A 
ATOM      9  C   UNL     1       4.458   3.441  19.116  0.00  0.00    +0.000 A 
ATOM     10  C   UNL     1       4.154   4.703  18.560  0.00  0.00    +0.000 A 
ATOM     11  H   UNL     1       2.174   7.212  18.416  0.00  0.00    +0.000 HD
ENDROOT
BRANCH   1  12
ATOM     12  C   UNL     1       6.141   5.341  16.947  0.00  0.00    +0.000 C 
BRANCH  12  13
ATOM     13  C   UNL     1       7.306   5.259  17.966  0.00  0.00    +0.000 C 
BRANCH  13  14
ATOM     14  N   UNL     1       8.185   4.106  17.736  0.00  0.00    +0.000 NA
ATOM     15  H   UNL     1       8.686   4.269  16.856  0.00  0.00    +0.000 HD
ATOM     16  H   UNL     1       7.601   3.290  17.533  0.00  0.00    +0.000 HD
ENDBRANCH  13  14
ENDBRANCH  12  13
BRANCH  12  17
ATOM     17  C   UNL     1       6.086   4.144  15.987  0.00  0.00    +0.000 C 
BRANCH  17  18
ATOM     18  C   UNL     1       6.716   4.419  14.646  0.00  0.00    +0.000 C 
ATOM     19  O   UNL     1       7.501   5.330  14.425  0.00  0.00    +0.000 OA
BRANCH  18  20
ATOM     20  O   UNL     1       6.344   3.534  13.691  0.00  0.00    +0.000 OA
ATOM     21  H   UNL     1       5.807   3.946  12.977  0.00  0.00    +0.000 HD
ENDBRANCH  18  20
ENDBRANCH  17  18
ENDBRANCH  12  17
ENDBRANCH   1  12
TORSDOF 6
ENDMDL
MODEL 2
REMARK VINA RESULT:      -6.9      1.296      1.506
REMARK  Name = 
REMARK  6 active torsions:
REMARK  status: ('A' for Active; 'I' for Inactive)
REMARK    1  A    between atoms: N_1  and  C_2
REMARK    2  A    between atoms: C_2  and  C_3
REMARK    3  A    between atoms: C_3  and  C_4
REMARK    4  A    between atoms: C_3  and  C_8
REMARK    5  A    between atoms: C_4  and  C_5
REMARK    6  A    between atoms: C_5  and  O_7
REMARK                            x       y       z     vdW  Elec       q    Type
REMARK                         _______ _______ _______ _____ _____    ______ ____
ROOT
ATOM      1  C   UNL     1       4.968   5.610  17.063  0.00  0.00    +0.000 A 
ATOM      2  C   UNL     1       4.353   6.819  17.328  0.00  0.00    +0.000 A 
ATOM      3  N   UNL     1       3.104   6.572  17.821  0.00  0.00    +0.000 N 
ATOM      4  C   UNL     1       2.875   5.222  17.891  0.00  0.00    +0.000 A 
ATOM      5  C   UNL     1       1.746   4.529  18.338  0.00  0.00    +0.000 A 
ATOM      6  C   UNL     1       1.802   3.134  18.321  0.00  0.00    +0.000 A 
ATOM      7 CL   UNL     1       0.439   2.236  18.871  0.00  0.00    +0.000 Cl
ATOM      8  C   UNL     1       2.937   2.461  17.878  0.00  0.00    +0.000 A 
ATOM      9  C   UNL     1       4.056   3.174  17.427  0.00  0.00    +0.000 A 
ATOM     10  C   UNL     1       4.030   4.586  17.430  0.00  0.00    +0.000 A 
ATOM     11  H   UNL     1       2.446   7.281  18.111  0.00  0.00    +0.000 HD
ENDROOT
BRANCH   1  12
ATOM     12  C   UNL     1       6.367   5.409  16.525  0.00  0.00    +0.000 C 
BRANCH  12  13
ATOM     13  C   UNL     1       7.418   5.370  17.662  0.00  0.00    +0.000 C 
BRANCH  13  14
ATOM     14  N   UNL     1       8.179   4.114  17.694  0.00  0.00    +0.000 NA
ATOM     15  H   UNL     1       7.535   3.369  17.982  0.00  0.00    +0.000 HD
ATOM     16  H   UNL     1       8.851   4.163  18.466  0.00  0.00    +0.000 HD
ENDBRANCH  13  14
ENDBRANCH  12  13
BRANCH  12  17
ATOM     17  C   UNL     1       6.451   4.203  15.577  0.00  0.00    +0.000 C 
BRANCH  17  18
ATOM     18  C   UNL     1       6.886   4.566  14.180  0.00  0.00    +0.000 C 
ATOM     19  O   UNL     1       6.457   4.041  13.163  0.00  0.00    +0.000 OA
BRANCH  18  20
ATOM     20  O   UNL     1       7.800   5.564  14.150  0.00  0.00    +0.000 OA
ATOM     21  H   UNL     1       8.524   5.439  14.806  0.00  0.00    +0.000 HD
ENDBRANCH  18  20
ENDBRANCH  17  18
ENDBRANCH  12  17
ENDBRANCH   1  12
TORSDOF 6
ENDMDL
MODEL 3
REMARK VINA RESULT:      -6.8      2.492      2.968
REMARK  Name = 
REMARK  6 active torsions:
REMARK  status: ('A' for Active; 'I' for Inactive)
REMARK    1  A    between atoms: N_1  and  C_2
REMARK    2  A    between atoms: C_2  and  C_3
REMARK    3  A    between atoms: C_3  and  C_4
REMARK    4  A    between atoms: C_3  and  C_8
REMARK    5  A    between atoms: C_4  and  C_5
REMARK    6  A    between atoms: C_5  and  O_7
REMARK                            x       y       z     vdW  Elec       q    Type
REMARK                         _______ _______ _______ _____ _____    ______ ____
ROOT
ATOM      1  C   UNL     1       5.029   5.452  17.266  0.00  0.00    +0.000 A 
ATOM      2  C   UNL     1       4.388   6.665  17.439  0.00  0.00    +0.000 A 
ATOM      3  N   UNL     1       3.099   6.424  17.821  0.00  0.00    +0.000 N 
ATOM      4  C   UNL     1       2.869   5.075  17.907  0.00  0.00    +0.000 A 
ATOM      5  C   UNL     1       1.705   4.388  18.265  0.00  0.00    +0.000 A 
ATOM      6  C   UNL     1       1.767   2.993  18.292  0.00  0.00    +0.000 A 
ATOM      7 CL   UNL     1       0.361   2.102  18.738  0.00  0.00    +0.000 Cl
ATOM      8  C   UNL     1       2.941   2.315  17.974  0.00  0.00    +0.000 A 
ATOM      9  C   UNL     1       4.094   3.022  17.610  0.00  0.00    +0.000 A 
ATOM     10  C   UNL     1       4.064   4.433  17.572  0.00  0.00    +0.000 A 
ATOM     11  H   UNL     1       2.416   7.137  18.030  0.00  0.00    +0.000 HD
ENDROOT
BRANCH   1  12
ATOM     12  C   UNL     1       6.472   5.244  16.865  0.00  0.00    +0.000 C 
BRANCH  12  13
ATOM     13  C   UNL     1       6.601   4.841  15.374  0.00  0.00    +0.000 C 
BRANCH  13  14
ATOM     14  N   UNL     1       7.703   5.530  14.689  0.00  0.00    +0.000 NA
ATOM     15  H   UNL     1       8.097   4.876  14.005  0.00  0.00    +0.000 HD
ATOM     16  H   UNL     1       8.465   5.665  15.360  0.00  0.00    +0.000 HD
ENDBRANCH  13  14
ENDBRANCH  12  13
BRANCH  12  17
ATOM     17  C   UNL     1       7.355   6.440  17.251  0.00  0.00    +0.000 C 
BRANCH  17  18
ATOM     18  C   UNL     1       7.896   6.360  18.655  0.00  0.00    +0.000 C 
ATOM     19  O   UNL     1       7.747   5.402  19.400  0.00  0.00    +0.000 OA
BRANCH  18  20
ATOM     20  O   UNL     1       8.595   7.460  19.019  0.00  0.00    +0.000 OA
ATOM     21  H   UNL     1       9.569   7.327  18.971  0.00  0.00    +0.000 HD
ENDBRANCH  18  20
ENDBRANCH  17  18
ENDBRANCH  12  17
ENDBRANCH   1  12
TORSDOF 6
ENDMDL
MODEL 4
REMARK VINA RESULT:      -6.7      2.096      2.573
REMARK  Name = 
REMARK  6 active torsions:
REMARK  status: ('A' for Active; 'I' for Inactive)
REMARK    1  A    between atoms: N_1  and  C_2
REMARK    2  A    between atoms: C_2  and  C_3
REMARK    3  A    between atoms: C_3  and  C_4
REMARK    4  A    between atoms: C_3  and  C_8
REMARK    5  A    between atoms: C_4  and  C_5
REMARK    6  A    between atoms: C_5  and  O_7
REMARK                            x       y       z     vdW  Elec       q    Type
REMARK                         _______ _______ _______ _____ _____    ______ ____
ROOT
ATOM      1  C   UNL     1       5.091   5.178  17.851  0.00  0.00    +0.000 A 
ATOM      2  C   UNL     1       4.448   6.401  17.825  0.00  0.00    +0.000 A 
ATOM      3  N   UNL     1       3.386   6.352  18.683  0.00  0.00    +0.000 N 
ATOM      4  C   UNL     1       3.310   5.121  19.281  0.00  0.00    +0.000 A 
ATOM      5  C   UNL     1       2.395   4.640  20.222  0.00  0.00    +0.000 A 
ATOM      6  C   UNL     1       2.577   3.334  20.683  0.00  0.00    +0.000 A 
ATOM      7 CL   UNL     1       1.481   2.700  21.852  0.00  0.00    +0.000 Cl
ATOM      8  C   UNL     1       3.627   2.544  20.224  0.00  0.00    +0.000 A 
ATOM      9  C   UNL     1       4.529   3.043  19.274  0.00  0.00    +0.000 A 
ATOM     10  C   UNL     1       4.371   4.359  18.787  0.00  0.00    +0.000 A 
ATOM     11  H   UNL     1       2.756   7.119  18.867  0.00  0.00    +0.000 HD
ENDROOT
BRANCH   1  12
ATOM     12  C   UNL     1       6.327   4.792  17.071  0.00  0.00    +0.000 C 
BRANCH  12  13
ATOM     13  C   UNL     1       6.553   5.727  15.856  0.00  0.00    +0.000 C 
BRANCH  13  14
ATOM     14  N   UNL     1       7.601   5.242  14.948  0.00  0.00    +0.000 NA
ATOM     15  H   UNL     1       7.291   4.338  14.574  0.00  0.00    +0.000 HD
ATOM     16  H   UNL     1       8.425   5.002  15.506  0.00  0.00    +0.000 HD
ENDBRANCH  13  14
ENDBRANCH  12  13
BRANCH  12  17
ATOM     17  C   UNL     1       7.561   4.662  17.976  0.00  0.00    +0.000 C 
BRANCH  17  18
ATOM     18  C   UNL     1       7.767   5.846  18.885  0.00  0.00    +0.000 C 
ATOM     19  O   UNL     1       7.981   6.986  18.499  0.00  0.00    +0.000 OA
BRANCH  18  20
ATOM     20  O   UNL     1       7.671   5.532  20.198  0.00  0.00    +0.000 OA
ATOM     21  H   UNL     1       7.903   6.284  20.789  0.00  0.00    +0.000 HD
ENDBRANCH  18  20
ENDBRANCH  17  18
ENDBRANCH  12  17
ENDBRANCH   1  12
TORSDOF 6
ENDMDL
MODEL 5
REMARK VINA RESULT:      -6.7      1.885      2.364
REMARK  Name = 
REMARK  6 active torsions:
REMARK  status: ('A' for Active; 'I' for Inactive)
REMARK    1  A    between atoms: N_1  and  C_2
REMARK    2  A    between atoms: C_2  and  C_3
REMARK    3  A    between atoms: C_3  and  C_4
REMARK    4  A    between atoms: C_3  and  C_8
REMARK    5  A    between atoms: C_4  and  C_5
REMARK    6  A    between atoms: C_5  and  O_7
REMARK                            x       y       z     vdW  Elec       q    Type
REMARK                         _______ _______ _______ _____ _____    ______ ____
ROOT
ATOM      1  C   UNL     1       4.538   5.582  17.598  0.00  0.00    +0.000 A 
ATOM      2  C   UNL     1       3.775   6.735  17.628  0.00  0.00    +0.000 A 
ATOM      3  N   UNL     1       2.774   6.569  18.542  0.00  0.00    +0.000 N 
ATOM      4  C   UNL     1       2.856   5.330  19.123  0.00  0.00    +0.000 A 
ATOM      5  C   UNL     1       2.049   4.748  20.106  0.00  0.00    +0.000 A 
ATOM      6  C   UNL     1       2.387   3.463  20.534  0.00  0.00    +0.000 A 
ATOM      7 CL   UNL     1       1.429   2.707  21.750  0.00  0.00    +0.000 Cl
ATOM      8  C   UNL     1       3.484   2.788  20.004  0.00  0.00    +0.000 A 
ATOM      9  C   UNL     1       4.276   3.386  19.015  0.00  0.00    +0.000 A 
ATOM     10  C   UNL     1       3.959   4.685  18.559  0.00  0.00    +0.000 A 
ATOM     11  H   UNL     1       2.081   7.266  18.774  0.00  0.00    +0.000 HD
ENDROOT
BRANCH   1  12
ATOM     12  C   UNL     1       5.761   5.333  16.745  0.00  0.00    +0.000 C 
BRANCH  12  13
ATOM     13  C   UNL     1       5.511   5.707  15.262  0.00  0.00    +0.000 C 
BRANCH  13  14
ATOM     14  N   UNL     1       6.670   5.437  14.401  0.00  0.00    +0.000 NA
ATOM     15  H   UNL     1       7.258   4.747  14.882  0.00  0.00    +0.000 HD
ATOM     16  H   UNL     1       7.256   6.277  14.376  0.00  0.00    +0.000 HD
ENDBRANCH  13  14
ENDBRANCH  12  13
BRANCH  12  17
ATOM     17  C   UNL     1       7.018   5.990  17.335  0.00  0.00    +0.000 C 
BRANCH  17  18
ATOM     18  C   UNL     1       7.733   5.124  18.340  0.00  0.00    +0.000 C 
ATOM     19  O   UNL     1       7.780   5.352  19.540  0.00  0.00    +0.000 OA
BRANCH  18  20
ATOM     20  O   UNL     1       8.314   4.034  17.785  0.00  0.00    +0.000 OA
ATOM     21  H   UNL     1       9.007   3.637  18.360  0.00  0.00    +0.000 HD
ENDBRANCH  18  20
ENDBRANCH  17  18
ENDBRANCH  12  17
ENDBRANCH   1  12
TORSDOF 6
ENDMDL
MODEL 6
REMARK VINA RESULT:      -6.6      1.912      2.547
REMARK  Name = 
REMARK  6 active torsions:
REMARK  status: ('A' for Active; 'I' for Inactive)
REMARK    1  A    between atoms: N_1  and  C_2
REMARK    2  A    between atoms: C_2  and  C_3
REMARK    3  A    between atoms: C_3  and  C_4
REMARK    4  A    between atoms: C_3  and  C_8
REMARK    5  A    between atoms: C_4  and  C_5
REMARK    6  A    between atoms: C_5  and  O_7
REMARK                            x       y       z     vdW  Elec       q    Type
REMARK                         _______ _______ _______ _____ _____    ______ ____
ROOT
ATOM      1  C   UNL     1       5.305   5.225  18.155  0.00  0.00    +0.000 A 
ATOM      2  C   UNL     1       6.123   4.349  18.844  0.00  0.00    +0.000 A 
ATOM      3  N   UNL     1       5.364   3.307  19.293  0.00  0.00    +0.000 N 
ATOM      4  C   UNL     1       4.056   3.470  18.916  0.00  0.00    +0.000 A 
ATOM      5  C   UNL     1       2.949   2.649  19.152  0.00  0.00    +0.000 A 
ATOM      6  C   UNL     1       1.724   3.057  18.620  0.00  0.00    +0.000 A 
ATOM      7 CL   UNL     1       0.332   2.073  18.874  0.00  0.00    +0.000 Cl
ATOM      8  C   UNL     1       1.610   4.234  17.883  0.00  0.00    +0.000 A 
ATOM      9  C   UNL     1       2.730   5.046  17.665  0.00  0.00    +0.000 A 
ATOM     10  C   UNL     1       3.983   4.662  18.192  0.00  0.00    +0.000 A 
ATOM     11  H   UNL     1       5.716   2.517  19.813  0.00  0.00    +0.000 HD
ENDROOT
BRANCH   1  12
ATOM     12  C   UNL     1       5.727   6.505  17.471  0.00  0.00    +0.000 C 
BRANCH  12  13
ATOM     13  C   UNL     1       7.179   6.900  17.841  0.00  0.00    +0.000 C 
BRANCH  13  14
ATOM     14  N   UNL     1       7.699   8.002  17.020  0.00  0.00    +0.000 NA
ATOM     15  H   UNL     1       8.691   8.118  17.251  0.00  0.00    +0.000 HD
ATOM     16  H   UNL     1       7.272   8.875  17.343  0.00  0.00    +0.000 HD
ENDBRANCH  13  14
ENDBRANCH  12  13
BRANCH  12  17
ATOM     17  C   UNL     1       5.477   6.458  15.956  0.00  0.00    +0.000 C 
BRANCH  17  18
ATOM     18  C   UNL     1       6.120   5.276  15.277  0.00  0.00    +0.000 C 
ATOM     19  O   UNL     1       5.533   4.245  14.982  0.00  0.00    +0.000 OA
BRANCH  18  20
ATOM     20  O   UNL     1       7.430   5.471  14.997  0.00  0.00    +0.000 OA
ATOM     21  H   UNL     1       7.948   5.767  15.780  0.00  0.00    +0.000 HD
ENDBRANCH  18  20
ENDBRANCH  17  18
ENDBRANCH  12  17
ENDBRANCH   1  12
TORSDOF 6
ENDMDL
MODEL 7
REMARK VINA RESULT:      -6.6      4.200      6.045
REMARK  Name = 
REMARK  6 active torsions:
REMARK  status: ('A' for Active; 'I' for Inactive)
REMARK    1  A    between atoms: N_1  and  C_2
REMARK    2  A    between atoms: C_2  and  C_3
REMARK    3  A    between atoms: C_3  and  C_4
REMARK    4  A    between atoms: C_3  and  C_8
REMARK    5  A    between atoms: C_4  and  C_5
REMARK    6  A    between atoms: C_5  and  O_7
REMARK                            x       y       z     vdW  Elec       q    Type
REMARK                         _______ _______ _______ _____ _____    ______ ____
ROOT
ATOM      1  C   UNL     1       3.678   3.890  18.516  0.00  0.00    +0.000 A 
ATOM      2  C   UNL     1       4.505   3.042  19.228  0.00  0.00    +0.000 A 
ATOM      3  N   UNL     1       5.759   3.580  19.255  0.00  0.00    +0.000 N 
ATOM      4  C   UNL     1       5.784   4.772  18.577  0.00  0.00    +0.000 A 
ATOM      5  C   UNL     1       6.846   5.656  18.363  0.00  0.00    +0.000 A 
ATOM      6  C   UNL     1       6.572   6.824  17.647  0.00  0.00    +0.000 A 
ATOM      7 CL   UNL     1       7.846   7.950  17.366  0.00  0.00    +0.000 Cl
ATOM      8  C   UNL     1       5.294   7.096  17.167  0.00  0.00    +0.000 A 
ATOM      9  C   UNL     1       4.245   6.193  17.386  0.00  0.00    +0.000 A 
ATOM     10  C   UNL     1       4.490   5.002  18.105  0.00  0.00    +0.000 A 
ATOM     11  H   UNL     1       6.554   3.171  19.724  0.00  0.00    +0.000 HD
ENDROOT
BRANCH   1  12
ATOM     12  C   UNL     1       2.201   3.699  18.252  0.00  0.00    +0.000 C 
BRANCH  12  13
ATOM     13  C   UNL     1       1.816   2.198  18.214  0.00  0.00    +0.000 C 
BRANCH  13  14
ATOM     14  N   UNL     1       0.395   1.965  18.505  0.00  0.00    +0.000 NA
ATOM     15  H   UNL     1       0.190   2.399  19.411  0.00  0.00    +0.000 HD
ATOM     16  H   UNL     1       0.262   0.965  18.681  0.00  0.00    +0.000 HD
ENDBRANCH  13  14
ENDBRANCH  12  13
BRANCH  12  17
ATOM     17  C   UNL     1       1.333   4.525  19.212  0.00  0.00    +0.000 C 
BRANCH  17  18
ATOM     18  C   UNL     1       1.661   4.298  20.665  0.00  0.00    +0.000 C 
ATOM     19  O   UNL     1       1.345   3.301  21.298  0.00  0.00    +0.000 OA
BRANCH  18  20
ATOM     20  O   UNL     1       2.371   5.311  21.215  0.00  0.00    +0.000 OA
ATOM     21  H   UNL     1       1.998   5.617  22.074  0.00  0.00    +0.000 HD
ENDBRANCH  18  20
ENDBRANCH  17  18
ENDBRANCH  12  17
ENDBRANCH   1  12
TORSDOF 6
ENDMDL
MODEL 8
REMARK VINA RESULT:      -6.6      4.331      5.984
REMARK  Name = 
REMARK  6 active torsions:
REMARK  status: ('A' for Active; 'I' for Inactive)
REMARK    1  A    between atoms: N_1  and  C_2
REMARK    2  A    between atoms: C_2  and  C_3
REMARK    3  A    between atoms: C_3  and  C_4
REMARK    4  A    between atoms: C_3  and  C_8
REMARK    5  A    between atoms: C_4  and  C_5
REMARK    6  A    between atoms: C_5  and  O_7
REMARK                            x       y       z     vdW  Elec       q    Type
REMARK                         _______ _______ _______ _____ _____    ______ ____
ROOT
ATOM      1  C   UNL     1       4.695   4.450  18.603  0.00  0.00    +0.000 A 
ATOM      2  C   UNL     1       5.500   5.293  19.346  0.00  0.00    +0.000 A 
ATOM      3  N   UNL     1       6.481   5.785  18.532  0.00  0.00    +0.000 N 
ATOM      4  C   UNL     1       6.343   5.287  17.262  0.00  0.00    +0.000 A 
ATOM      5  C   UNL     1       7.113   5.527  16.120  0.00  0.00    +0.000 A 
ATOM      6  C   UNL     1       6.721   4.896  14.938  0.00  0.00    +0.000 A 
ATOM      7 CL   UNL     1       7.632   5.169  13.501  0.00  0.00    +0.000 Cl
ATOM      8  C   UNL     1       5.607   4.061  14.899  0.00  0.00    +0.000 A 
ATOM      9  C   UNL     1       4.853   3.827  16.057  0.00  0.00    +0.000 A 
ATOM     10  C   UNL     1       5.225   4.450  17.268  0.00  0.00    +0.000 A 
ATOM     11  H   UNL     1       7.196   6.438  18.818  0.00  0.00    +0.000 HD
ENDROOT
BRANCH   1  12
ATOM     12  C   UNL     1       3.476   3.702  19.096  0.00  0.00    +0.000 C 
BRANCH  12  13
ATOM     13  C   UNL     1       3.769   2.193  19.291  0.00  0.00    +0.000 C 
BRANCH  13  14
ATOM     14  N   UNL     1       4.913   1.944  20.178  0.00  0.00    +0.000 NA
ATOM     15  H   UNL     1       5.577   1.353  19.667  0.00  0.00    +0.000 HD
ATOM     16  H   UNL     1       4.600   1.345  20.947  0.00  0.00    +0.000 HD
ENDBRANCH  13  14
ENDBRANCH  12  13
BRANCH  12  17
ATOM     17  C   UNL     1       2.854   4.367  20.333  0.00  0.00    +0.000 C 
BRANCH  17  18
ATOM     18  C   UNL     1       1.947   3.452  21.115  0.00  0.00    +0.000 C 
ATOM     19  O   UNL     1       2.279   2.842  22.121  0.00  0.00    +0.000 OA
BRANCH  18  20
ATOM     20  O   UNL     1       0.695   3.381  20.604  0.00  0.00    +0.000 OA
ATOM     21  H   UNL     1       0.350   2.460  20.566  0.00  0.00    +0.000 HD
ENDBRANCH  18  20
ENDBRANCH  17  18
ENDBRANCH  12  17
ENDBRANCH   1  12
TORSDOF 6
ENDMDL
MODEL 9
REMARK VINA RESULT:      -6.5      1.640      1.690
REMARK  Name = 
REMARK  6 active torsions:
REMARK  status: ('A' for Active; 'I' for Inactive)
REMARK    1  A    between atoms: N_1  and  C_2
REMARK    2  A    between atoms: C_2  and  C_3
REMARK    3  A    between atoms: C_3  and  C_4
REMARK    4  A    between atoms: C_3  and  C_8
REMARK    5  A    between atoms: C_4  and  C_5
REMARK    6  A    between atoms: C_5  and  O_7
REMARK                            x       y       z     vdW  Elec       q    Type
REMARK                         _______ _______ _______ _____ _____    ______ ____
ROOT
ATOM      1  C   UNL     1       4.244   6.302  17.134  0.00  0.00    +0.000 A 
ATOM      2  C   UNL     1       3.569   7.324  17.776  0.00  0.00    +0.000 A 
ATOM      3  N   UNL     1       2.493   6.791  18.427  0.00  0.00    +0.000 N 
ATOM      4  C   UNL     1       2.440   5.435  18.234  0.00  0.00    +0.000 A 
ATOM      5  C   UNL     1       1.521   4.498  18.718  0.00  0.00    +0.000 A 
ATOM      6  C   UNL     1       1.730   3.160  18.377  0.00  0.00    +0.000 A 
ATOM      7 CL   UNL     1       0.631   1.968  18.958  0.00  0.00    +0.000 Cl
ATOM      8  C   UNL     1       2.810   2.775  17.587  0.00  0.00    +0.000 A 
ATOM      9  C   UNL     1       3.714   3.730  17.105  0.00  0.00    +0.000 A 
ATOM     10  C   UNL     1       3.530   5.092  17.431  0.00  0.00    +0.000 A 
ATOM     11  H   UNL     1       1.839   7.316  18.989  0.00  0.00    +0.000 HD
ENDROOT
BRANCH   1  12
ATOM     12  C   UNL     1       5.505   6.434  16.309  0.00  0.00    +0.000 C 
BRANCH  12  13
ATOM     13  C   UNL     1       6.770   6.103  17.140  0.00  0.00    +0.000 C 
BRANCH  13  14
ATOM     14  N   UNL     1       7.798   7.148  17.055  0.00  0.00    +0.000 NA
ATOM     15  H   UNL     1       8.665   6.762  17.445  0.00  0.00    +0.000 HD
ATOM     16  H   UNL     1       7.553   7.897  17.709  0.00  0.00    +0.000 HD
ENDBRANCH  13  14
ENDBRANCH  12  13
BRANCH  12  17
ATOM     17  C   UNL     1       5.417   5.645  14.994  0.00  0.00    +0.000 C 
BRANCH  17  18
ATOM     18  C   UNL     1       6.665   4.860  14.680  0.00  0.00    +0.000 C 
ATOM     19  O   UNL     1       7.740   5.359  14.384  0.00  0.00    +0.000 OA
BRANCH  18  20
ATOM     20  O   UNL     1       6.490   3.521  14.781  0.00  0.00    +0.000 OA
ATOM     21  H   UNL     1       7.023   3.016  14.125  0.00  0.00    +0.000 HD
ENDBRANCH  18  20
ENDBRANCH  17  18
ENDBRANCH  12  17
ENDBRANCH   1  12
TORSDOF 6
ENDMDL
