MODEL 1
REMARK VINA RESULT:      -8.6      0.000      0.000
REMARK  Name = 
REMARK  12 active torsions:
REMARK  status: ('A' for Active; 'I' for Inactive)
REMARK    1  A    between atoms: C_1  and  C_2
REMARK    2  A    between atoms: C_2  and  C_3
REMARK    3  A    between atoms: C_2  and  C_4
REMARK    4  A    between atoms: C_4  and  C_5
REMARK    5  A    between atoms: C_5  and  N_6
REMARK    6  A    between atoms: C_5  and  C_7
REMARK    7  A    between atoms: N_9  and  C_10
REMARK    8  A    between atoms: C_14  and  C_16
REMARK    9  A    between atoms: C_16  and  C_17
REMARK   10  A    between atoms: C_17  and  C_18
REMARK   11  A    between atoms: C_18  and  C_19
REMARK   12  A    between atoms: C_18  and  C_26
REMARK                            x       y       z     vdW  Elec       q    Type
REMARK                         _______ _______ _______ _____ _____    ______ ____
ROOT
ATOM      1  C   UNL     1      -0.245  11.389  21.433  0.00  0.00    +0.000 C 
ATOM      2  C   UNL     1       0.912  12.103  20.714  0.00  0.00    +0.000 C 
ATOM      3  C   UNL     1       0.878  11.889  19.201  0.00  0.00    +0.000 C 
ATOM      4  N   UNL     1       0.756  10.465  18.882  0.00  0.00    +0.000 N 
ATOM      5  C   UNL     1       1.730   9.849  18.112  0.00  0.00    +0.000 C 
ATOM      6  O   UNL     1       2.707  10.448  17.668  0.00  0.00    +0.000 OA
ATOM      7  C   UNL     1      -0.392   9.796  19.498  0.00  0.00    +0.000 C 
ATOM      8  C   UNL     1      -0.303   9.915  21.014  0.00  0.00    +0.000 C 
ENDROOT
BRANCH   1  11
ATOM      9  C   UNL     1      -2.406  12.480  22.124  0.00  0.00    +0.000 C 
ATOM     10  O   UNL     1      -2.206  12.418  23.329  0.00  0.00    +0.000 OA
ATOM     11  N   UNL     1      -1.505  12.056  21.164  0.00  0.00    +0.000 N 
ATOM     12  H   UNL     1      -1.882  12.116  20.219  0.00  0.00    +0.000 HD
BRANCH   9  13
ATOM     13  C   UNL     1      -3.740  12.950  21.477  0.00  0.00    +0.000 C 
BRANCH  13  14
ATOM     14  N   UNL     1      -4.877  12.446  22.296  0.00  0.00    +0.000 NA
ATOM     15  H   UNL     1      -5.500  13.232  22.496  0.00  0.00    +0.000 HD
ATOM     16  H   UNL     1      -4.528  12.125  23.198  0.00  0.00    +0.000 HD
ENDBRANCH  13  14
BRANCH  13  17
ATOM     17  C   UNL     1      -3.818  12.532  19.996  0.00  0.00    +0.000 C 
BRANCH  17  19
ATOM     18  C   UNL     1      -6.002  13.487  19.124  0.00  0.00    +0.000 C 
ATOM     19  C   UNL     1      -5.233  12.211  19.467  0.00  0.00    +0.000 C 
ATOM     20  C   UNL     1      -5.167  11.320  18.219  0.00  0.00    +0.000 C 
ENDBRANCH  17  19
ENDBRANCH  13  17
ENDBRANCH   9  13
ENDBRANCH   1  11
BRANCH   5  21
ATOM     21  C   UNL     1       1.513   8.366  17.832  0.00  0.00    +0.000 C 
BRANCH  21  22
ATOM     22  C   UNL     1       2.630   7.514  18.428  0.00  0.00    +0.000 C 
BRANCH  22  23
ATOM     23  C   UNL     1       2.624   6.038  17.961  0.00  0.00    +0.000 C 
BRANCH  23  24
ATOM     24  C   UNL     1       3.990   5.623  17.400  0.00  0.00    +0.000 A 
ATOM     25  C   UNL     1       4.169   4.374  16.774  0.00  0.00    +0.000 A 
ATOM     26  C   UNL     1       5.417   3.992  16.280  0.00  0.00    +0.000 A 
ATOM     27  C   UNL     1       6.502   4.846  16.421  0.00  0.00    +0.000 A 
ATOM     28  F   UNL     1       7.701   4.477  15.952  0.00  0.00    +0.000 F 
ATOM     29  C   UNL     1       6.360   6.076  17.053  0.00  0.00    +0.000 A 
ATOM     30  C   UNL     1       5.107   6.467  17.537  0.00  0.00    +0.000 A 
ENDBRANCH  23  24
BRANCH  23  31
ATOM     31  C   UNL     1       2.141   5.080  19.061  0.00  0.00    +0.000 A 
ATOM     32  C   UNL     1       1.262   4.027  18.748  0.00  0.00    +0.000 A 
ATOM     33  C   UNL     1       0.912   3.078  19.718  0.00  0.00    +0.000 A 
ATOM     34  C   UNL     1       1.423   3.183  21.005  0.00  0.00    +0.000 A 
ATOM     35  F   UNL     1       1.126   2.250  21.918  0.00  0.00    +0.000 F 
ATOM     36  C   UNL     1       2.245   4.241  21.355  0.00  0.00    +0.000 A 
ATOM     37  C   UNL     1       2.599   5.186  20.390  0.00  0.00    +0.000 A 
ENDBRANCH  23  31
ENDBRANCH  22  23
ENDBRANCH  21  22
ENDBRANCH   5  21
TORSDOF 10
ENDMDL
MODEL 2
REMARK VINA RESULT:      -8.4      0.793      1.404
REMARK  Name = 
REMARK  12 active torsions:
REMARK  status: ('A' for Active; 'I' for Inactive)
REMARK    1  A    between atoms: C_1  and  C_2
REMARK    2  A    between atoms: C_2  and  C_3
REMARK    3  A    between atoms: C_2  and  C_4
REMARK    4  A    between atoms: C_4  and  C_5
REMARK    5  A    between atoms: C_5  and  N_6
REMARK    6  A    between atoms: C_5  and  C_7
REMARK    7  A    between atoms: N_9  and  C_10
REMARK    8  A    between atoms: C_14  and  C_16
REMARK    9  A    between atoms: C_16  and  C_17
REMARK   10  A    between atoms: C_17  and  C_18
REMARK   11  A    between atoms: C_18  and  C_19
REMARK   12  A    between atoms: C_18  and  C_26
REMARK                            x       y       z     vdW  Elec       q    Type
REMARK                         _______ _______ _______ _____ _____    ______ ____
ROOT
ATOM      1  C   UNL     1       0.348  10.955  21.871  0.00  0.00    +0.000 C 
ATOM      2  C   UNL     1       1.267  11.785  20.960  0.00  0.00    +0.000 C 
ATOM      3  C   UNL     1       0.909  11.638  19.481  0.00  0.00    +0.000 C 
ATOM      4  N   UNL     1       0.807  10.225  19.111  0.00  0.00    +0.000 N 
ATOM      5  C   UNL     1       1.620   9.719  18.109  0.00  0.00    +0.000 C 
ATOM      6  O   UNL     1       2.433  10.409  17.497  0.00  0.00    +0.000 OA
ATOM      7  C   UNL     1      -0.129   9.445  19.923  0.00  0.00    +0.000 C 
ATOM      8  C   UNL     1       0.290   9.501  21.387  0.00  0.00    +0.000 C 
ENDROOT
BRANCH   1  11
ATOM      9  C   UNL     1      -1.354  12.595  22.737  0.00  0.00    +0.000 C 
ATOM     10  O   UNL     1      -0.581  13.226  23.444  0.00  0.00    +0.000 OA
ATOM     11  N   UNL     1      -0.979  11.538  21.929  0.00  0.00    +0.000 N 
ATOM     12  H   UNL     1      -1.775  11.089  21.475  0.00  0.00    +0.000 HD
BRANCH   9  13
ATOM     13  C   UNL     1      -2.894  12.811  22.706  0.00  0.00    +0.000 C 
BRANCH  13  14
ATOM     14  N   UNL     1      -3.520  11.974  23.765  0.00  0.00    +0.000 NA
ATOM     15  H   UNL     1      -4.047  11.224  23.310  0.00  0.00    +0.000 HD
ATOM     16  H   UNL     1      -4.203  12.529  24.277  0.00  0.00    +0.000 HD
ENDBRANCH  13  14
BRANCH  13  17
ATOM     17  C   UNL     1      -3.464  12.550  21.298  0.00  0.00    +0.000 C 
BRANCH  17  19
ATOM     18  C   UNL     1      -5.285  13.071  19.609  0.00  0.00    +0.000 C 
ATOM     19  C   UNL     1      -4.457  13.612  20.774  0.00  0.00    +0.000 C 
ATOM     20  C   UNL     1      -5.407  14.076  21.887  0.00  0.00    +0.000 C 
ENDBRANCH  17  19
ENDBRANCH  13  17
ENDBRANCH   9  13
ENDBRANCH   1  11
BRANCH   5  21
ATOM     21  C   UNL     1       1.439   8.238  17.794  0.00  0.00    +0.000 C 
BRANCH  21  22
ATOM     22  C   UNL     1       2.506   7.385  18.475  0.00  0.00    +0.000 C 
BRANCH  22  23
ATOM     23  C   UNL     1       2.580   5.927  17.961  0.00  0.00    +0.000 C 
BRANCH  23  24
ATOM     24  C   UNL     1       3.947   5.621  17.337  0.00  0.00    +0.000 A 
ATOM     25  C   UNL     1       4.241   4.344  16.824  0.00  0.00    +0.000 A 
ATOM     26  C   UNL     1       5.493   4.064  16.271  0.00  0.00    +0.000 A 
ATOM     27  C   UNL     1       6.466   5.052  16.242  0.00  0.00    +0.000 A 
ATOM     28  F   UNL     1       7.668   4.781  15.717  0.00  0.00    +0.000 F 
ATOM     29  C   UNL     1       6.211   6.317  16.760  0.00  0.00    +0.000 A 
ATOM     30  C   UNL     1       4.954   6.604  17.302  0.00  0.00    +0.000 A 
ENDBRANCH  23  24
BRANCH  23  31
ATOM     31  C   UNL     1       2.205   4.906  19.048  0.00  0.00    +0.000 A 
ATOM     32  C   UNL     1       2.704   5.049  20.356  0.00  0.00    +0.000 A 
ATOM     33  C   UNL     1       2.273   4.195  21.381  0.00  0.00    +0.000 A 
ATOM     34  C   UNL     1       1.358   3.189  21.103  0.00  0.00    +0.000 A 
ATOM     35  F   UNL     1       0.911   2.404  22.092  0.00  0.00    +0.000 F 
ATOM     36  C   UNL     1       0.894   2.990  19.813  0.00  0.00    +0.000 A 
ATOM     37  C   UNL     1       1.318   3.841  18.791  0.00  0.00    +0.000 A 
ENDBRANCH  23  31
ENDBRANCH  22  23
ENDBRANCH  21  22
ENDBRANCH   5  21
TORSDOF 10
ENDMDL
MODEL 3
REMARK VINA RESULT:      -8.4      1.189      2.069
REMARK  Name = 
REMARK  12 active torsions:
REMARK  status: ('A' for Active; 'I' for Inactive)
REMARK    1  A    between atoms: C_1  and  C_2
REMARK    2  A    between atoms: C_2  and  C_3
REMARK    3  A    between atoms: C_2  and  C_4
REMARK    4  A    between atoms: C_4  and  C_5
REMARK    5  A    between atoms: C_5  and  N_6
REMARK    6  A    between atoms: C_5  and  C_7
REMARK    7  A    between atoms: N_9  and  C_10
REMARK    8  A    between atoms: C_14  and  C_16
REMARK    9  A    between atoms: C_16  and  C_17
REMARK   10  A    between atoms: C_17  and  C_18
REMARK   11  A    between atoms: C_18  and  C_19
REMARK   12  A    between atoms: C_18  and  C_26
REMARK                            x       y       z     vdW  Elec       q    Type
REMARK                         _______ _______ _______ _____ _____    ______ ____
ROOT
ATOM      1  C   UNL     1      -0.138  11.368  21.401  0.00  0.00    +0.000 C 
ATOM      2  C   UNL     1       0.980  12.049  20.593  0.00  0.00    +0.000 C 
ATOM      3  C   UNL     1       0.878  11.757  19.097  0.00  0.00    +0.000 C 
ATOM      4  N   UNL     1       0.751  10.318  18.858  0.00  0.00    +0.000 N 
ATOM      5  C   UNL     1       1.692   9.667  18.076  0.00  0.00    +0.000 C 
ATOM      6  O   UNL     1       2.644  10.247  17.557  0.00  0.00    +0.000 OA
ATOM      7  C   UNL     1      -0.362   9.676  19.560  0.00  0.00    +0.000 C 
ATOM      8  C   UNL     1      -0.205   9.874  21.062  0.00  0.00    +0.000 C 
ENDROOT
BRANCH   1  11
ATOM      9  C   UNL     1      -2.197  12.626  22.119  0.00  0.00    +0.000 C 
ATOM     10  O   UNL     1      -1.864  12.769  23.287  0.00  0.00    +0.000 OA
ATOM     11  N   UNL     1      -1.414  12.014  21.157  0.00  0.00    +0.000 N 
ATOM     12  H   UNL     1      -1.894  11.919  20.263  0.00  0.00    +0.000 HD
BRANCH   9  13
ATOM     13  C   UNL     1      -3.591  13.014  21.548  0.00  0.00    +0.000 C 
BRANCH  13  14
ATOM     14  N   UNL     1      -3.458  13.276  20.089  0.00  0.00    +0.000 NA
ATOM     15  H   UNL     1      -2.891  14.118  19.966  0.00  0.00    +0.000 HD
ATOM     16  H   UNL     1      -4.374  13.493  19.699  0.00  0.00    +0.000 HD
ENDBRANCH  13  14
BRANCH  13  17
ATOM     17  C   UNL     1      -4.205  14.191  22.332  0.00  0.00    +0.000 C 
BRANCH  17  19
ATOM     18  C   UNL     1      -5.714  12.926  23.933  0.00  0.00    +0.000 C 
ATOM     19  C   UNL     1      -5.653  13.979  22.826  0.00  0.00    +0.000 C 
ATOM     20  C   UNL     1      -6.254  15.289  23.351  0.00  0.00    +0.000 C 
ENDBRANCH  17  19
ENDBRANCH  13  17
ENDBRANCH   9  13
ENDBRANCH   1  11
BRANCH   5  21
ATOM     21  C   UNL     1       1.474   8.170  17.883  0.00  0.00    +0.000 C 
BRANCH  21  22
ATOM     22  C   UNL     1       2.678   7.361  18.358  0.00  0.00    +0.000 C 
BRANCH  22  23
ATOM     23  C   UNL     1       2.693   5.893  17.868  0.00  0.00    +0.000 C 
BRANCH  23  24
ATOM     24  C   UNL     1       4.045   5.524  17.245  0.00  0.00    +0.000 A 
ATOM     25  C   UNL     1       5.100   6.455  17.196  0.00  0.00    +0.000 A 
ATOM     26  C   UNL     1       6.324   6.121  16.612  0.00  0.00    +0.000 A 
ATOM     27  C   UNL     1       6.499   4.861  16.059  0.00  0.00    +0.000 A 
ATOM     28  F   UNL     1       7.671   4.544  15.494  0.00  0.00    +0.000 F 
ATOM     29  C   UNL     1       5.469   3.929  16.073  0.00  0.00    +0.000 A 
ATOM     30  C   UNL     1       4.245   4.255  16.669  0.00  0.00    +0.000 A 
ENDBRANCH  23  24
BRANCH  23  31
ATOM     31  C   UNL     1       2.282   4.906  18.972  0.00  0.00    +0.000 A 
ATOM     32  C   UNL     1       2.755   5.076  20.286  0.00  0.00    +0.000 A 
ATOM     33  C   UNL     1       2.292   4.254  21.323  0.00  0.00    +0.000 A 
ATOM     34  C   UNL     1       1.369   3.253  21.051  0.00  0.00    +0.000 A 
ATOM     35  F   UNL     1       0.891   2.499  22.050  0.00  0.00    +0.000 F 
ATOM     36  C   UNL     1       0.930   3.027  19.757  0.00  0.00    +0.000 A 
ATOM     37  C   UNL     1       1.386   3.846  18.723  0.00  0.00    +0.000 A 
ENDBRANCH  23  31
ENDBRANCH  22  23
ENDBRANCH  21  22
ENDBRANCH   5  21
TORSDOF 10
ENDMDL
MODEL 4
REMARK VINA RESULT:      -8.2      0.890      1.481
REMARK  Name = 
REMARK  12 active torsions:
REMARK  status: ('A' for Active; 'I' for Inactive)
REMARK    1  A    between atoms: C_1  and  C_2
REMARK    2  A    between atoms: C_2  and  C_3
REMARK    3  A    between atoms: C_2  and  C_4
REMARK    4  A    between atoms: C_4  and  C_5
REMARK    5  A    between atoms: C_5  and  N_6
REMARK    6  A    between atoms: C_5  and  C_7
REMARK    7  A    between atoms: N_9  and  C_10
REMARK    8  A    between atoms: C_14  and  C_16
REMARK    9  A    between atoms: C_16  and  C_17
REMARK   10  A    between atoms: C_17  and  C_18
REMARK   11  A    between atoms: C_18  and  C_19
REMARK   12  A    between atoms: C_18  and  C_26
REMARK                            x       y       z     vdW  Elec       q    Type
REMARK                         _______ _______ _______ _____ _____    ______ ____
ROOT
ATOM      1  C   UNL     1      -0.524  12.304  20.741  0.00  0.00    +0.000 C 
ATOM      2  C   UNL     1       0.159  12.559  19.387  0.00  0.00    +0.000 C 
ATOM      3  C   UNL     1      -0.029  11.398  18.411  0.00  0.00    +0.000 C 
ATOM      4  N   UNL     1       0.336  10.127  19.042  0.00  0.00    +0.000 N 
ATOM      5  C   UNL     1       1.335   9.347  18.483  0.00  0.00    +0.000 C 
ATOM      6  O   UNL     1       1.939   9.667  17.461  0.00  0.00    +0.000 OA
ATOM      7  C   UNL     1      -0.371   9.838  20.291  0.00  0.00    +0.000 C 
ATOM      8  C   UNL     1      -0.097  10.943  21.304  0.00  0.00    +0.000 C 
ENDROOT
BRANCH   1  11
ATOM      9  C   UNL     1      -2.752  13.432  21.053  0.00  0.00    +0.000 C 
ATOM     10  O   UNL     1      -2.311  14.465  21.536  0.00  0.00    +0.000 OA
ATOM     11  N   UNL     1      -1.967  12.384  20.610  0.00  0.00    +0.000 N 
ATOM     12  H   UNL     1      -2.517  11.579  20.313  0.00  0.00    +0.000 HD
BRANCH   9  13
ATOM     13  C   UNL     1      -4.265  13.086  20.950  0.00  0.00    +0.000 C 
BRANCH  13  14
ATOM     14  N   UNL     1      -4.689  12.400  22.202  0.00  0.00    +0.000 NA
ATOM     15  H   UNL     1      -5.385  11.692  21.958  0.00  0.00    +0.000 HD
ATOM     16  H   UNL     1      -5.164  13.066  22.809  0.00  0.00    +0.000 HD
ENDBRANCH  13  14
BRANCH  13  17
ATOM     17  C   UNL     1      -4.565  12.276  19.673  0.00  0.00    +0.000 C 
BRANCH  17  19
ATOM     18  C   UNL     1      -6.942  13.145  19.479  0.00  0.00    +0.000 C 
ATOM     19  C   UNL     1      -6.049  11.905  19.453  0.00  0.00    +0.000 C 
ATOM     20  C   UNL     1      -6.243  11.180  18.114  0.00  0.00    +0.000 C 
ENDBRANCH  17  19
ENDBRANCH  13  17
ENDBRANCH   9  13
ENDBRANCH   1  11
BRANCH   5  21
ATOM     21  C   UNL     1       1.642   8.041  19.210  0.00  0.00    +0.000 C 
BRANCH  21  22
ATOM     22  C   UNL     1       2.917   7.391  18.680  0.00  0.00    +0.000 C 
BRANCH  22  23
ATOM     23  C   UNL     1       2.704   5.991  18.053  0.00  0.00    +0.000 C 
BRANCH  23  24
ATOM     24  C   UNL     1       3.935   5.542  17.256  0.00  0.00    +0.000 A 
ATOM     25  C   UNL     1       4.823   6.482  16.700  0.00  0.00    +0.000 A 
ATOM     26  C   UNL     1       5.933   6.070  15.960  0.00  0.00    +0.000 A 
ATOM     27  C   UNL     1       6.156   4.716  15.755  0.00  0.00    +0.000 A 
ATOM     28  F   UNL     1       7.218   4.322  15.040  0.00  0.00    +0.000 F 
ATOM     29  C   UNL     1       5.285   3.765  16.273  0.00  0.00    +0.000 A 
ATOM     30  C   UNL     1       4.179   4.175  17.026  0.00  0.00    +0.000 A 
ENDBRANCH  23  24
BRANCH  23  31
ATOM     31  C   UNL     1       2.283   4.943  19.096  0.00  0.00    +0.000 A 
ATOM     32  C   UNL     1       2.823   4.980  20.396  0.00  0.00    +0.000 A 
ATOM     33  C   UNL     1       2.357   4.106  21.386  0.00  0.00    +0.000 A 
ATOM     34  C   UNL     1       1.364   3.184  21.084  0.00  0.00    +0.000 A 
ATOM     35  F   UNL     1       0.886   2.381  22.043  0.00  0.00    +0.000 F 
ATOM     36  C   UNL     1       0.856   3.088  19.799  0.00  0.00    +0.000 A 
ATOM     37  C   UNL     1       1.315   3.960  18.810  0.00  0.00    +0.000 A 
ENDBRANCH  23  31
ENDBRANCH  22  23
ENDBRANCH  21  22
ENDBRANCH   5  21
TORSDOF 10
ENDMDL
MODEL 5
REMARK VINA RESULT:      -8.2      1.271      1.970
REMARK  Name = 
REMARK  12 active torsions:
REMARK  status: ('A' for Active; 'I' for Inactive)
REMARK    1  A    between atoms: C_1  and  C_2
REMARK    2  A    between atoms: C_2  and  C_3
REMARK    3  A    between atoms: C_2  and  C_4
REMARK    4  A    between atoms: C_4  and  C_5
REMARK    5  A    between atoms: C_5  and  N_6
REMARK    6  A    between atoms: C_5  and  C_7
REMARK    7  A    between atoms: N_9  and  C_10
REMARK    8  A    between atoms: C_14  and  C_16
REMARK    9  A    between atoms: C_16  and  C_17
REMARK   10  A    between atoms: C_17  and  C_18
REMARK   11  A    between atoms: C_18  and  C_19
REMARK   12  A    between atoms: C_18  and  C_26
REMARK                            x       y       z     vdW  Elec       q    Type
REMARK                         _______ _______ _______ _____ _____    ______ ____
ROOT
ATOM      1  C   UNL     1      -0.354  11.785  21.190  0.00  0.00    +0.000 C 
ATOM      2  C   UNL     1       0.776  12.428  20.369  0.00  0.00    +0.000 C 
ATOM      3  C   UNL     1       0.743  12.005  18.901  0.00  0.00    +0.000 C 
ATOM      4  N   UNL     1       0.666  10.548  18.783  0.00  0.00    +0.000 N 
ATOM      5  C   UNL     1       1.656   9.862  18.098  0.00  0.00    +0.000 C 
ATOM      6  O   UNL     1       2.611  10.424  17.566  0.00  0.00    +0.000 OA
ATOM      7  C   UNL     1      -0.457   9.934  19.496  0.00  0.00    +0.000 C 
ATOM      8  C   UNL     1      -0.366  10.266  20.980  0.00  0.00    +0.000 C 
ENDROOT
BRANCH   1  11
ATOM      9  C   UNL     1      -2.165  13.522  21.391  0.00  0.00    +0.000 C 
ATOM     10  O   UNL     1      -1.571  14.241  22.181  0.00  0.00    +0.000 OA
ATOM     11  N   UNL     1      -1.637  12.368  20.842  0.00  0.00    +0.000 N 
ATOM     12  H   UNL     1      -2.310  11.862  20.268  0.00  0.00    +0.000 HD
BRANCH   9  13
ATOM     13  C   UNL     1      -3.643  13.729  20.953  0.00  0.00    +0.000 C 
BRANCH  13  14
ATOM     14  N   UNL     1      -3.863  15.173  20.666  0.00  0.00    +0.000 NA
ATOM     15  H   UNL     1      -4.553  15.530  21.332  0.00  0.00    +0.000 HD
ATOM     16  H   UNL     1      -4.281  15.275  19.743  0.00  0.00    +0.000 HD
ENDBRANCH  13  14
BRANCH  13  17
ATOM     17  C   UNL     1      -4.619  13.154  21.998  0.00  0.00    +0.000 C 
BRANCH  17  19
ATOM     18  C   UNL     1      -5.559  14.705  23.773  0.00  0.00    +0.000 C 
ATOM     19  C   UNL     1      -4.458  13.702  23.434  0.00  0.00    +0.000 C 
ATOM     20  C   UNL     1      -4.485  12.564  24.464  0.00  0.00    +0.000 C 
ENDBRANCH  17  19
ENDBRANCH  13  17
ENDBRANCH   9  13
ENDBRANCH   1  11
BRANCH   5  21
ATOM     21  C   UNL     1       1.487   8.348  18.028  0.00  0.00    +0.000 C 
BRANCH  21  22
ATOM     22  C   UNL     1       2.824   7.627  18.177  0.00  0.00    +0.000 C 
BRANCH  22  23
ATOM     23  C   UNL     1       2.794   6.136  17.760  0.00  0.00    +0.000 C 
BRANCH  23  24
ATOM     24  C   UNL     1       4.168   5.663  17.270  0.00  0.00    +0.000 A 
ATOM     25  C   UNL     1       5.271   6.538  17.247  0.00  0.00    +0.000 A 
ATOM     26  C   UNL     1       6.517   6.110  16.784  0.00  0.00    +0.000 A 
ATOM     27  C   UNL     1       6.667   4.809  16.326  0.00  0.00    +0.000 A 
ATOM     28  F   UNL     1       7.861   4.400  15.876  0.00  0.00    +0.000 F 
ATOM     29  C   UNL     1       5.591   3.929  16.317  0.00  0.00    +0.000 A 
ATOM     30  C   UNL     1       4.345   4.352  16.792  0.00  0.00    +0.000 A 
ENDBRANCH  23  24
BRANCH  23  31
ATOM     31  C   UNL     1       2.239   5.231  18.872  0.00  0.00    +0.000 A 
ATOM     32  C   UNL     1       1.395   4.151  18.552  0.00  0.00    +0.000 A 
ATOM     33  C   UNL     1       0.982   3.251  19.543  0.00  0.00    +0.000 A 
ATOM     34  C   UNL     1       1.396   3.431  20.856  0.00  0.00    +0.000 A 
ATOM     35  F   UNL     1       1.039   2.543  21.794  0.00  0.00    +0.000 F 
ATOM     36  C   UNL     1       2.179   4.517  21.208  0.00  0.00    +0.000 A 
ATOM     37  C   UNL     1       2.596   5.414  20.223  0.00  0.00    +0.000 A 
ENDBRANCH  23  31
ENDBRANCH  22  23
ENDBRANCH  21  22
ENDBRANCH   5  21
TORSDOF 10
ENDMDL
MODEL 6
REMARK VINA RESULT:      -8.2      1.108      1.801
REMARK  Name = 
REMARK  12 active torsions:
REMARK  status: ('A' for Active; 'I' for Inactive)
REMARK    1  A    between atoms: C_1  and  C_2
REMARK    2  A    between atoms: C_2  and  C_3
REMARK    3  A    between atoms: C_2  and  C_4
REMARK    4  A    between atoms: C_4  and  C_5
REMARK    5  A    between atoms: C_5  and  N_6
REMARK    6  A    between atoms: C_5  and  C_7
REMARK    7  A    between atoms: N_9  and  C_10
REMARK    8  A    between atoms: C_14  and  C_16
REMARK    9  A    between atoms: C_16  and  C_17
REMARK   10  A    between atoms: C_17  and  C_18
REMARK   11  A    between atoms: C_18  and  C_19
REMARK   12  A    between atoms: C_18  and  C_26
REMARK                            x       y       z     vdW  Elec       q    Type
REMARK                         _______ _______ _______ _____ _____    ______ ____
ROOT
ATOM      1  C   UNL     1      -0.220  11.697  21.336  0.00  0.00    +0.000 C 
ATOM      2  C   UNL     1       0.909  12.361  20.530  0.00  0.00    +0.000 C 
ATOM      3  C   UNL     1       0.831  12.033  19.039  0.00  0.00    +0.000 C 
ATOM      4  N   UNL     1       0.710  10.589  18.832  0.00  0.00    +0.000 N 
ATOM      5  C   UNL     1       1.664   9.921  18.080  0.00  0.00    +0.000 C 
ATOM      6  O   UNL     1       2.622  10.490  17.562  0.00  0.00    +0.000 OA
ATOM      7  C   UNL     1      -0.413   9.961  19.532  0.00  0.00    +0.000 C 
ATOM      8  C   UNL     1      -0.279  10.195  21.031  0.00  0.00    +0.000 C 
ENDROOT
BRANCH   1  11
ATOM      9  C   UNL     1      -2.577  12.363  21.914  0.00  0.00    +0.000 C 
ATOM     10  O   UNL     1      -2.563  11.921  23.055  0.00  0.00    +0.000 OA
ATOM     11  N   UNL     1      -1.493  12.335  21.058  0.00  0.00    +0.000 N 
ATOM     12  H   UNL     1      -1.720  12.679  20.125  0.00  0.00    +0.000 HD
BRANCH   9  13
ATOM     13  C   UNL     1      -3.839  12.935  21.208  0.00  0.00    +0.000 C 
BRANCH  13  14
ATOM     14  N   UNL     1      -3.741  12.661  19.748  0.00  0.00    +0.000 NA
ATOM     15  H   UNL     1      -3.269  11.763  19.623  0.00  0.00    +0.000 HD
ATOM     16  H   UNL     1      -3.140  13.360  19.313  0.00  0.00    +0.000 HD
ENDBRANCH  13  14
BRANCH  13  17
ATOM     17  C   UNL     1      -4.037  14.426  21.543  0.00  0.00    +0.000 C 
BRANCH  17  19
ATOM     18  C   UNL     1      -3.224  16.064  23.303  0.00  0.00    +0.000 C 
ATOM     19  C   UNL     1      -4.013  14.781  23.047  0.00  0.00    +0.000 C 
ATOM     20  C   UNL     1      -5.436  14.953  23.595  0.00  0.00    +0.000 C 
ENDBRANCH  17  19
ENDBRANCH  13  17
ENDBRANCH   9  13
ENDBRANCH   1  11
BRANCH   5  21
ATOM     21  C   UNL     1       1.450   8.420  17.919  0.00  0.00    +0.000 C 
BRANCH  21  22
ATOM     22  C   UNL     1       2.690   7.630  18.330  0.00  0.00    +0.000 C 
BRANCH  22  23
ATOM     23  C   UNL     1       2.675   6.146  17.888  0.00  0.00    +0.000 C 
BRANCH  23  24
ATOM     24  C   UNL     1       4.048   5.702  17.368  0.00  0.00    +0.000 A 
ATOM     25  C   UNL     1       4.254   4.395  16.887  0.00  0.00    +0.000 A 
ATOM     26  C   UNL     1       5.509   3.989  16.430  0.00  0.00    +0.000 A 
ATOM     27  C   UNL     1       6.573   4.879  16.466  0.00  0.00    +0.000 A 
ATOM     28  F   UNL     1       7.778   4.487  16.033  0.00  0.00    +0.000 F 
ATOM     29  C   UNL     1       6.405   6.169  16.955  0.00  0.00    +0.000 A 
ATOM     30  C   UNL     1       5.145   6.583  17.401  0.00  0.00    +0.000 A 
ENDBRANCH  23  24
BRANCH  23  31
ATOM     31  C   UNL     1       2.152   5.215  18.994  0.00  0.00    +0.000 A 
ATOM     32  C   UNL     1       1.271   4.164  18.677  0.00  0.00    +0.000 A 
ATOM     33  C   UNL     1       0.885   3.238  19.655  0.00  0.00    +0.000 A 
ATOM     34  C   UNL     1       1.361   3.364  20.954  0.00  0.00    +0.000 A 
ATOM     35  F   UNL     1       1.029   2.452  21.876  0.00  0.00    +0.000 F 
ATOM     36  C   UNL     1       2.183   4.422  21.306  0.00  0.00    +0.000 A 
ATOM     37  C   UNL     1       2.574   5.343  20.333  0.00  0.00    +0.000 A 
ENDBRANCH  23  31
ENDBRANCH  22  23
ENDBRANCH  21  22
ENDBRANCH   5  21
TORSDOF 10
ENDMDL
MODEL 7
REMARK VINA RESULT:      -8.2      0.852      1.242
REMARK  Name = 
REMARK  12 active torsions:
REMARK  status: ('A' for Active; 'I' for Inactive)
REMARK    1  A    between atoms: C_1  and  C_2
REMARK    2  A    between atoms: C_2  and  C_3
REMARK    3  A    between atoms: C_2  and  C_4
REMARK    4  A    between atoms: C_4  and  C_5
REMARK    5  A    between atoms: C_5  and  N_6
REMARK    6  A    between atoms: C_5  and  C_7
REMARK    7  A    between atoms: N_9  and  C_10
REMARK    8  A    between atoms: C_14  and  C_16
REMARK    9  A    between atoms: C_16  and  C_17
REMARK   10  A    between atoms: C_17  and  C_18
REMARK   11  A    between atoms: C_18  and  C_19
REMARK   12  A    between atoms: C_18  and  C_26
REMARK                            x       y       z     vdW  Elec       q    Type
REMARK                         _______ _______ _______ _____ _____    ______ ____
ROOT
ATOM      1  C   UNL     1      -0.349  11.413  21.081  0.00  0.00    +0.000 C 
ATOM      2  C   UNL     1       0.903  12.061  20.466  0.00  0.00    +0.000 C 
ATOM      3  C   UNL     1       0.998  11.830  18.959  0.00  0.00    +0.000 C 
ATOM      4  N   UNL     1       0.835  10.410  18.641  0.00  0.00    +0.000 N 
ATOM      5  C   UNL     1       1.844   9.738  17.970  0.00  0.00    +0.000 C 
ATOM      6  O   UNL     1       2.887  10.283  17.613  0.00  0.00    +0.000 OA
ATOM      7  C   UNL     1      -0.396   9.804  19.153  0.00  0.00    +0.000 C 
ATOM      8  C   UNL     1      -0.441   9.938  20.670  0.00  0.00    +0.000 C 
ENDROOT
BRANCH   1  11
ATOM      9  C   UNL     1      -2.076  13.223  21.362  0.00  0.00    +0.000 C 
ATOM     10  O   UNL     1      -1.548  13.761  22.325  0.00  0.00    +0.000 OA
ATOM     11  N   UNL     1      -1.545  12.137  20.692  0.00  0.00    +0.000 N 
ATOM     12  H   UNL     1      -2.167  11.781  19.966  0.00  0.00    +0.000 HD
BRANCH   9  13
ATOM     13  C   UNL     1      -3.474  13.606  20.799  0.00  0.00    +0.000 C 
BRANCH  13  14
ATOM     14  N   UNL     1      -3.580  15.089  20.739  0.00  0.00    +0.000 NA
ATOM     15  H   UNL     1      -4.567  15.343  20.819  0.00  0.00    +0.000 HD
ATOM     16  H   UNL     1      -3.278  15.414  19.822  0.00  0.00    +0.000 HD
ENDBRANCH  13  14
BRANCH  13  17
ATOM     17  C   UNL     1      -4.603  12.941  21.611  0.00  0.00    +0.000 C 
BRANCH  17  19
ATOM     18  C   UNL     1      -6.916  13.498  20.726  0.00  0.00    +0.000 C 
ATOM     19  C   UNL     1      -5.812  12.442  20.787  0.00  0.00    +0.000 C 
ATOM     20  C   UNL     1      -5.392  12.078  19.357  0.00  0.00    +0.000 C 
ENDBRANCH  17  19
ENDBRANCH  13  17
ENDBRANCH   9  13
ENDBRANCH   1  11
BRANCH   5  21
ATOM     21  C   UNL     1       1.582   8.263  17.682  0.00  0.00    +0.000 C 
BRANCH  21  22
ATOM     22  C   UNL     1       2.558   7.363  18.435  0.00  0.00    +0.000 C 
BRANCH  22  23
ATOM     23  C   UNL     1       2.598   5.901  17.926  0.00  0.00    +0.000 C 
BRANCH  23  24
ATOM     24  C   UNL     1       3.954   5.566  17.292  0.00  0.00    +0.000 A 
ATOM     25  C   UNL     1       4.221   4.279  16.787  0.00  0.00    +0.000 A 
ATOM     26  C   UNL     1       5.463   3.973  16.226  0.00  0.00    +0.000 A 
ATOM     27  C   UNL     1       6.453   4.944  16.179  0.00  0.00    +0.000 A 
ATOM     28  F   UNL     1       7.646   4.647  15.647  0.00  0.00    +0.000 F 
ATOM     29  C   UNL     1       6.225   6.216  16.689  0.00  0.00    +0.000 A 
ATOM     30  C   UNL     1       4.978   6.530  17.240  0.00  0.00    +0.000 A 
ENDBRANCH  23  24
BRANCH  23  31
ATOM     31  C   UNL     1       2.212   4.892  19.019  0.00  0.00    +0.000 A 
ATOM     32  C   UNL     1       2.690   5.053  20.333  0.00  0.00    +0.000 A 
ATOM     33  C   UNL     1       2.248   4.210  21.361  0.00  0.00    +0.000 A 
ATOM     34  C   UNL     1       1.341   3.196  21.082  0.00  0.00    +0.000 A 
ATOM     35  F   UNL     1       0.883   2.421  22.073  0.00  0.00    +0.000 F 
ATOM     36  C   UNL     1       0.898   2.980  19.787  0.00  0.00    +0.000 A 
ATOM     37  C   UNL     1       1.333   3.820  18.762  0.00  0.00    +0.000 A 
ENDBRANCH  23  31
ENDBRANCH  22  23
ENDBRANCH  21  22
ENDBRANCH   5  21
TORSDOF 10
ENDMDL
MODEL 8
REMARK VINA RESULT:      -8.1      1.490      4.286
REMARK  Name = 
REMARK  12 active torsions:
REMARK  status: ('A' for Active; 'I' for Inactive)
REMARK    1  A    between atoms: C_1  and  C_2
REMARK    2  A    between atoms: C_2  and  C_3
REMARK    3  A    between atoms: C_2  and  C_4
REMARK    4  A    between atoms: C_4  and  C_5
REMARK    5  A    between atoms: C_5  and  N_6
REMARK    6  A    between atoms: C_5  and  C_7
REMARK    7  A    between atoms: N_9  and  C_10
REMARK    8  A    between atoms: C_14  and  C_16
REMARK    9  A    between atoms: C_16  and  C_17
REMARK   10  A    between atoms: C_17  and  C_18
REMARK   11  A    between atoms: C_18  and  C_19
REMARK   12  A    between atoms: C_18  and  C_26
REMARK                            x       y       z     vdW  Elec       q    Type
REMARK                         _______ _______ _______ _____ _____    ______ ____
ROOT
ATOM      1  C   UNL     1      -0.126  11.846  21.547  0.00  0.00    +0.000 C 
ATOM      2  C   UNL     1       0.600  12.536  20.380  0.00  0.00    +0.000 C 
ATOM      3  C   UNL     1       0.376  11.819  19.049  0.00  0.00    +0.000 C 
ATOM      4  N   UNL     1       0.663  10.389  19.177  0.00  0.00    +0.000 N 
ATOM      5  C   UNL     1       1.634   9.810  18.376  0.00  0.00    +0.000 C 
ATOM      6  O   UNL     1       2.277  10.444  17.542  0.00  0.00    +0.000 OA
ATOM      7  C   UNL     1      -0.087   9.706  20.234  0.00  0.00    +0.000 C 
ATOM      8  C   UNL     1       0.219  10.352  21.580  0.00  0.00    +0.000 C 
ENDROOT
BRANCH   1  11
ATOM      9  C   UNL     1      -2.246  13.150  21.922  0.00  0.00    +0.000 C 
ATOM     10  O   UNL     1      -1.711  14.136  22.408  0.00  0.00    +0.000 OA
ATOM     11  N   UNL     1      -1.560  12.047  21.450  0.00  0.00    +0.000 N 
ATOM     12  H   UNL     1      -2.181  11.294  21.155  0.00  0.00    +0.000 HD
BRANCH   9  13
ATOM     13  C   UNL     1      -3.784  12.931  21.849  0.00  0.00    +0.000 C 
BRANCH  13  14
ATOM     14  N   UNL     1      -4.168  12.672  20.434  0.00  0.00    +0.000 NA
ATOM     15  H   UNL     1      -4.829  13.396  20.145  0.00  0.00    +0.000 HD
ATOM     16  H   UNL     1      -4.672  11.789  20.376  0.00  0.00    +0.000 HD
ENDBRANCH  13  14
BRANCH  13  17
ATOM     17  C   UNL     1      -4.545  14.110  22.486  0.00  0.00    +0.000 C 
BRANCH  17  19
ATOM     18  C   UNL     1      -6.681  13.845  23.831  0.00  0.00    +0.000 C 
ATOM     19  C   UNL     1      -5.154  13.836  23.880  0.00  0.00    +0.000 C 
ATOM     20  C   UNL     1      -4.681  12.484  24.432  0.00  0.00    +0.000 C 
ENDBRANCH  17  19
ENDBRANCH  13  17
ENDBRANCH   9  13
ENDBRANCH   1  11
BRANCH   5  21
ATOM     21  C   UNL     1       1.858   8.315  18.581  0.00  0.00    +0.000 C 
BRANCH  21  22
ATOM     22  C   UNL     1       3.004   7.796  17.716  0.00  0.00    +0.000 C 
BRANCH  22  23
ATOM     23  C   UNL     1       3.791   6.619  18.341  0.00  0.00    +0.000 C 
BRANCH  23  24
ATOM     24  C   UNL     1       2.851   5.499  18.803  0.00  0.00    +0.000 A 
ATOM     25  C   UNL     1       2.150   4.709  17.872  0.00  0.00    +0.000 A 
ATOM     26  C   UNL     1       1.281   3.701  18.297  0.00  0.00    +0.000 A 
ATOM     27  C   UNL     1       1.093   3.485  19.655  0.00  0.00    +0.000 A 
ATOM     28  F   UNL     1       0.255   2.523  20.062  0.00  0.00    +0.000 F 
ATOM     29  C   UNL     1       1.756   4.264  20.597  0.00  0.00    +0.000 A 
ATOM     30  C   UNL     1       2.637   5.265  20.174  0.00  0.00    +0.000 A 
ENDBRANCH  23  24
BRANCH  23  31
ATOM     31  C   UNL     1       4.892   6.093  17.406  0.00  0.00    +0.000 A 
ATOM     32  C   UNL     1       5.881   5.220  17.896  0.00  0.00    +0.000 A 
ATOM     33  C   UNL     1       6.816   4.641  17.027  0.00  0.00    +0.000 A 
ATOM     34  C   UNL     1       6.778   4.941  15.672  0.00  0.00    +0.000 A 
ATOM     35  F   UNL     1       7.642   4.351  14.836  0.00  0.00    +0.000 F 
ATOM     36  C   UNL     1       5.852   5.841  15.172  0.00  0.00    +0.000 A 
ATOM     37  C   UNL     1       4.917   6.416  16.034  0.00  0.00    +0.000 A 
ENDBRANCH  23  31
ENDBRANCH  22  23
ENDBRANCH  21  22
ENDBRANCH   5  21
TORSDOF 10
ENDMDL
MODEL 9
REMARK VINA RESULT:      -8.1      0.950      1.169
REMARK  Name = 
REMARK  12 active torsions:
REMARK  status: ('A' for Active; 'I' for Inactive)
REMARK    1  A    between atoms: C_1  and  C_2
REMARK    2  A    between atoms: C_2  and  C_3
REMARK    3  A    between atoms: C_2  and  C_4
REMARK    4  A    between atoms: C_4  and  C_5
REMARK    5  A    between atoms: C_5  and  N_6
REMARK    6  A    between atoms: C_5  and  C_7
REMARK    7  A    between atoms: N_9  and  C_10
REMARK    8  A    between atoms: C_14  and  C_16
REMARK    9  A    between atoms: C_16  and  C_17
REMARK   10  A    between atoms: C_17  and  C_18
REMARK   11  A    between atoms: C_18  and  C_19
REMARK   12  A    between atoms: C_18  and  C_26
REMARK                            x       y       z     vdW  Elec       q    Type
REMARK                         _______ _______ _______ _____ _____    ______ ____
ROOT
ATOM      1  C   UNL     1       0.410  12.009  21.414  0.00  0.00    +0.000 C 
ATOM      2  C   UNL     1       1.043  12.490  20.097  0.00  0.00    +0.000 C 
ATOM      3  C   UNL     1       0.568  11.680  18.892  0.00  0.00    +0.000 C 
ATOM      4  N   UNL     1       0.712  10.244  19.143  0.00  0.00    +0.000 N 
ATOM      5  C   UNL     1       1.499   9.477  18.300  0.00  0.00    +0.000 C 
ATOM      6  O   UNL     1       2.089   9.945  17.328  0.00  0.00    +0.000 OA
ATOM      7  C   UNL     1       0.041   9.764  20.353  0.00  0.00    +0.000 C 
ATOM      8  C   UNL     1       0.593  10.495  21.571  0.00  0.00    +0.000 C 
ENDROOT
BRANCH   1  11
ATOM      9  C   UNL     1      -1.631  12.937  22.560  0.00  0.00    +0.000 C 
ATOM     10  O   UNL     1      -1.061  13.277  23.588  0.00  0.00    +0.000 OA
ATOM     11  N   UNL     1      -0.994  12.373  21.470  0.00  0.00    +0.000 N 
ATOM     12  H   UNL     1      -1.645  12.085  20.741  0.00  0.00    +0.000 HD
BRANCH   9  13
ATOM     13  C   UNL     1      -3.171  12.988  22.350  0.00  0.00    +0.000 C 
BRANCH  13  14
ATOM     14  N   UNL     1      -3.833  12.228  23.446  0.00  0.00    +0.000 NA
ATOM     15  H   UNL     1      -4.225  12.901  24.109  0.00  0.00    +0.000 HD
ATOM     16  H   UNL     1      -3.132  11.698  23.962  0.00  0.00    +0.000 HD
ENDBRANCH  13  14
BRANCH  13  17
ATOM     17  C   UNL     1      -3.556  12.495  20.941  0.00  0.00    +0.000 C 
BRANCH  17  19
ATOM     18  C   UNL     1      -6.006  12.362  20.289  0.00  0.00    +0.000 C 
ATOM     19  C   UNL     1      -4.746  13.228  20.282  0.00  0.00    +0.000 C 
ATOM     20  C   UNL     1      -5.047  14.550  21.001  0.00  0.00    +0.000 C 
ENDBRANCH  17  19
ENDBRANCH  13  17
ENDBRANCH   9  13
ENDBRANCH   1  11
BRANCH   5  21
ATOM     21  C   UNL     1       1.586   7.993  18.642  0.00  0.00    +0.000 C 
BRANCH  21  22
ATOM     22  C   UNL     1       2.989   7.443  18.401  0.00  0.00    +0.000 C 
BRANCH  22  23
ATOM     23  C   UNL     1       3.028   5.945  18.014  0.00  0.00    +0.000 C 
BRANCH  23  24
ATOM     24  C   UNL     1       4.459   5.481  17.711  0.00  0.00    +0.000 A 
ATOM     25  C   UNL     1       4.781   4.877  16.482  0.00  0.00    +0.000 A 
ATOM     26  C   UNL     1       6.081   4.440  16.216  0.00  0.00    +0.000 A 
ATOM     27  C   UNL     1       7.065   4.589  17.183  0.00  0.00    +0.000 A 
ATOM     28  F   UNL     1       8.310   4.164  16.930  0.00  0.00    +0.000 F 
ATOM     29  C   UNL     1       6.771   5.163  18.414  0.00  0.00    +0.000 A 
ATOM     30  C   UNL     1       5.473   5.613  18.678  0.00  0.00    +0.000 A 
ENDBRANCH  23  24
BRANCH  23  31
ATOM     31  C   UNL     1       2.347   5.053  19.064  0.00  0.00    +0.000 A 
ATOM     32  C   UNL     1       1.462   4.035  18.663  0.00  0.00    +0.000 A 
ATOM     33  C   UNL     1       0.930   3.141  19.602  0.00  0.00    +0.000 A 
ATOM     34  C   UNL     1       1.265   3.268  20.944  0.00  0.00    +0.000 A 
ATOM     35  F   UNL     1       0.794   2.385  21.834  0.00  0.00    +0.000 F 
ATOM     36  C   UNL     1       2.088   4.296  21.374  0.00  0.00    +0.000 A 
ATOM     37  C   UNL     1       2.623   5.185  20.440  0.00  0.00    +0.000 A 
ENDBRANCH  23  31
ENDBRANCH  22  23
ENDBRANCH  21  22
ENDBRANCH   5  21
TORSDOF 10
ENDMDL
