MODEL 1
REMARK VINA RESULT:      -8.4      0.000      0.000
REMARK  Name = 
REMARK  11 active torsions:
REMARK  status: ('A' for Active; 'I' for Inactive)
REMARK    1  A    between atoms: C_1  and  C_2
REMARK    2  A    between atoms: C_7  and  C_8
REMARK    3  A    between atoms: N_10  and  C_11
REMARK    4  A    between atoms: C_11  and  C_12
REMARK    5  A    between atoms: C_11  and  C_13
REMARK    6  A    between atoms: C_16  and  S_17
REMARK    7  A    between atoms: S_17  and  C_20
REMARK    8  A    between atoms: C_20  and  C_21
REMARK    9  A    between atoms: C_21  and  O_23
REMARK   10  A    between atoms: O_23  and  C_24
REMARK   11  A    between atoms: N_27  and  C_28
REMARK                            x       y       z     vdW  Elec       q    Type
REMARK                         _______ _______ _______ _____ _____    ______ ____
ROOT
ATOM      1  C   UNL     1       1.815   9.302  18.361  0.00  0.00    +0.000 C 
ATOM      2  O   UNL     1       2.275   9.863  17.373  0.00  0.00    +0.000 OA
ATOM      3  N   UNL     1       0.936   9.963  19.210  0.00  0.00    +0.000 N 
ATOM      4  H   UNL     1       0.632   9.525  20.061  0.00  0.00    +0.000 HD
ENDROOT
BRANCH   1  11
ATOM      5  C   UNL     1       2.290   2.595  21.674  0.00  0.00    +0.000 C 
ATOM      6  C   UNL     1       2.507   3.659  20.629  0.00  0.00    +0.000 A 
ATOM      7  C   UNL     1       2.000   4.949  20.872  0.00  0.00    +0.000 A 
ATOM      8  C   UNL     1       2.204   5.964  19.918  0.00  0.00    +0.000 A 
ATOM      9  C   UNL     1       2.862   5.727  18.716  0.00  0.00    +0.000 A 
ATOM     10  C   UNL     1       2.817   6.954  17.987  0.00  0.00    +0.000 A 
ATOM     11  C   UNL     1       2.153   7.926  18.728  0.00  0.00    +0.000 A 
ATOM     12  N   UNL     1       1.876   7.313  19.951  0.00  0.00    +0.000 N 
ATOM     13  C   UNL     1       1.382   7.932  21.168  0.00  0.00    +0.000 C 
ATOM     14  C   UNL     1       3.383   4.434  18.495  0.00  0.00    +0.000 A 
ATOM     15 CL   UNL     1       4.225   4.245  17.009  0.00  0.00    +0.000 Cl
ATOM     16  C   UNL     1       3.219   3.410  19.445  0.00  0.00    +0.000 A 
ATOM     17 CL   UNL     1       3.903   1.840  19.165  0.00  0.00    +0.000 Cl
ENDBRANCH   1  11
BRANCH   3  18
ATOM     18  C   UNL     1       0.509  11.340  18.960  0.00  0.00    +0.000 C 
ATOM     19  C   UNL     1       1.037  12.309  20.024  0.00  0.00    +0.000 C 
BRANCH  18  20
ATOM     20  C   UNL     1      -1.002  11.423  18.744  0.00  0.00    +0.000 A 
ATOM     21  C   UNL     1      -1.746  12.261  19.593  0.00  0.00    +0.000 A 
ATOM     22  C   UNL     1      -3.138  12.347  19.494  0.00  0.00    +0.000 A 
ATOM     23  C   UNL     1      -3.805  11.610  18.517  0.00  0.00    +0.000 A 
ATOM     24  C   UNL     1      -3.096  10.779  17.650  0.00  0.00    +0.000 A 
ATOM     25  C   UNL     1      -1.698  10.694  17.761  0.00  0.00    +0.000 A 
BRANCH  23  26
ATOM     26  S   UNL     1      -5.574  11.742  18.406  0.00  0.00    +0.000 S 
ATOM     27  O   UNL     1      -5.914  12.249  17.090  0.00  0.00    +0.000 OA
ATOM     28  O   UNL     1      -6.100  10.461  18.848  0.00  0.00    +0.000 OA
BRANCH  26  29
ATOM     29  C   UNL     1      -6.056  12.942  19.597  0.00  0.00    +0.000 C 
BRANCH  29  30
ATOM     30  C   UNL     1      -6.724  12.264  20.739  0.00  0.00    +0.000 C 
ATOM     31  O   UNL     1      -7.915  11.993  20.783  0.00  0.00    +0.000 OA
BRANCH  30  32
ATOM     32  O   UNL     1      -5.842  12.038  21.751  0.00  0.00    +0.000 OA
ATOM     33  C   UNL     1      -5.958  12.963  22.833  0.00  0.00    +0.000 C 
ENDBRANCH  30  32
ENDBRANCH  29  30
ENDBRANCH  26  29
ENDBRANCH  23  26
ENDBRANCH  18  20
ENDBRANCH   3  18
TORSDOF 7
ENDMDL
MODEL 2
REMARK VINA RESULT:      -8.0      2.283      3.098
REMARK  Name = 
REMARK  11 active torsions:
REMARK  status: ('A' for Active; 'I' for Inactive)
REMARK    1  A    between atoms: C_1  and  C_2
REMARK    2  A    between atoms: C_7  and  C_8
REMARK    3  A    between atoms: N_10  and  C_11
REMARK    4  A    between atoms: C_11  and  C_12
REMARK    5  A    between atoms: C_11  and  C_13
REMARK    6  A    between atoms: C_16  and  S_17
REMARK    7  A    between atoms: S_17  and  C_20
REMARK    8  A    between atoms: C_20  and  C_21
REMARK    9  A    between atoms: C_21  and  O_23
REMARK   10  A    between atoms: O_23  and  C_24
REMARK   11  A    between atoms: N_27  and  C_28
REMARK                            x       y       z     vdW  Elec       q    Type
REMARK                         _______ _______ _______ _____ _____    ______ ____
ROOT
ATOM      1  C   UNL     1       0.674  10.544  19.233  0.00  0.00    +0.000 C 
ATOM      2  O   UNL     1       1.242  11.577  19.569  0.00  0.00    +0.000 OA
ATOM      3  N   UNL     1      -0.638  10.569  18.776  0.00  0.00    +0.000 N 
ATOM      4  H   UNL     1      -1.121   9.710  18.583  0.00  0.00    +0.000 HD
ENDROOT
BRANCH   1  11
ATOM      5  C   UNL     1       2.623   3.508  20.931  0.00  0.00    +0.000 C 
ATOM      6  C   UNL     1       2.603   4.812  20.175  0.00  0.00    +0.000 A 
ATOM      7  C   UNL     1       1.817   5.865  20.678  0.00  0.00    +0.000 A 
ATOM      8  C   UNL     1       1.794   7.098  19.998  0.00  0.00    +0.000 A 
ATOM      9  C   UNL     1       2.497   7.303  18.817  0.00  0.00    +0.000 A 
ATOM     10  C   UNL     1       2.182   8.628  18.389  0.00  0.00    +0.000 A 
ATOM     11  C   UNL     1       1.311   9.227  19.292  0.00  0.00    +0.000 A 
ATOM     12  N   UNL     1       1.170   8.296  20.322  0.00  0.00    +0.000 N 
ATOM     13  C   UNL     1       0.540   8.483  21.616  0.00  0.00    +0.000 C 
ATOM     14  C   UNL     1       3.299   6.245  18.335  0.00  0.00    +0.000 A 
ATOM     15 CL   UNL     1       4.173   6.605  16.901  0.00  0.00    +0.000 Cl
ATOM     16  C   UNL     1       3.362   5.014  19.012  0.00  0.00    +0.000 A 
ATOM     17 CL   UNL     1       4.385   3.743  18.419  0.00  0.00    +0.000 Cl
ENDBRANCH   1  11
BRANCH   3  18
ATOM     18  C   UNL     1      -1.392  11.818  18.660  0.00  0.00    +0.000 C 
ATOM     19  C   UNL     1      -0.509  12.986  18.210  0.00  0.00    +0.000 C 
BRANCH  18  20
ATOM     20  C   UNL     1      -2.193  12.103  19.931  0.00  0.00    +0.000 A 
ATOM     21  C   UNL     1      -3.557  12.412  19.796  0.00  0.00    +0.000 A 
ATOM     22  C   UNL     1      -4.343  12.739  20.906  0.00  0.00    +0.000 A 
ATOM     23  C   UNL     1      -3.773  12.734  22.177  0.00  0.00    +0.000 A 
ATOM     24  C   UNL     1      -2.425  12.418  22.348  0.00  0.00    +0.000 A 
ATOM     25  C   UNL     1      -1.643  12.097  21.227  0.00  0.00    +0.000 A 
BRANCH  23  26
ATOM     26  S   UNL     1      -4.793  13.146  23.573  0.00  0.00    +0.000 S 
ATOM     27  O   UNL     1      -4.870  11.986  24.443  0.00  0.00    +0.000 OA
ATOM     28  O   UNL     1      -4.281  14.405  24.086  0.00  0.00    +0.000 OA
BRANCH  26  29
ATOM     29  C   UNL     1      -6.402  13.459  22.935  0.00  0.00    +0.000 C 
BRANCH  29  30
ATOM     30  C   UNL     1      -7.417  12.854  23.836  0.00  0.00    +0.000 C 
ATOM     31  O   UNL     1      -7.892  13.410  24.816  0.00  0.00    +0.000 OA
BRANCH  30  32
ATOM     32  O   UNL     1      -7.703  11.579  23.456  0.00  0.00    +0.000 OA
ATOM     33  C   UNL     1      -7.916  11.431  22.051  0.00  0.00    +0.000 C 
ENDBRANCH  30  32
ENDBRANCH  29  30
ENDBRANCH  26  29
ENDBRANCH  23  26
ENDBRANCH  18  20
ENDBRANCH   3  18
TORSDOF 7
ENDMDL
MODEL 3
REMARK VINA RESULT:      -8.0      1.830      2.722
REMARK  Name = 
REMARK  11 active torsions:
REMARK  status: ('A' for Active; 'I' for Inactive)
REMARK    1  A    between atoms: C_1  and  C_2
REMARK    2  A    between atoms: C_7  and  C_8
REMARK    3  A    between atoms: N_10  and  C_11
REMARK    4  A    between atoms: C_11  and  C_12
REMARK    5  A    between atoms: C_11  and  C_13
REMARK    6  A    between atoms: C_16  and  S_17
REMARK    7  A    between atoms: S_17  and  C_20
REMARK    8  A    between atoms: C_20  and  C_21
REMARK    9  A    between atoms: C_21  and  O_23
REMARK   10  A    between atoms: O_23  and  C_24
REMARK   11  A    between atoms: N_27  and  C_28
REMARK                            x       y       z     vdW  Elec       q    Type
REMARK                         _______ _______ _______ _____ _____    ______ ____
ROOT
ATOM      1  C   UNL     1       1.653   9.403  18.601  0.00  0.00    +0.000 C 
ATOM      2  O   UNL     1       1.956   9.989  17.569  0.00  0.00    +0.000 OA
ATOM      3  N   UNL     1       0.909  10.038  19.588  0.00  0.00    +0.000 N 
ATOM      4  H   UNL     1       0.738   9.579  20.465  0.00  0.00    +0.000 HD
ENDROOT
BRANCH   1  11
ATOM      5  C   UNL     1       2.477   2.557  21.542  0.00  0.00    +0.000 C 
ATOM      6  C   UNL     1       2.613   3.678  20.543  0.00  0.00    +0.000 A 
ATOM      7  C   UNL     1       2.083   4.938  20.876  0.00  0.00    +0.000 A 
ATOM      8  C   UNL     1       2.211   6.005  19.966  0.00  0.00    +0.000 A 
ATOM      9  C   UNL     1       2.815   5.848  18.723  0.00  0.00    +0.000 A 
ATOM     10  C   UNL     1       2.700   7.107  18.061  0.00  0.00    +0.000 A 
ATOM     11  C   UNL     1       2.046   8.021  18.881  0.00  0.00    +0.000 A 
ATOM     12  N   UNL     1       1.847   7.340  20.083  0.00  0.00    +0.000 N 
ATOM     13  C   UNL     1       1.397   7.882  21.352  0.00  0.00    +0.000 C 
ATOM     14  C   UNL     1       3.361   4.584  18.412  0.00  0.00    +0.000 A 
ATOM     15 CL   UNL     1       4.134   4.495  16.880  0.00  0.00    +0.000 Cl
ATOM     16  C   UNL     1       3.273   3.510  19.315  0.00  0.00    +0.000 A 
ATOM     17 CL   UNL     1       3.985   1.977  18.923  0.00  0.00    +0.000 Cl
ENDBRANCH   1  11
BRANCH   3  18
ATOM     18  C   UNL     1       0.444  11.418  19.438  0.00  0.00    +0.000 C 
ATOM     19  C   UNL     1       1.607  12.412  19.353  0.00  0.00    +0.000 C 
BRANCH  18  20
ATOM     20  C   UNL     1      -0.596  11.773  20.501  0.00  0.00    +0.000 A 
ATOM     21  C   UNL     1      -1.646  12.633  20.136  0.00  0.00    +0.000 A 
ATOM     22  C   UNL     1      -2.603  13.048  21.066  0.00  0.00    +0.000 A 
ATOM     23  C   UNL     1      -2.536  12.582  22.378  0.00  0.00    +0.000 A 
ATOM     24  C   UNL     1      -1.514  11.717  22.770  0.00  0.00    +0.000 A 
ATOM     25  C   UNL     1      -0.554  11.310  21.830  0.00  0.00    +0.000 A 
BRANCH  23  26
ATOM     26  S   UNL     1      -3.769  13.118  23.540  0.00  0.00    +0.000 S 
ATOM     27  O   UNL     1      -4.188  11.972  24.325  0.00  0.00    +0.000 OA
ATOM     28  O   UNL     1      -3.214  14.287  24.202  0.00  0.00    +0.000 OA
BRANCH  26  29
ATOM     29  C   UNL     1      -5.143  13.662  22.588  0.00  0.00    +0.000 C 
BRANCH  29  30
ATOM     30  C   UNL     1      -6.013  12.500  22.268  0.00  0.00    +0.000 C 
ATOM     31  O   UNL     1      -5.963  11.864  21.225  0.00  0.00    +0.000 OA
BRANCH  30  32
ATOM     32  O   UNL     1      -6.909  12.277  23.267  0.00  0.00    +0.000 OA
ATOM     33  C   UNL     1      -7.546  13.463  23.744  0.00  0.00    +0.000 C 
ENDBRANCH  30  32
ENDBRANCH  29  30
ENDBRANCH  26  29
ENDBRANCH  23  26
ENDBRANCH  18  20
ENDBRANCH   3  18
TORSDOF 7
ENDMDL
MODEL 4
REMARK VINA RESULT:      -7.9      2.210      2.585
REMARK  Name = 
REMARK  11 active torsions:
REMARK  status: ('A' for Active; 'I' for Inactive)
REMARK    1  A    between atoms: C_1  and  C_2
REMARK    2  A    between atoms: C_7  and  C_8
REMARK    3  A    between atoms: N_10  and  C_11
REMARK    4  A    between atoms: C_11  and  C_12
REMARK    5  A    between atoms: C_11  and  C_13
REMARK    6  A    between atoms: C_16  and  S_17
REMARK    7  A    between atoms: S_17  and  C_20
REMARK    8  A    between atoms: C_20  and  C_21
REMARK    9  A    between atoms: C_21  and  O_23
REMARK   10  A    between atoms: O_23  and  C_24
REMARK   11  A    between atoms: N_27  and  C_28
REMARK                            x       y       z     vdW  Elec       q    Type
REMARK                         _______ _______ _______ _____ _____    ______ ____
ROOT
ATOM      1  C   UNL     1       1.745   9.557  18.394  0.00  0.00    +0.000 C 
ATOM      2  O   UNL     1       2.000  10.053  17.302  0.00  0.00    +0.000 OA
ATOM      3  N   UNL     1       1.109  10.300  19.381  0.00  0.00    +0.000 N 
ATOM      4  H   UNL     1       0.981   9.913  20.299  0.00  0.00    +0.000 HD
ENDROOT
BRANCH   1  11
ATOM      5  C   UNL     1       2.250   2.817  21.636  0.00  0.00    +0.000 C 
ATOM      6  C   UNL     1       2.461   3.893  20.602  0.00  0.00    +0.000 A 
ATOM      7  C   UNL     1       1.951   5.179  20.859  0.00  0.00    +0.000 A 
ATOM      8  C   UNL     1       2.148   6.204  19.915  0.00  0.00    +0.000 A 
ATOM      9  C   UNL     1       2.804   5.982  18.709  0.00  0.00    +0.000 A 
ATOM     10  C   UNL     1       2.753   7.216  17.993  0.00  0.00    +0.000 A 
ATOM     11  C   UNL     1       2.088   8.178  18.745  0.00  0.00    +0.000 A 
ATOM     12  N   UNL     1       1.816   7.552  19.963  0.00  0.00    +0.000 N 
ATOM     13  C   UNL     1       1.324   8.156  21.187  0.00  0.00    +0.000 C 
ATOM     14  C   UNL     1       3.329   4.693  18.473  0.00  0.00    +0.000 A 
ATOM     15 CL   UNL     1       4.168   4.523  16.984  0.00  0.00    +0.000 Cl
ATOM     16  C   UNL     1       3.171   3.659  19.413  0.00  0.00    +0.000 A 
ATOM     17 CL   UNL     1       3.859   2.094  19.115  0.00  0.00    +0.000 Cl
ENDBRANCH   1  11
BRANCH   3  18
ATOM     18  C   UNL     1       0.705  11.689  19.163  0.00  0.00    +0.000 C 
ATOM     19  C   UNL     1       1.898  12.650  19.206  0.00  0.00    +0.000 C 
BRANCH  18  20
ATOM     20  C   UNL     1      -0.442  12.087  20.092  0.00  0.00    +0.000 A 
ATOM     21  C   UNL     1      -0.577  11.395  21.308  0.00  0.00    +0.000 A 
ATOM     22  C   UNL     1      -1.633  11.663  22.184  0.00  0.00    +0.000 A 
ATOM     23  C   UNL     1      -2.559  12.654  21.863  0.00  0.00    +0.000 A 
ATOM     24  C   UNL     1      -2.447  13.368  20.671  0.00  0.00    +0.000 A 
ATOM     25  C   UNL     1      -1.386  13.088  19.794  0.00  0.00    +0.000 A 
BRANCH  23  26
ATOM     26  S   UNL     1      -3.889  12.981  22.997  0.00  0.00    +0.000 S 
ATOM     27  O   UNL     1      -3.844  11.989  24.055  0.00  0.00    +0.000 OA
ATOM     28  O   UNL     1      -3.798  14.394  23.323  0.00  0.00    +0.000 OA
BRANCH  26  29
ATOM     29  C   UNL     1      -5.378  12.750  22.092  0.00  0.00    +0.000 C 
BRANCH  29  30
ATOM     30  C   UNL     1      -6.536  12.809  23.022  0.00  0.00    +0.000 C 
ATOM     31  O   UNL     1      -6.969  11.854  23.650  0.00  0.00    +0.000 OA
BRANCH  30  32
ATOM     32  O   UNL     1      -7.082  14.055  23.036  0.00  0.00    +0.000 OA
ATOM     33  C   UNL     1      -7.124  14.680  21.752  0.00  0.00    +0.000 C 
ENDBRANCH  30  32
ENDBRANCH  29  30
ENDBRANCH  26  29
ENDBRANCH  23  26
ENDBRANCH  18  20
ENDBRANCH   3  18
TORSDOF 7
ENDMDL
MODEL 5
REMARK VINA RESULT:      -7.8      0.929      1.332
REMARK  Name = 
REMARK  11 active torsions:
REMARK  status: ('A' for Active; 'I' for Inactive)
REMARK    1  A    between atoms: C_1  and  C_2
REMARK    2  A    between atoms: C_7  and  C_8
REMARK    3  A    between atoms: N_10  and  C_11
REMARK    4  A    between atoms: C_11  and  C_12
REMARK    5  A    between atoms: C_11  and  C_13
REMARK    6  A    between atoms: C_16  and  S_17
REMARK    7  A    between atoms: S_17  and  C_20
REMARK    8  A    between atoms: C_20  and  C_21
REMARK    9  A    between atoms: C_21  and  O_23
REMARK   10  A    between atoms: O_23  and  C_24
REMARK   11  A    between atoms: N_27  and  C_28
REMARK                            x       y       z     vdW  Elec       q    Type
REMARK                         _______ _______ _______ _____ _____    ______ ____
ROOT
ATOM      1  C   UNL     1       1.784   9.596  18.321  0.00  0.00    +0.000 C 
ATOM      2  O   UNL     1       2.467  10.265  17.554  0.00  0.00    +0.000 OA
ATOM      3  N   UNL     1       0.647  10.132  18.913  0.00  0.00    +0.000 N 
ATOM      4  H   UNL     1       0.142   9.606  19.604  0.00  0.00    +0.000 HD
ENDROOT
BRANCH   1  11
ATOM      5  C   UNL     1       2.196   2.868  21.600  0.00  0.00    +0.000 C 
ATOM      6  C   UNL     1       2.416   3.933  20.556  0.00  0.00    +0.000 A 
ATOM      7  C   UNL     1       1.933   5.229  20.811  0.00  0.00    +0.000 A 
ATOM      8  C   UNL     1       2.140   6.245  19.859  0.00  0.00    +0.000 A 
ATOM      9  C   UNL     1       2.778   6.003  18.647  0.00  0.00    +0.000 A 
ATOM     10  C   UNL     1       2.743   7.234  17.924  0.00  0.00    +0.000 A 
ATOM     11  C   UNL     1       2.104   8.213  18.677  0.00  0.00    +0.000 A 
ATOM     12  N   UNL     1       1.834   7.600  19.902  0.00  0.00    +0.000 N 
ATOM     13  C   UNL     1       1.367   8.221  21.127  0.00  0.00    +0.000 C 
ATOM     14  C   UNL     1       3.276   4.703  18.413  0.00  0.00    +0.000 A 
ATOM     15 CL   UNL     1       4.095   4.508  16.916  0.00  0.00    +0.000 Cl
ATOM     16  C   UNL     1       3.108   3.678  19.361  0.00  0.00    +0.000 A 
ATOM     17 CL   UNL     1       3.763   2.099  19.066  0.00  0.00    +0.000 Cl
ENDBRANCH   1  11
BRANCH   3  18
ATOM     18  C   UNL     1       0.207  11.501  18.641  0.00  0.00    +0.000 C 
ATOM     19  C   UNL     1       0.969  12.530  19.484  0.00  0.00    +0.000 C 
BRANCH  18  20
ATOM     20  C   UNL     1      -1.314  11.626  18.740  0.00  0.00    +0.000 A 
ATOM     21  C   UNL     1      -2.086  11.157  17.664  0.00  0.00    +0.000 A 
ATOM     22  C   UNL     1      -3.478  11.287  17.656  0.00  0.00    +0.000 A 
ATOM     23  C   UNL     1      -4.121  11.869  18.747  0.00  0.00    +0.000 A 
ATOM     24  C   UNL     1      -3.385  12.333  19.837  0.00  0.00    +0.000 A 
ATOM     25  C   UNL     1      -1.987  12.203  19.834  0.00  0.00    +0.000 A 
BRANCH  23  26
ATOM     26  S   UNL     1      -5.892  12.016  18.717  0.00  0.00    +0.000 S 
ATOM     27  O   UNL     1      -6.241  13.197  17.948  0.00  0.00    +0.000 OA
ATOM     28  O   UNL     1      -6.396  10.714  18.315  0.00  0.00    +0.000 OA
BRANCH  26  29
ATOM     29  C   UNL     1      -6.395  12.278  20.381  0.00  0.00    +0.000 C 
BRANCH  29  30
ATOM     30  C   UNL     1      -6.798  13.698  20.557  0.00  0.00    +0.000 C 
ATOM     31  O   UNL     1      -7.891  14.151  20.249  0.00  0.00    +0.000 OA
BRANCH  30  32
ATOM     32  O   UNL     1      -5.767  14.436  21.054  0.00  0.00    +0.000 OA
ATOM     33  C   UNL     1      -5.500  15.625  20.308  0.00  0.00    +0.000 C 
ENDBRANCH  30  32
ENDBRANCH  29  30
ENDBRANCH  26  29
ENDBRANCH  23  26
ENDBRANCH  18  20
ENDBRANCH   3  18
TORSDOF 7
ENDMDL
MODEL 6
REMARK VINA RESULT:      -7.8      4.244      6.184
REMARK  Name = 
REMARK  11 active torsions:
REMARK  status: ('A' for Active; 'I' for Inactive)
REMARK    1  A    between atoms: C_1  and  C_2
REMARK    2  A    between atoms: C_7  and  C_8
REMARK    3  A    between atoms: N_10  and  C_11
REMARK    4  A    between atoms: C_11  and  C_12
REMARK    5  A    between atoms: C_11  and  C_13
REMARK    6  A    between atoms: C_16  and  S_17
REMARK    7  A    between atoms: S_17  and  C_20
REMARK    8  A    between atoms: C_20  and  C_21
REMARK    9  A    between atoms: C_21  and  O_23
REMARK   10  A    between atoms: O_23  and  C_24
REMARK   11  A    between atoms: N_27  and  C_28
REMARK                            x       y       z     vdW  Elec       q    Type
REMARK                         _______ _______ _______ _____ _____    ______ ____
ROOT
ATOM      1  C   UNL     1       1.301   8.920  20.774  0.00  0.00    +0.000 C 
ATOM      2  O   UNL     1       1.498   9.220  21.946  0.00  0.00    +0.000 OA
ATOM      3  N   UNL     1       0.638   9.792  19.919  0.00  0.00    +0.000 N 
ATOM      4  H   UNL     1       0.407   9.503  18.985  0.00  0.00    +0.000 HD
ENDROOT
BRANCH   1  11
ATOM      5  C   UNL     1       4.535   3.556  16.655  0.00  0.00    +0.000 C 
ATOM      6  C   UNL     1       3.719   4.170  17.764  0.00  0.00    +0.000 A 
ATOM      7  C   UNL     1       3.541   5.566  17.770  0.00  0.00    +0.000 A 
ATOM      8  C   UNL     1       2.770   6.161  18.787  0.00  0.00    +0.000 A 
ATOM      9  C   UNL     1       2.204   5.417  19.817  0.00  0.00    +0.000 A 
ATOM     10  C   UNL     1       1.565   6.355  20.683  0.00  0.00    +0.000 A 
ATOM     11  C   UNL     1       1.727   7.646  20.192  0.00  0.00    +0.000 A 
ATOM     12  N   UNL     1       2.387   7.483  18.973  0.00  0.00    +0.000 N 
ATOM     13  C   UNL     1       2.624   8.480  17.946  0.00  0.00    +0.000 C 
ATOM     14  C   UNL     1       2.374   4.016  19.787  0.00  0.00    +0.000 A 
ATOM     15 CL   UNL     1       1.597   3.173  21.066  0.00  0.00    +0.000 Cl
ATOM     16  C   UNL     1       3.114   3.394  18.766  0.00  0.00    +0.000 A 
ATOM     17 CL   UNL     1       3.275   1.667  18.732  0.00  0.00    +0.000 Cl
ENDBRANCH   1  11
BRANCH   3  18
ATOM     18  C   UNL     1       0.162  11.101  20.366  0.00  0.00    +0.000 C 
ATOM     19  C   UNL     1      -1.275  11.378  19.912  0.00  0.00    +0.000 C 
BRANCH  18  20
ATOM     20  C   UNL     1       1.151  12.208  19.999  0.00  0.00    +0.000 A 
ATOM     21  C   UNL     1       1.556  12.312  18.657  0.00  0.00    +0.000 A 
ATOM     22  C   UNL     1       2.499  13.263  18.253  0.00  0.00    +0.000 A 
ATOM     23  C   UNL     1       3.032  14.145  19.192  0.00  0.00    +0.000 A 
ATOM     24  C   UNL     1       2.641  14.077  20.529  0.00  0.00    +0.000 A 
ATOM     25  C   UNL     1       1.697  13.115  20.926  0.00  0.00    +0.000 A 
BRANCH  23  26
ATOM     26  S   UNL     1       4.224  15.348  18.653  0.00  0.00    +0.000 S 
ATOM     27  O   UNL     1       4.748  16.029  19.822  0.00  0.00    +0.000 OA
ATOM     28  O   UNL     1       5.126  14.645  17.757  0.00  0.00    +0.000 OA
BRANCH  26  29
ATOM     29  C   UNL     1       3.339  16.521  17.687  0.00  0.00    +0.000 C 
BRANCH  29  30
ATOM     30  C   UNL     1       2.251  17.116  18.506  0.00  0.00    +0.000 C 
ATOM     31  O   UNL     1       2.419  17.971  19.364  0.00  0.00    +0.000 OA
BRANCH  30  32
ATOM     32  O   UNL     1       1.054  16.540  18.212  0.00  0.00    +0.000 OA
ATOM     33  C   UNL     1       0.115  16.585  19.288  0.00  0.00    +0.000 C 
ENDBRANCH  30  32
ENDBRANCH  29  30
ENDBRANCH  26  29
ENDBRANCH  23  26
ENDBRANCH  18  20
ENDBRANCH   3  18
TORSDOF 7
ENDMDL
MODEL 7
REMARK VINA RESULT:      -7.8      2.061      3.003
REMARK  Name = 
REMARK  11 active torsions:
REMARK  status: ('A' for Active; 'I' for Inactive)
REMARK    1  A    between atoms: C_1  and  C_2
REMARK    2  A    between atoms: C_7  and  C_8
REMARK    3  A    between atoms: N_10  and  C_11
REMARK    4  A    between atoms: C_11  and  C_12
REMARK    5  A    between atoms: C_11  and  C_13
REMARK    6  A    between atoms: C_16  and  S_17
REMARK    7  A    between atoms: S_17  and  C_20
REMARK    8  A    between atoms: C_20  and  C_21
REMARK    9  A    between atoms: C_21  and  O_23
REMARK   10  A    between atoms: O_23  and  C_24
REMARK   11  A    between atoms: N_27  and  C_28
REMARK                            x       y       z     vdW  Elec       q    Type
REMARK                         _______ _______ _______ _____ _____    ______ ____
ROOT
ATOM      1  C   UNL     1       0.831  10.220  18.868  0.00  0.00    +0.000 C 
ATOM      2  O   UNL     1      -0.081  10.412  18.073  0.00  0.00    +0.000 OA
ATOM      3  N   UNL     1       1.325  11.257  19.649  0.00  0.00    +0.000 N 
ATOM      4  H   UNL     1       2.128  11.109  20.235  0.00  0.00    +0.000 HD
ENDROOT
BRANCH   1  11
ATOM      5  C   UNL     1       2.733   3.344  21.169  0.00  0.00    +0.000 C 
ATOM      6  C   UNL     1       2.740   4.587  20.317  0.00  0.00    +0.000 A 
ATOM      7  C   UNL     1       1.930   5.669  20.707  0.00  0.00    +0.000 A 
ATOM      8  C   UNL     1       1.930   6.847  19.936  0.00  0.00    +0.000 A 
ATOM      9  C   UNL     1       2.681   6.968  18.771  0.00  0.00    +0.000 A 
ATOM     10  C   UNL     1       2.379   8.256  18.233  0.00  0.00    +0.000 A 
ATOM     11  C   UNL     1       1.469   8.915  19.052  0.00  0.00    +0.000 A 
ATOM     12  N   UNL     1       1.289   8.062  20.142  0.00  0.00    +0.000 N 
ATOM     13  C   UNL     1       0.606   8.342  21.392  0.00  0.00    +0.000 C 
ATOM     14  C   UNL     1       3.505   5.882  18.404  0.00  0.00    +0.000 A 
ATOM     15 CL   UNL     1       4.436   6.139  16.983  0.00  0.00    +0.000 Cl
ATOM     16  C   UNL     1       3.545   4.706  19.173  0.00  0.00    +0.000 A 
ATOM     17 CL   UNL     1       4.595   3.401  18.720  0.00  0.00    +0.000 Cl
ENDBRANCH   1  11
BRANCH   3  18
ATOM     18  C   UNL     1       0.777  12.612  19.571  0.00  0.00    +0.000 C 
ATOM     19  C   UNL     1       1.867  13.682  19.689  0.00  0.00    +0.000 C 
BRANCH  18  20
ATOM     20  C   UNL     1      -0.382  12.800  20.550  0.00  0.00    +0.000 A 
ATOM     21  C   UNL     1      -0.152  12.517  21.908  0.00  0.00    +0.000 A 
ATOM     22  C   UNL     1      -1.177  12.611  22.855  0.00  0.00    +0.000 A 
ATOM     23  C   UNL     1      -2.448  13.019  22.454  0.00  0.00    +0.000 A 
ATOM     24  C   UNL     1      -2.707  13.320  21.117  0.00  0.00    +0.000 A 
ATOM     25  C   UNL     1      -1.673  13.217  20.172  0.00  0.00    +0.000 A 
BRANCH  23  26
ATOM     26  S   UNL     1      -3.732  13.138  23.677  0.00  0.00    +0.000 S 
ATOM     27  O   UNL     1      -4.007  11.806  24.184  0.00  0.00    +0.000 OA
ATOM     28  O   UNL     1      -3.320  14.191  24.590  0.00  0.00    +0.000 OA
BRANCH  26  29
ATOM     29  C   UNL     1      -5.166  13.710  22.835  0.00  0.00    +0.000 C 
BRANCH  29  30
ATOM     30  C   UNL     1      -6.161  12.609  22.750  0.00  0.00    +0.000 C 
ATOM     31  O   UNL     1      -6.919  12.289  23.653  0.00  0.00    +0.000 OA
BRANCH  30  32
ATOM     32  O   UNL     1      -6.073  11.969  21.552  0.00  0.00    +0.000 OA
ATOM     33  C   UNL     1      -6.296  12.822  20.427  0.00  0.00    +0.000 C 
ENDBRANCH  30  32
ENDBRANCH  29  30
ENDBRANCH  26  29
ENDBRANCH  23  26
ENDBRANCH  18  20
ENDBRANCH   3  18
TORSDOF 7
ENDMDL
MODEL 8
REMARK VINA RESULT:      -7.8      2.092      2.691
REMARK  Name = 
REMARK  11 active torsions:
REMARK  status: ('A' for Active; 'I' for Inactive)
REMARK    1  A    between atoms: C_1  and  C_2
REMARK    2  A    between atoms: C_7  and  C_8
REMARK    3  A    between atoms: N_10  and  C_11
REMARK    4  A    between atoms: C_11  and  C_12
REMARK    5  A    between atoms: C_11  and  C_13
REMARK    6  A    between atoms: C_16  and  S_17
REMARK    7  A    between atoms: S_17  and  C_20
REMARK    8  A    between atoms: C_20  and  C_21
REMARK    9  A    between atoms: C_21  and  O_23
REMARK   10  A    between atoms: O_23  and  C_24
REMARK   11  A    between atoms: N_27  and  C_28
REMARK                            x       y       z     vdW  Elec       q    Type
REMARK                         _______ _______ _______ _____ _____    ______ ____
ROOT
ATOM      1  C   UNL     1       1.702   9.532  18.498  0.00  0.00    +0.000 C 
ATOM      2  O   UNL     1       1.938  10.052  17.414  0.00  0.00    +0.000 OA
ATOM      3  N   UNL     1       1.072  10.248  19.509  0.00  0.00    +0.000 N 
ATOM      4  H   UNL     1       0.959   9.840  20.420  0.00  0.00    +0.000 HD
ENDROOT
BRANCH   1  11
ATOM      5  C   UNL     1       2.314   2.732  21.594  0.00  0.00    +0.000 C 
ATOM      6  C   UNL     1       2.502   3.831  20.580  0.00  0.00    +0.000 A 
ATOM      7  C   UNL     1       1.982   5.105  20.870  0.00  0.00    +0.000 A 
ATOM      8  C   UNL     1       2.158   6.153  19.945  0.00  0.00    +0.000 A 
ATOM      9  C   UNL     1       2.801   5.962  18.727  0.00  0.00    +0.000 A 
ATOM     10  C   UNL     1       2.729   7.210  18.038  0.00  0.00    +0.000 A 
ATOM     11  C   UNL     1       2.063   8.149  18.818  0.00  0.00    +0.000 A 
ATOM     12  N   UNL     1       1.812   7.496  20.025  0.00  0.00    +0.000 N 
ATOM     13  C   UNL     1       1.328   8.069  21.267  0.00  0.00    +0.000 C 
ATOM     14  C   UNL     1       3.336   4.683  18.459  0.00  0.00    +0.000 A 
ATOM     15 CL   UNL     1       4.160   4.553  16.956  0.00  0.00    +0.000 Cl
ATOM     16  C   UNL     1       3.200   3.629  19.379  0.00  0.00    +0.000 A 
ATOM     17 CL   UNL     1       3.900   2.078  19.040  0.00  0.00    +0.000 Cl
ENDBRANCH   1  11
BRANCH   3  18
ATOM     18  C   UNL     1       0.651  11.637  19.325  0.00  0.00    +0.000 C 
ATOM     19  C   UNL     1       1.818  12.618  19.480  0.00  0.00    +0.000 C 
BRANCH  18  20
ATOM     20  C   UNL     1      -0.558  11.972  20.198  0.00  0.00    +0.000 A 
ATOM     21  C   UNL     1      -0.507  11.621  21.558  0.00  0.00    +0.000 A 
ATOM     22  C   UNL     1      -1.595  11.844  22.408  0.00  0.00    +0.000 A 
ATOM     23  C   UNL     1      -2.746  12.452  21.908  0.00  0.00    +0.000 A 
ATOM     24  C   UNL     1      -2.824  12.825  20.566  0.00  0.00    +0.000 A 
ATOM     25  C   UNL     1      -1.728  12.591  19.719  0.00  0.00    +0.000 A 
BRANCH  23  26
ATOM     26  S   UNL     1      -4.112  12.731  23.010  0.00  0.00    +0.000 S 
ATOM     27  O   UNL     1      -5.345  12.524  22.273  0.00  0.00    +0.000 OA
ATOM     28  O   UNL     1      -3.836  11.943  24.199  0.00  0.00    +0.000 OA
BRANCH  26  29
ATOM     29  C   UNL     1      -4.032  14.425  23.477  0.00  0.00    +0.000 C 
BRANCH  29  30
ATOM     30  C   UNL     1      -5.325  15.086  23.162  0.00  0.00    +0.000 C 
ATOM     31  O   UNL     1      -6.297  15.097  23.904  0.00  0.00    +0.000 OA
BRANCH  30  32
ATOM     32  O   UNL     1      -5.300  15.627  21.913  0.00  0.00    +0.000 OA
ATOM     33  C   UNL     1      -4.118  16.380  21.636  0.00  0.00    +0.000 C 
ENDBRANCH  30  32
ENDBRANCH  29  30
ENDBRANCH  26  29
ENDBRANCH  23  26
ENDBRANCH  18  20
ENDBRANCH   3  18
TORSDOF 7
ENDMDL
MODEL 9
REMARK VINA RESULT:      -7.8      4.137      7.077
REMARK  Name = 
REMARK  11 active torsions:
REMARK  status: ('A' for Active; 'I' for Inactive)
REMARK    1  A    between atoms: C_1  and  C_2
REMARK    2  A    between atoms: C_7  and  C_8
REMARK    3  A    between atoms: N_10  and  C_11
REMARK    4  A    between atoms: C_11  and  C_12
REMARK    5  A    between atoms: C_11  and  C_13
REMARK    6  A    between atoms: C_16  and  S_17
REMARK    7  A    between atoms: S_17  and  C_20
REMARK    8  A    between atoms: C_20  and  C_21
REMARK    9  A    between atoms: C_21  and  O_23
REMARK   10  A    between atoms: O_23  and  C_24
REMARK   11  A    between atoms: N_27  and  C_28
REMARK                            x       y       z     vdW  Elec       q    Type
REMARK                         _______ _______ _______ _____ _____    ______ ____
ROOT
ATOM      1  C   UNL     1       1.104   9.424  20.776  0.00  0.00    +0.000 C 
ATOM      2  O   UNL     1       1.372   9.823  21.903  0.00  0.00    +0.000 OA
ATOM      3  N   UNL     1       0.295  10.172  19.930  0.00  0.00    +0.000 N 
ATOM      4  H   UNL     1       0.012   9.798  19.041  0.00  0.00    +0.000 HD
ENDROOT
BRANCH   1  11
ATOM      5  C   UNL     1       4.470   4.076  16.743  0.00  0.00    +0.000 C 
ATOM      6  C   UNL     1       3.691   4.695  17.875  0.00  0.00    +0.000 A 
ATOM      7  C   UNL     1       3.392   6.068  17.810  0.00  0.00    +0.000 A 
ATOM      8  C   UNL     1       2.652   6.666  18.848  0.00  0.00    +0.000 A 
ATOM      9  C   UNL     1       2.234   5.950  19.964  0.00  0.00    +0.000 A 
ATOM     10  C   UNL     1       1.583   6.889  20.821  0.00  0.00    +0.000 A 
ATOM     11  C   UNL     1       1.594   8.153  20.240  0.00  0.00    +0.000 A 
ATOM     12  N   UNL     1       2.171   7.962  18.984  0.00  0.00    +0.000 N 
ATOM     13  C   UNL     1       2.241   8.903  17.881  0.00  0.00    +0.000 C 
ATOM     14  C   UNL     1       2.523   4.569  20.007  0.00  0.00    +0.000 A 
ATOM     15 CL   UNL     1       1.922   3.754  21.395  0.00  0.00    +0.000 Cl
ATOM     16  C   UNL     1       3.234   3.942  18.969  0.00  0.00    +0.000 A 
ATOM     17 CL   UNL     1       3.542   2.235  19.027  0.00  0.00    +0.000 Cl
ENDBRANCH   1  11
BRANCH   3  18
ATOM     18  C   UNL     1      -0.260  11.465  20.334  0.00  0.00    +0.000 C 
ATOM     19  C   UNL     1      -1.709  11.641  19.870  0.00  0.00    +0.000 C 
BRANCH  18  20
ATOM     20  C   UNL     1       0.662  12.616  19.931  0.00  0.00    +0.000 A 
ATOM     21  C   UNL     1       1.285  12.553  18.673  0.00  0.00    +0.000 A 
ATOM     22  C   UNL     1       2.185  13.540  18.257  0.00  0.00    +0.000 A 
ATOM     23  C   UNL     1       2.452  14.623  19.091  0.00  0.00    +0.000 A 
ATOM     24  C   UNL     1       1.840  14.723  20.340  0.00  0.00    +0.000 A 
ATOM     25  C   UNL     1       0.943  13.725  20.752  0.00  0.00    +0.000 A 
BRANCH  23  26
ATOM     26  S   UNL     1       3.594  15.868  18.536  0.00  0.00    +0.000 S 
ATOM     27  O   UNL     1       3.844  15.662  17.121  0.00  0.00    +0.000 OA
ATOM     28  O   UNL     1       3.061  17.136  19.002  0.00  0.00    +0.000 OA
BRANCH  26  29
ATOM     29  C   UNL     1       5.096  15.584  19.405  0.00  0.00    +0.000 C 
BRANCH  29  30
ATOM     30  C   UNL     1       6.160  16.461  18.851  0.00  0.00    +0.000 C 
ATOM     31  O   UNL     1       6.204  17.674  19.000  0.00  0.00    +0.000 OA
BRANCH  30  32
ATOM     32  O   UNL     1       7.045  15.741  18.110  0.00  0.00    +0.000 OA
ATOM     33  C   UNL     1       7.507  14.555  18.758  0.00  0.00    +0.000 C 
ENDBRANCH  30  32
ENDBRANCH  29  30
ENDBRANCH  26  29
ENDBRANCH  23  26
ENDBRANCH  18  20
ENDBRANCH   3  18
TORSDOF 7
ENDMDL
