MODEL 1
REMARK VINA RESULT:      -7.1      0.000      0.000
REMARK  Name = 
REMARK  11 active torsions:
REMARK  status: ('A' for Active; 'I' for Inactive)
REMARK    1  A    between atoms: C_1  and  O_2
REMARK    2  A    between atoms: O_2  and  C_3
REMARK    3  A    between atoms: C_5  and  C_6
REMARK    4  A    between atoms: C_6  and  C_7
REMARK    5  A    between atoms: C_6  and  S_11
REMARK    6  A    between atoms: C_7  and  N_8
REMARK    7  A    between atoms: S_11  and  C_12
REMARK    8  A    between atoms: C_12  and  C_13
REMARK    9  A    between atoms: C_17  and  O_18
REMARK   10  A    between atoms: O_18  and  C_19
REMARK   11  A    between atoms: C_19  and  C_20
REMARK                            x       y       z     vdW  Elec       q    Type
REMARK                         _______ _______ _______ _____ _____    ______ ____
ROOT
ATOM      1  C   UNL     1       2.268   5.847  20.010  0.00  0.00    +0.000 A 
ATOM      2  C   UNL     1       1.761   6.980  20.673  0.00  0.00    +0.000 A 
ATOM      3  C   UNL     1       1.608   8.212  20.010  0.00  0.00    +0.000 A 
ATOM      4  C   UNL     1       2.076   8.308  18.695  0.00  0.00    +0.000 A 
ATOM      5  C   UNL     1       2.612   7.201  18.049  0.00  0.00    +0.000 A 
ATOM      6  C   UNL     1       2.754   5.969  18.698  0.00  0.00    +0.000 A 
ENDROOT
BRANCH   1   8
ATOM      7  C   UNL     1       1.096   3.895  20.668  0.00  0.00    +0.000 C 
ATOM      8  O   UNL     1       2.330   4.612  20.614  0.00  0.00    +0.000 OA
ENDBRANCH   1   8
BRANCH   3   9
ATOM      9  C   UNL     1       0.919   9.381  20.710  0.00  0.00    +0.000 C 
BRANCH   9  10
ATOM     10  C   UNL     1       0.536  10.431  19.667  0.00  0.00    +0.000 C 
BRANCH  10  11
ATOM     11  N   UNL     1       0.632  11.796  20.269  0.00  0.00    +0.000 N 
ATOM     12  O   UNL     1       1.634  12.040  20.952  0.00  0.00    +0.000 OA
ATOM     13  O   UNL     1      -0.307  12.573  20.057  0.00  0.00    +0.000 OA
ENDBRANCH  10  11
ENDBRANCH   9  10
BRANCH   9  14
ATOM     14  S   UNL     1      -0.558   8.855  21.699  0.00  0.00    +0.000 S 
BRANCH  14  15
ATOM     15  C   UNL     1      -0.362   9.872  23.122  0.00  0.00    +0.000 C 
ATOM     16  C   UNL     1      -1.279  11.065  23.170  0.00  0.00    +0.000 C 
ATOM     17  O   UNL     1       0.446   9.606  24.001  0.00  0.00    +0.000 OA
ENDBRANCH  14  15
ENDBRANCH   9  14
ENDBRANCH   3   9
BRANCH   6  18
ATOM     18  O   UNL     1       3.355   4.879  18.096  0.00  0.00    +0.000 OA
BRANCH  18  19
ATOM     19  C   UNL     1       4.362   5.233  17.137  0.00  0.00    +0.000 C 
BRANCH  19  20
ATOM     20  C   UNL     1       5.615   5.860  17.700  0.00  0.00    +0.000 A 
ATOM     21  C   UNL     1       6.238   5.236  18.796  0.00  0.00    +0.000 A 
ATOM     22  C   UNL     1       7.470   5.688  19.266  0.00  0.00    +0.000 A 
ATOM     23  C   UNL     1       8.091   6.765  18.639  0.00  0.00    +0.000 A 
ATOM     24  C   UNL     1       7.481   7.390  17.550  0.00  0.00    +0.000 A 
ATOM     25  C   UNL     1       6.247   6.937  17.079  0.00  0.00    +0.000 A 
ENDBRANCH  19  20
ENDBRANCH  18  19
ENDBRANCH   6  18
TORSDOF 9
ENDMDL
MODEL 2
REMARK VINA RESULT:      -7.1      3.738      7.861
REMARK  Name = 
REMARK  11 active torsions:
REMARK  status: ('A' for Active; 'I' for Inactive)
REMARK    1  A    between atoms: C_1  and  O_2
REMARK    2  A    between atoms: O_2  and  C_3
REMARK    3  A    between atoms: C_5  and  C_6
REMARK    4  A    between atoms: C_6  and  C_7
REMARK    5  A    between atoms: C_6  and  S_11
REMARK    6  A    between atoms: C_7  and  N_8
REMARK    7  A    between atoms: S_11  and  C_12
REMARK    8  A    between atoms: C_12  and  C_13
REMARK    9  A    between atoms: C_17  and  O_18
REMARK   10  A    between atoms: O_18  and  C_19
REMARK   11  A    between atoms: C_19  and  C_20
REMARK                            x       y       z     vdW  Elec       q    Type
REMARK                         _______ _______ _______ _____ _____    ______ ____
ROOT
ATOM      1  C   UNL     1       3.291   5.287  19.412  0.00  0.00    +0.000 A 
ATOM      2  C   UNL     1       4.086   4.646  18.444  0.00  0.00    +0.000 A 
ATOM      3  C   UNL     1       4.566   5.334  17.314  0.00  0.00    +0.000 A 
ATOM      4  C   UNL     1       4.140   6.652  17.124  0.00  0.00    +0.000 A 
ATOM      5  C   UNL     1       3.324   7.278  18.057  0.00  0.00    +0.000 A 
ATOM      6  C   UNL     1       2.855   6.603  19.191  0.00  0.00    +0.000 A 
ENDROOT
BRANCH   1   8
ATOM      7  C   UNL     1       2.526   3.286  20.425  0.00  0.00    +0.000 C 
ATOM      8  O   UNL     1       2.898   4.657  20.570  0.00  0.00    +0.000 OA
ENDBRANCH   1   8
BRANCH   3   9
ATOM      9  C   UNL     1       5.547   4.655  16.361  0.00  0.00    +0.000 C 
BRANCH   9  10
ATOM     10  C   UNL     1       5.648   5.481  15.078  0.00  0.00    +0.000 C 
BRANCH  10  11
ATOM     11  N   UNL     1       6.654   4.864  14.161  0.00  0.00    +0.000 N 
ATOM     12  O   UNL     1       7.698   5.499  13.963  0.00  0.00    +0.000 OA
ATOM     13  O   UNL     1       6.360   3.777  13.650  0.00  0.00    +0.000 OA
ENDBRANCH  10  11
ENDBRANCH   9  10
BRANCH   9  14
ATOM     14  S   UNL     1       7.219   4.394  17.117  0.00  0.00    +0.000 S 
BRANCH  14  15
ATOM     15  C   UNL     1       7.558   6.019  17.698  0.00  0.00    +0.000 C 
ATOM     16  C   UNL     1       7.713   6.131  19.192  0.00  0.00    +0.000 C 
ATOM     17  O   UNL     1       7.676   6.968  16.935  0.00  0.00    +0.000 OA
ENDBRANCH  14  15
ENDBRANCH   9  14
ENDBRANCH   3   9
BRANCH   6  18
ATOM     18  O   UNL     1       1.980   7.186  20.091  0.00  0.00    +0.000 OA
BRANCH  18  19
ATOM     19  C   UNL     1       1.569   8.510  19.720  0.00  0.00    +0.000 C 
BRANCH  19  20
ATOM     20  C   UNL     1       0.885   9.312  20.801  0.00  0.00    +0.000 A 
ATOM     21  C   UNL     1       0.657  10.682  20.572  0.00  0.00    +0.000 A 
ATOM     22  C   UNL     1      -0.095  11.438  21.470  0.00  0.00    +0.000 A 
ATOM     23  C   UNL     1      -0.629  10.829  22.602  0.00  0.00    +0.000 A 
ATOM     24  C   UNL     1      -0.410   9.470  22.837  0.00  0.00    +0.000 A 
ATOM     25  C   UNL     1       0.342   8.712  21.937  0.00  0.00    +0.000 A 
ENDBRANCH  19  20
ENDBRANCH  18  19
ENDBRANCH   6  18
TORSDOF 9
ENDMDL
MODEL 3
REMARK VINA RESULT:      -7.0      3.703      8.079
REMARK  Name = 
REMARK  11 active torsions:
REMARK  status: ('A' for Active; 'I' for Inactive)
REMARK    1  A    between atoms: C_1  and  O_2
REMARK    2  A    between atoms: O_2  and  C_3
REMARK    3  A    between atoms: C_5  and  C_6
REMARK    4  A    between atoms: C_6  and  C_7
REMARK    5  A    between atoms: C_6  and  S_11
REMARK    6  A    between atoms: C_7  and  N_8
REMARK    7  A    between atoms: S_11  and  C_12
REMARK    8  A    between atoms: C_12  and  C_13
REMARK    9  A    between atoms: C_17  and  O_18
REMARK   10  A    between atoms: O_18  and  C_19
REMARK   11  A    between atoms: C_19  and  C_20
REMARK                            x       y       z     vdW  Elec       q    Type
REMARK                         _______ _______ _______ _____ _____    ______ ____
ROOT
ATOM      1  C   UNL     1       2.513   6.563  19.542  0.00  0.00    +0.000 A 
ATOM      2  C   UNL     1       3.553   5.776  19.014  0.00  0.00    +0.000 A 
ATOM      3  C   UNL     1       4.343   6.227  17.940  0.00  0.00    +0.000 A 
ATOM      4  C   UNL     1       3.995   7.440  17.338  0.00  0.00    +0.000 A 
ATOM      5  C   UNL     1       2.944   8.203  17.831  0.00  0.00    +0.000 A 
ATOM      6  C   UNL     1       2.163   7.768  18.909  0.00  0.00    +0.000 A 
ENDROOT
BRANCH   1   8
ATOM      7  C   UNL     1       1.430   4.802  20.700  0.00  0.00    +0.000 C 
ATOM      8  O   UNL     1       1.798   6.182  20.653  0.00  0.00    +0.000 OA
ENDBRANCH   1   8
BRANCH   3   9
ATOM      9  C   UNL     1       5.557   5.418  17.487  0.00  0.00    +0.000 C 
BRANCH   9  10
ATOM     10  C   UNL     1       6.202   4.764  18.709  0.00  0.00    +0.000 C 
BRANCH  10  11
ATOM     11  N   UNL     1       7.326   5.619  19.202  0.00  0.00    +0.000 N 
ATOM     12  O   UNL     1       7.754   6.485  18.429  0.00  0.00    +0.000 OA
ATOM     13  O   UNL     1       7.758   5.383  20.336  0.00  0.00    +0.000 OA
ENDBRANCH  10  11
ENDBRANCH   9  10
BRANCH   9  14
ATOM     14  S   UNL     1       5.137   4.153  16.199  0.00  0.00    +0.000 S 
BRANCH  14  15
ATOM     15  C   UNL     1       6.547   4.287  15.155  0.00  0.00    +0.000 C 
ATOM     16  C   UNL     1       6.277   4.013  13.700  0.00  0.00    +0.000 C 
ATOM     17  O   UNL     1       7.647   4.599  15.591  0.00  0.00    +0.000 OA
ENDBRANCH  14  15
ENDBRANCH   9  14
ENDBRANCH   3   9
BRANCH   6  18
ATOM     18  O   UNL     1       1.067   8.477  19.364  0.00  0.00    +0.000 OA
BRANCH  18  19
ATOM     19  C   UNL     1       1.132   9.883  19.081  0.00  0.00    +0.000 C 
BRANCH  19  20
ATOM     20  C   UNL     1      -0.165  10.529  18.657  0.00  0.00    +0.000 A 
ATOM     21  C   UNL     1      -0.953   9.872  17.694  0.00  0.00    +0.000 A 
ATOM     22  C   UNL     1      -2.223  10.347  17.370  0.00  0.00    +0.000 A 
ATOM     23  C   UNL     1      -2.716  11.480  18.011  0.00  0.00    +0.000 A 
ATOM     24  C   UNL     1      -1.942  12.138  18.968  0.00  0.00    +0.000 A 
ATOM     25  C   UNL     1      -0.671  11.662  19.294  0.00  0.00    +0.000 A 
ENDBRANCH  19  20
ENDBRANCH  18  19
ENDBRANCH   6  18
TORSDOF 9
ENDMDL
MODEL 4
REMARK VINA RESULT:      -7.0      3.514      7.734
REMARK  Name = 
REMARK  11 active torsions:
REMARK  status: ('A' for Active; 'I' for Inactive)
REMARK    1  A    between atoms: C_1  and  O_2
REMARK    2  A    between atoms: O_2  and  C_3
REMARK    3  A    between atoms: C_5  and  C_6
REMARK    4  A    between atoms: C_6  and  C_7
REMARK    5  A    between atoms: C_6  and  S_11
REMARK    6  A    between atoms: C_7  and  N_8
REMARK    7  A    between atoms: S_11  and  C_12
REMARK    8  A    between atoms: C_12  and  C_13
REMARK    9  A    between atoms: C_17  and  O_18
REMARK   10  A    between atoms: O_18  and  C_19
REMARK   11  A    between atoms: C_19  and  C_20
REMARK                            x       y       z     vdW  Elec       q    Type
REMARK                         _______ _______ _______ _____ _____    ______ ____
ROOT
ATOM      1  C   UNL     1       2.838   5.458  19.607  0.00  0.00    +0.000 A 
ATOM      2  C   UNL     1       3.634   4.803  18.649  0.00  0.00    +0.000 A 
ATOM      3  C   UNL     1       4.239   5.507  17.590  0.00  0.00    +0.000 A 
ATOM      4  C   UNL     1       3.937   6.866  17.454  0.00  0.00    +0.000 A 
ATOM      5  C   UNL     1       3.121   7.509  18.376  0.00  0.00    +0.000 A 
ATOM      6  C   UNL     1       2.528   6.817  19.440  0.00  0.00    +0.000 A 
ENDROOT
BRANCH   1   8
ATOM      7  C   UNL     1       2.652   3.416  20.796  0.00  0.00    +0.000 C 
ATOM      8  O   UNL     1       2.323   4.803  20.701  0.00  0.00    +0.000 OA
ENDBRANCH   1   8
BRANCH   3   9
ATOM      9  C   UNL     1       5.216   4.797  16.656  0.00  0.00    +0.000 C 
BRANCH   9  10
ATOM     10  C   UNL     1       5.491   5.694  15.449  0.00  0.00    +0.000 C 
BRANCH  10  11
ATOM     11  N   UNL     1       6.462   5.021  14.533  0.00  0.00    +0.000 N 
ATOM     12  O   UNL     1       6.098   3.962  14.007  0.00  0.00    +0.000 OA
ATOM     13  O   UNL     1       7.565   5.560  14.385  0.00  0.00    +0.000 OA
ENDBRANCH  10  11
ENDBRANCH   9  10
BRANCH   9  14
ATOM     14  S   UNL     1       6.794   4.314  17.499  0.00  0.00    +0.000 S 
BRANCH  14  15
ATOM     15  C   UNL     1       7.016   5.696  18.565  0.00  0.00    +0.000 C 
ATOM     16  C   UNL     1       7.608   6.911  17.900  0.00  0.00    +0.000 C 
ATOM     17  O   UNL     1       6.693   5.663  19.744  0.00  0.00    +0.000 OA
ENDBRANCH  14  15
ENDBRANCH   9  14
ENDBRANCH   3   9
BRANCH   6  18
ATOM     18  O   UNL     1       1.652   7.424  20.321  0.00  0.00    +0.000 OA
BRANCH  18  19
ATOM     19  C   UNL     1       1.294   8.763  19.948  0.00  0.00    +0.000 C 
BRANCH  19  20
ATOM     20  C   UNL     1       0.589   9.575  21.009  0.00  0.00    +0.000 A 
ATOM     21  C   UNL     1       0.079  10.837  20.653  0.00  0.00    +0.000 A 
ATOM     22  C   UNL     1      -0.701  11.567  21.548  0.00  0.00    +0.000 A 
ATOM     23  C   UNL     1      -0.983  11.037  22.805  0.00  0.00    +0.000 A 
ATOM     24  C   UNL     1      -0.482   9.785  23.166  0.00  0.00    +0.000 A 
ATOM     25  C   UNL     1       0.299   9.053  22.270  0.00  0.00    +0.000 A 
ENDBRANCH  19  20
ENDBRANCH  18  19
ENDBRANCH   6  18
TORSDOF 9
ENDMDL
MODEL 5
REMARK VINA RESULT:      -7.0      4.257      6.763
REMARK  Name = 
REMARK  11 active torsions:
REMARK  status: ('A' for Active; 'I' for Inactive)
REMARK    1  A    between atoms: C_1  and  O_2
REMARK    2  A    between atoms: O_2  and  C_3
REMARK    3  A    between atoms: C_5  and  C_6
REMARK    4  A    between atoms: C_6  and  C_7
REMARK    5  A    between atoms: C_6  and  S_11
REMARK    6  A    between atoms: C_7  and  N_8
REMARK    7  A    between atoms: S_11  and  C_12
REMARK    8  A    between atoms: C_12  and  C_13
REMARK    9  A    between atoms: C_17  and  O_18
REMARK   10  A    between atoms: O_18  and  C_19
REMARK   11  A    between atoms: C_19  and  C_20
REMARK                            x       y       z     vdW  Elec       q    Type
REMARK                         _______ _______ _______ _____ _____    ______ ____
ROOT
ATOM      1  C   UNL     1       6.668   5.762  16.548  0.00  0.00    +0.000 A 
ATOM      2  C   UNL     1       5.686   5.837  17.553  0.00  0.00    +0.000 A 
ATOM      3  C   UNL     1       4.752   4.802  17.746  0.00  0.00    +0.000 A 
ATOM      4  C   UNL     1       4.759   3.739  16.838  0.00  0.00    +0.000 A 
ATOM      5  C   UNL     1       5.703   3.679  15.820  0.00  0.00    +0.000 A 
ATOM      6  C   UNL     1       6.644   4.698  15.631  0.00  0.00    +0.000 A 
ENDROOT
BRANCH   1   8
ATOM      7  C   UNL     1       7.675   7.719  17.429  0.00  0.00    +0.000 C 
ATOM      8  O   UNL     1       7.650   6.716  16.411  0.00  0.00    +0.000 OA
ENDBRANCH   1   8
BRANCH   3   9
ATOM      9  C   UNL     1       3.796   4.843  18.937  0.00  0.00    +0.000 C 
BRANCH   9  10
ATOM     10  C   UNL     1       2.493   5.515  18.505  0.00  0.00    +0.000 C 
BRANCH  10  11
ATOM     11  N   UNL     1       2.264   6.744  19.326  0.00  0.00    +0.000 N 
ATOM     12  O   UNL     1       2.540   7.830  18.802  0.00  0.00    +0.000 OA
ATOM     13  O   UNL     1       1.838   6.583  20.476  0.00  0.00    +0.000 OA
ENDBRANCH  10  11
ENDBRANCH   9  10
BRANCH   9  14
ATOM     14  S   UNL     1       3.474   3.166  19.657  0.00  0.00    +0.000 S 
BRANCH  14  15
ATOM     15  C   UNL     1       1.845   2.875  19.060  0.00  0.00    +0.000 C 
ATOM     16  C   UNL     1       0.752   3.163  20.056  0.00  0.00    +0.000 C 
ATOM     17  O   UNL     1       1.632   2.490  17.919  0.00  0.00    +0.000 OA
ENDBRANCH  14  15
ENDBRANCH   9  14
ENDBRANCH   3   9
BRANCH   6  18
ATOM     18  O   UNL     1       7.541   4.693  14.579  0.00  0.00    +0.000 OA
BRANCH  18  19
ATOM     19  C   UNL     1       6.951   5.038  13.317  0.00  0.00    +0.000 C 
BRANCH  19  20
ATOM     20  C   UNL     1       6.587   3.878  12.422  0.00  0.00    +0.000 A 
ATOM     21  C   UNL     1       7.627   3.100  11.882  0.00  0.00    +0.000 A 
ATOM     22  C   UNL     1       7.349   1.935  11.168  0.00  0.00    +0.000 A 
ATOM     23  C   UNL     1       6.026   1.537  10.993  0.00  0.00    +0.000 A 
ATOM     24  C   UNL     1       4.987   2.302  11.526  0.00  0.00    +0.000 A 
ATOM     25  C   UNL     1       5.266   3.467  12.242  0.00  0.00    +0.000 A 
ENDBRANCH  19  20
ENDBRANCH  18  19
ENDBRANCH   6  18
TORSDOF 9
ENDMDL
MODEL 6
REMARK VINA RESULT:      -7.0      1.581      2.517
REMARK  Name = 
REMARK  11 active torsions:
REMARK  status: ('A' for Active; 'I' for Inactive)
REMARK    1  A    between atoms: C_1  and  O_2
REMARK    2  A    between atoms: O_2  and  C_3
REMARK    3  A    between atoms: C_5  and  C_6
REMARK    4  A    between atoms: C_6  and  C_7
REMARK    5  A    between atoms: C_6  and  S_11
REMARK    6  A    between atoms: C_7  and  N_8
REMARK    7  A    between atoms: S_11  and  C_12
REMARK    8  A    between atoms: C_12  and  C_13
REMARK    9  A    between atoms: C_17  and  O_18
REMARK   10  A    between atoms: O_18  and  C_19
REMARK   11  A    between atoms: C_19  and  C_20
REMARK                            x       y       z     vdW  Elec       q    Type
REMARK                         _______ _______ _______ _____ _____    ______ ____
ROOT
ATOM      1  C   UNL     1       2.491   5.451  19.570  0.00  0.00    +0.000 A 
ATOM      2  C   UNL     1       1.846   6.489  20.269  0.00  0.00    +0.000 A 
ATOM      3  C   UNL     1       1.731   7.782  19.724  0.00  0.00    +0.000 A 
ATOM      4  C   UNL     1       2.373   8.036  18.508  0.00  0.00    +0.000 A 
ATOM      5  C   UNL     1       3.044   7.025  17.832  0.00  0.00    +0.000 A 
ATOM      6  C   UNL     1       3.150   5.733  18.362  0.00  0.00    +0.000 A 
ENDROOT
BRANCH   1   8
ATOM      7  C   UNL     1       2.229   4.010  21.433  0.00  0.00    +0.000 C 
ATOM      8  O   UNL     1       2.525   4.160  20.043  0.00  0.00    +0.000 OA
ENDBRANCH   1   8
BRANCH   3   9
ATOM      9  C   UNL     1       0.898   8.844  20.437  0.00  0.00    +0.000 C 
BRANCH   9  10
ATOM     10  C   UNL     1       1.359   8.944  21.891  0.00  0.00    +0.000 C 
BRANCH  10  11
ATOM     11  N   UNL     1       0.171   9.103  22.785  0.00  0.00    +0.000 N 
ATOM     12  O   UNL     1       0.312   9.815  23.788  0.00  0.00    +0.000 OA
ATOM     13  O   UNL     1      -0.859   8.495  22.470  0.00  0.00    +0.000 OA
ENDBRANCH  10  11
ENDBRANCH   9  10
BRANCH   9  14
ATOM     14  S   UNL     1       0.972  10.496  19.600  0.00  0.00    +0.000 S 
BRANCH  14  15
ATOM     15  C   UNL     1      -0.745  10.852  19.457  0.00  0.00    +0.000 C 
ATOM     16  C   UNL     1      -1.380  10.373  18.178  0.00  0.00    +0.000 C 
ATOM     17  O   UNL     1      -1.364  11.427  20.342  0.00  0.00    +0.000 OA
ENDBRANCH  14  15
ENDBRANCH   9  14
ENDBRANCH   3   9
BRANCH   6  18
ATOM     18  O   UNL     1       3.878   4.735  17.741  0.00  0.00    +0.000 OA
BRANCH  18  19
ATOM     19  C   UNL     1       4.868   5.228  16.825  0.00  0.00    +0.000 C 
BRANCH  19  20
ATOM     20  C   UNL     1       6.124   5.783  17.452  0.00  0.00    +0.000 A 
ATOM     21  C   UNL     1       6.601   7.027  17.001  0.00  0.00    +0.000 A 
ATOM     22  C   UNL     1       7.671   7.654  17.639  0.00  0.00    +0.000 A 
ATOM     23  C   UNL     1       8.269   7.042  18.737  0.00  0.00    +0.000 A 
ATOM     24  C   UNL     1       7.803   5.808  19.193  0.00  0.00    +0.000 A 
ATOM     25  C   UNL     1       6.730   5.181  18.555  0.00  0.00    +0.000 A 
ENDBRANCH  19  20
ENDBRANCH  18  19
ENDBRANCH   6  18
TORSDOF 9
ENDMDL
MODEL 7
REMARK VINA RESULT:      -6.9      1.634      2.470
REMARK  Name = 
REMARK  11 active torsions:
REMARK  status: ('A' for Active; 'I' for Inactive)
REMARK    1  A    between atoms: C_1  and  O_2
REMARK    2  A    between atoms: O_2  and  C_3
REMARK    3  A    between atoms: C_5  and  C_6
REMARK    4  A    between atoms: C_6  and  C_7
REMARK    5  A    between atoms: C_6  and  S_11
REMARK    6  A    between atoms: C_7  and  N_8
REMARK    7  A    between atoms: S_11  and  C_12
REMARK    8  A    between atoms: C_12  and  C_13
REMARK    9  A    between atoms: C_17  and  O_18
REMARK   10  A    between atoms: O_18  and  C_19
REMARK   11  A    between atoms: C_19  and  C_20
REMARK                            x       y       z     vdW  Elec       q    Type
REMARK                         _______ _______ _______ _____ _____    ______ ____
ROOT
ATOM      1  C   UNL     1       2.342   5.946  19.902  0.00  0.00    +0.000 A 
ATOM      2  C   UNL     1       1.773   7.094  20.484  0.00  0.00    +0.000 A 
ATOM      3  C   UNL     1       1.560   8.268  19.737  0.00  0.00    +0.000 A 
ATOM      4  C   UNL     1       2.029   8.298  18.420  0.00  0.00    +0.000 A 
ATOM      5  C   UNL     1       2.626   7.180  17.852  0.00  0.00    +0.000 A 
ATOM      6  C   UNL     1       2.828   6.004  18.585  0.00  0.00    +0.000 A 
ENDROOT
BRANCH   1   8
ATOM      7  C   UNL     1       1.258   4.012  20.738  0.00  0.00    +0.000 C 
ATOM      8  O   UNL     1       2.465   4.761  20.589  0.00  0.00    +0.000 OA
ENDBRANCH   1   8
BRANCH   3   9
ATOM      9  C   UNL     1       0.807   9.445  20.355  0.00  0.00    +0.000 C 
BRANCH   9  10
ATOM     10  C   UNL     1       1.296   9.651  21.788  0.00  0.00    +0.000 C 
BRANCH  10  11
ATOM     11  N   UNL     1       0.184   9.365  22.745  0.00  0.00    +0.000 N 
ATOM     12  O   UNL     1      -0.787   8.737  22.307  0.00  0.00    +0.000 OA
ATOM     13  O   UNL     1       0.307   9.797  23.898  0.00  0.00    +0.000 OA
ENDBRANCH  10  11
ENDBRANCH   9  10
BRANCH   9  14
ATOM     14  S   UNL     1       0.970  11.002  19.364  0.00  0.00    +0.000 S 
BRANCH  14  15
ATOM     15  C   UNL     1      -0.658  11.130  18.709  0.00  0.00    +0.000 C 
ATOM     16  C   UNL     1      -1.067  12.526  18.318  0.00  0.00    +0.000 C 
ATOM     17  O   UNL     1      -1.379  10.152  18.571  0.00  0.00    +0.000 OA
ENDBRANCH  14  15
ENDBRANCH   9  14
ENDBRANCH   3   9
BRANCH   6  18
ATOM     18  O   UNL     1       3.488   4.908  18.060  0.00  0.00    +0.000 OA
BRANCH  18  19
ATOM     19  C   UNL     1       4.514   5.250  17.117  0.00  0.00    +0.000 C 
BRANCH  19  20
ATOM     20  C   UNL     1       5.738   5.923  17.692  0.00  0.00    +0.000 A 
ATOM     21  C   UNL     1       6.390   5.307  18.776  0.00  0.00    +0.000 A 
ATOM     22  C   UNL     1       7.601   5.805  19.254  0.00  0.00    +0.000 A 
ATOM     23  C   UNL     1       8.172   6.921  18.648  0.00  0.00    +0.000 A 
ATOM     24  C   UNL     1       7.533   7.538  17.571  0.00  0.00    +0.000 A 
ATOM     25  C   UNL     1       6.321   7.039  17.091  0.00  0.00    +0.000 A 
ENDBRANCH  19  20
ENDBRANCH  18  19
ENDBRANCH   6  18
TORSDOF 9
ENDMDL
MODEL 8
REMARK VINA RESULT:      -6.9      3.669      7.936
REMARK  Name = 
REMARK  11 active torsions:
REMARK  status: ('A' for Active; 'I' for Inactive)
REMARK    1  A    between atoms: C_1  and  O_2
REMARK    2  A    between atoms: O_2  and  C_3
REMARK    3  A    between atoms: C_5  and  C_6
REMARK    4  A    between atoms: C_6  and  C_7
REMARK    5  A    between atoms: C_6  and  S_11
REMARK    6  A    between atoms: C_7  and  N_8
REMARK    7  A    between atoms: S_11  and  C_12
REMARK    8  A    between atoms: C_12  and  C_13
REMARK    9  A    between atoms: C_17  and  O_18
REMARK   10  A    between atoms: O_18  and  C_19
REMARK   11  A    between atoms: C_19  and  C_20
REMARK                            x       y       z     vdW  Elec       q    Type
REMARK                         _______ _______ _______ _____ _____    ______ ____
ROOT
ATOM      1  C   UNL     1       3.250   5.270  19.401  0.00  0.00    +0.000 A 
ATOM      2  C   UNL     1       4.328   4.819  18.617  0.00  0.00    +0.000 A 
ATOM      3  C   UNL     1       4.916   5.638  17.634  0.00  0.00    +0.000 A 
ATOM      4  C   UNL     1       4.326   6.881  17.384  0.00  0.00    +0.000 A 
ATOM      5  C   UNL     1       3.238   7.316  18.130  0.00  0.00    +0.000 A 
ATOM      6  C   UNL     1       2.658   6.512  19.119  0.00  0.00    +0.000 A 
ENDROOT
BRANCH   1   8
ATOM      7  C   UNL     1       1.913   3.419  20.035  0.00  0.00    +0.000 C 
ATOM      8  O   UNL     1       2.730   4.522  20.432  0.00  0.00    +0.000 OA
ENDBRANCH   1   8
BRANCH   3   9
ATOM      9  C   UNL     1       6.175   5.177  16.904  0.00  0.00    +0.000 C 
BRANCH   9  10
ATOM     10  C   UNL     1       7.176   4.642  17.928  0.00  0.00    +0.000 C 
BRANCH  10  11
ATOM     11  N   UNL     1       7.594   5.745  18.846  0.00  0.00    +0.000 N 
ATOM     12  O   UNL     1       7.495   5.534  20.062  0.00  0.00    +0.000 OA
ATOM     13  O   UNL     1       7.988   6.795  18.325  0.00  0.00    +0.000 OA
ENDBRANCH  10  11
ENDBRANCH   9  10
BRANCH   9  14
ATOM     14  S   UNL     1       5.824   3.915  15.593  0.00  0.00    +0.000 S 
BRANCH  14  15
ATOM     15  C   UNL     1       6.820   4.537  14.283  0.00  0.00    +0.000 C 
ATOM     16  C   UNL     1       6.505   3.960  12.928  0.00  0.00    +0.000 C 
ATOM     17  O   UNL     1       7.681   5.386  14.471  0.00  0.00    +0.000 OA
ENDBRANCH  14  15
ENDBRANCH   9  14
ENDBRANCH   3   9
BRANCH   6  18
ATOM     18  O   UNL     1       1.528   6.897  19.818  0.00  0.00    +0.000 OA
BRANCH  18  19
ATOM     19  C   UNL     1       1.749   8.002  20.707  0.00  0.00    +0.000 C 
BRANCH  19  20
ATOM     20  C   UNL     1       0.880   9.215  20.476  0.00  0.00    +0.000 A 
ATOM     21  C   UNL     1       0.663   9.637  19.151  0.00  0.00    +0.000 A 
ATOM     22  C   UNL     1      -0.241  10.660  18.870  0.00  0.00    +0.000 A 
ATOM     23  C   UNL     1      -0.939  11.265  19.911  0.00  0.00    +0.000 A 
ATOM     24  C   UNL     1      -0.731  10.853  21.228  0.00  0.00    +0.000 A 
ATOM     25  C   UNL     1       0.174   9.828  21.511  0.00  0.00    +0.000 A 
ENDBRANCH  19  20
ENDBRANCH  18  19
ENDBRANCH   6  18
TORSDOF 9
ENDMDL
MODEL 9
REMARK VINA RESULT:      -6.9      4.080      6.446
REMARK  Name = 
REMARK  11 active torsions:
REMARK  status: ('A' for Active; 'I' for Inactive)
REMARK    1  A    between atoms: C_1  and  O_2
REMARK    2  A    between atoms: O_2  and  C_3
REMARK    3  A    between atoms: C_5  and  C_6
REMARK    4  A    between atoms: C_6  and  C_7
REMARK    5  A    between atoms: C_6  and  S_11
REMARK    6  A    between atoms: C_7  and  N_8
REMARK    7  A    between atoms: S_11  and  C_12
REMARK    8  A    between atoms: C_12  and  C_13
REMARK    9  A    between atoms: C_17  and  O_18
REMARK   10  A    between atoms: O_18  and  C_19
REMARK   11  A    between atoms: C_19  and  C_20
REMARK                            x       y       z     vdW  Elec       q    Type
REMARK                         _______ _______ _______ _____ _____    ______ ____
ROOT
ATOM      1  C   UNL     1       6.675   5.924  16.723  0.00  0.00    +0.000 A 
ATOM      2  C   UNL     1       5.671   6.084  17.696  0.00  0.00    +0.000 A 
ATOM      3  C   UNL     1       4.656   5.124  17.870  0.00  0.00    +0.000 A 
ATOM      4  C   UNL     1       4.613   4.052  16.973  0.00  0.00    +0.000 A 
ATOM      5  C   UNL     1       5.580   3.909  15.986  0.00  0.00    +0.000 A 
ATOM      6  C   UNL     1       6.600   4.854  15.817  0.00  0.00    +0.000 A 
ENDROOT
BRANCH   1   8
ATOM      7  C   UNL     1       7.759   7.852  17.575  0.00  0.00    +0.000 C 
ATOM      8  O   UNL     1       7.728   6.802  16.607  0.00  0.00    +0.000 OA
ENDBRANCH   1   8
BRANCH   3   9
ATOM      9  C   UNL     1       3.670   5.250  19.028  0.00  0.00    +0.000 C 
BRANCH   9  10
ATOM     10  C   UNL     1       2.385   5.902  18.519  0.00  0.00    +0.000 C 
BRANCH  10  11
ATOM     11  N   UNL     1       2.326   7.324  18.979  0.00  0.00    +0.000 N 
ATOM     12  O   UNL     1       2.674   8.192  18.169  0.00  0.00    +0.000 OA
ATOM     13  O   UNL     1       1.955   7.526  20.141  0.00  0.00    +0.000 OA
ENDBRANCH  10  11
ENDBRANCH   9  10
BRANCH   9  14
ATOM     14  S   UNL     1       3.313   3.627  19.848  0.00  0.00    +0.000 S 
BRANCH  14  15
ATOM     15  C   UNL     1       1.556   3.606  19.753  0.00  0.00    +0.000 C 
ATOM     16  C   UNL     1       1.000   2.788  18.617  0.00  0.00    +0.000 C 
ATOM     17  O   UNL     1       0.857   4.198  20.564  0.00  0.00    +0.000 OA
ENDBRANCH  14  15
ENDBRANCH   9  14
ENDBRANCH   3   9
BRANCH   6  18
ATOM     18  O   UNL     1       7.526   4.769  14.793  0.00  0.00    +0.000 OA
BRANCH  18  19
ATOM     19  C   UNL     1       6.981   5.053  13.497  0.00  0.00    +0.000 C 
BRANCH  19  20
ATOM     20  C   UNL     1       6.521   3.856  12.700  0.00  0.00    +0.000 A 
ATOM     21  C   UNL     1       5.142   3.699  12.469  0.00  0.00    +0.000 A 
ATOM     22  C   UNL     1       4.672   2.695  11.623  0.00  0.00    +0.000 A 
ATOM     23  C   UNL     1       5.579   1.844  10.997  0.00  0.00    +0.000 A 
ATOM     24  C   UNL     1       6.949   1.993  11.219  0.00  0.00    +0.000 A 
ATOM     25  C   UNL     1       7.420   2.999  12.065  0.00  0.00    +0.000 A 
ENDBRANCH  19  20
ENDBRANCH  18  19
ENDBRANCH   6  18
TORSDOF 9
ENDMDL
