MODEL 1
REMARK VINA RESULT:      -8.1      0.000      0.000
REMARK  Name = 
REMARK  13 active torsions:
REMARK  status: ('A' for Active; 'I' for Inactive)
REMARK    1  A    between atoms: C_1  and  C_2
REMARK    2  A    between atoms: C_2  and  C_3
REMARK    3  A    between atoms: C_3  and  C_4
REMARK    4  A    between atoms: C_5  and  O_6
REMARK    5  A    between atoms: O_6  and  C_7
REMARK    6  A    between atoms: C_7  and  C_8
REMARK    7  A    between atoms: C_8  and  C_9
REMARK    8  A    between atoms: C_9  and  O_10
REMARK    9  A    between atoms: O_10  and  C_11
REMARK   10  A    between atoms: N_19  and  C_20
REMARK   11  A    between atoms: C_20  and  C_21
REMARK   12  A    between atoms: C_21  and  O_23
REMARK   13  A    between atoms: C_27  and  C_28
REMARK                            x       y       z     vdW  Elec       q    Type
REMARK                         _______ _______ _______ _____ _____    ______ ____
ROOT
ATOM      1  O   UNL     1       2.185   7.506  19.933  0.00  0.00    +0.000 OA
ENDROOT
BRANCH   1   3
ATOM      2  C   UNL     1       3.090   5.412  19.264  0.00  0.00    +0.000 A 
ATOM      3  C   UNL     1       2.996   6.811  19.068  0.00  0.00    +0.000 A 
ATOM      4  C   UNL     1       3.638   7.415  17.989  0.00  0.00    +0.000 A 
ATOM      5  C   UNL     1       4.179   6.676  16.950  0.00  0.00    +0.000 A 
ATOM      6  C   UNL     1       4.328   5.302  17.128  0.00  0.00    +0.000 A 
ATOM      7  C   UNL     1       4.930   4.242  16.394  0.00  0.00    +0.000 A 
ATOM      8  N   UNL     1       4.782   3.082  17.057  0.00  0.00    +0.000 NA
ATOM      9  O   UNL     1       4.090   3.385  18.226  0.00  0.00    +0.000 OA
ATOM     10  C   UNL     1       3.807   4.718  18.268  0.00  0.00    +0.000 A 
BRANCH   7  11
ATOM     11  C   UNL     1       5.596   4.359  15.091  0.00  0.00    +0.000 A 
ATOM     12  C   UNL     1       5.031   3.777  13.940  0.00  0.00    +0.000 A 
ATOM     13  C   UNL     1       5.735   3.713  12.737  0.00  0.00    +0.000 A 
ATOM     14  C   UNL     1       6.993   4.297  12.652  0.00  0.00    +0.000 A 
ATOM     15  C   UNL     1       7.540   4.941  13.761  0.00  0.00    +0.000 A 
ATOM     16  C   UNL     1       6.846   4.969  14.976  0.00  0.00    +0.000 A 
ENDBRANCH   7  11
BRANCH   2  17
ATOM     17  C   UNL     1       2.522   4.741  20.490  0.00  0.00    +0.000 C 
BRANCH  17  19
ATOM     18  C   UNL     1       0.965   2.883  19.631  0.00  0.00    +0.000 C 
ATOM     19  C   UNL     1       1.081   4.246  20.302  0.00  0.00    +0.000 C 
ENDBRANCH  17  19
ENDBRANCH   2  17
ENDBRANCH   1   3
BRANCH   1  20
ATOM     20  C   UNL     1       1.093   8.283  19.422  0.00  0.00    +0.000 C 
BRANCH  20  21
ATOM     21  C   UNL     1       1.002   9.697  20.017  0.00  0.00    +0.000 C 
BRANCH  21  22
ATOM     22  C   UNL     1       0.920  10.789  18.957  0.00  0.00    +0.000 C 
BRANCH  22  23
ATOM     23  O   UNL     1      -0.215  11.620  19.092  0.00  0.00    +0.000 OA
BRANCH  23  24
ATOM     24  C   UNL     1      -1.362  11.182  18.494  0.00  0.00    +0.000 A 
ATOM     25  C   UNL     1      -1.455  10.292  17.413  0.00  0.00    +0.000 A 
ATOM     26  C   UNL     1      -2.698   9.894  16.917  0.00  0.00    +0.000 A 
ATOM     27  C   UNL     1      -3.882  10.391  17.461  0.00  0.00    +0.000 A 
ATOM     28  C   UNL     1      -3.782  11.325  18.498  0.00  0.00    +0.000 A 
ATOM     29  C   UNL     1      -2.546  11.730  19.012  0.00  0.00    +0.000 A 
ATOM     30  C   UNL     1      -2.780  12.678  20.041  0.00  0.00    +0.000 A 
ATOM     31  C   UNL     1      -4.135  12.859  20.131  0.00  0.00    +0.000 A 
ATOM     32  N   UNL     1      -4.732  12.038  19.207  0.00  0.00    +0.000 N 
BRANCH  32  33
ATOM     33  C   UNL     1      -6.172  11.972  19.000  0.00  0.00    +0.000 C 
BRANCH  33  34
ATOM     34  C   UNL     1      -6.836  10.810  19.695  0.00  0.00    +0.000 C 
ATOM     35  O   UNL     1      -6.965  10.765  20.911  0.00  0.00    +0.000 OA
BRANCH  34  36
ATOM     36  O   UNL     1      -7.361   9.848  18.898  0.00  0.00    +0.000 OA
ATOM     37  H   UNL     1      -8.161   9.402  19.242  0.00  0.00    +0.000 HD
ENDBRANCH  34  36
ENDBRANCH  33  34
ENDBRANCH  32  33
ENDBRANCH  23  24
ENDBRANCH  22  23
ENDBRANCH  21  22
ENDBRANCH  20  21
ENDBRANCH   1  20
TORSDOF 12
ENDMDL
MODEL 2
REMARK VINA RESULT:      -7.9      1.386      1.842
REMARK  Name = 
REMARK  13 active torsions:
REMARK  status: ('A' for Active; 'I' for Inactive)
REMARK    1  A    between atoms: C_1  and  C_2
REMARK    2  A    between atoms: C_2  and  C_3
REMARK    3  A    between atoms: C_3  and  C_4
REMARK    4  A    between atoms: C_5  and  O_6
REMARK    5  A    between atoms: O_6  and  C_7
REMARK    6  A    between atoms: C_7  and  C_8
REMARK    7  A    between atoms: C_8  and  C_9
REMARK    8  A    between atoms: C_9  and  O_10
REMARK    9  A    between atoms: O_10  and  C_11
REMARK   10  A    between atoms: N_19  and  C_20
REMARK   11  A    between atoms: C_20  and  C_21
REMARK   12  A    between atoms: C_21  and  O_23
REMARK   13  A    between atoms: C_27  and  C_28
REMARK                            x       y       z     vdW  Elec       q    Type
REMARK                         _______ _______ _______ _____ _____    ______ ____
ROOT
ATOM      1  O   UNL     1       1.389   6.819  20.797  0.00  0.00    +0.000 OA
ENDROOT
BRANCH   1   3
ATOM      2  C   UNL     1       1.843   4.814  19.602  0.00  0.00    +0.000 A 
ATOM      3  C   UNL     1       2.214   6.140  19.933  0.00  0.00    +0.000 A 
ATOM      4  C   UNL     1       3.322   6.732  19.329  0.00  0.00    +0.000 A 
ATOM      5  C   UNL     1       3.951   6.165  18.234  0.00  0.00    +0.000 A 
ATOM      6  C   UNL     1       3.642   4.845  17.908  0.00  0.00    +0.000 A 
ATOM      7  C   UNL     1       4.134   3.887  16.978  0.00  0.00    +0.000 A 
ATOM      8  N   UNL     1       3.456   2.734  17.105  0.00  0.00    +0.000 NA
ATOM      9  O   UNL     1       2.525   2.937  18.120  0.00  0.00    +0.000 OA
ATOM     10  C   UNL     1       2.628   4.209  18.600  0.00  0.00    +0.000 A 
BRANCH   7  11
ATOM     11  C   UNL     1       5.203   4.102  15.995  0.00  0.00    +0.000 A 
ATOM     12  C   UNL     1       6.443   4.642  16.388  0.00  0.00    +0.000 A 
ATOM     13  C   UNL     1       7.398   5.029  15.448  0.00  0.00    +0.000 A 
ATOM     14  C   UNL     1       7.150   4.815  14.097  0.00  0.00    +0.000 A 
ATOM     15  C   UNL     1       5.959   4.216  13.693  0.00  0.00    +0.000 A 
ATOM     16  C   UNL     1       4.987   3.864  14.636  0.00  0.00    +0.000 A 
ENDBRANCH   7  11
BRANCH   2  17
ATOM     17  C   UNL     1       0.734   4.094  20.328  0.00  0.00    +0.000 C 
BRANCH  17  19
ATOM     18  C   UNL     1       2.594   3.023  21.746  0.00  0.00    +0.000 C 
ATOM     19  C   UNL     1       1.216   2.867  21.114  0.00  0.00    +0.000 C 
ENDBRANCH  17  19
ENDBRANCH   2  17
ENDBRANCH   1   3
BRANCH   1  20
ATOM     20  C   UNL     1       1.521   8.239  20.946  0.00  0.00    +0.000 C 
BRANCH  20  21
ATOM     21  C   UNL     1       0.387   9.043  20.291  0.00  0.00    +0.000 C 
BRANCH  21  22
ATOM     22  C   UNL     1       0.880  10.024  19.235  0.00  0.00    +0.000 C 
BRANCH  22  23
ATOM     23  O   UNL     1       0.021  11.130  19.048  0.00  0.00    +0.000 OA
BRANCH  23  24
ATOM     24  C   UNL     1      -1.186  10.869  18.465  0.00  0.00    +0.000 A 
ATOM     25  C   UNL     1      -1.419  10.035  17.361  0.00  0.00    +0.000 A 
ATOM     26  C   UNL     1      -2.714   9.823  16.884  0.00  0.00    +0.000 A 
ATOM     27  C   UNL     1      -3.809  10.456  17.470  0.00  0.00    +0.000 A 
ATOM     28  C   UNL     1      -3.564  11.333  18.532  0.00  0.00    +0.000 A 
ATOM     29  C   UNL     1      -2.275  11.553  19.028  0.00  0.00    +0.000 A 
ATOM     30  C   UNL     1      -2.359  12.489  20.091  0.00  0.00    +0.000 A 
ATOM     31  C   UNL     1      -3.675  12.846  20.219  0.00  0.00    +0.000 A 
ATOM     32  N   UNL     1      -4.395  12.143  19.285  0.00  0.00    +0.000 N 
BRANCH  32  33
ATOM     33  C   UNL     1      -5.836  12.276  19.112  0.00  0.00    +0.000 C 
BRANCH  33  34
ATOM     34  C   UNL     1      -6.233  13.193  17.984  0.00  0.00    +0.000 C 
ATOM     35  O   UNL     1      -6.687  12.770  16.930  0.00  0.00    +0.000 OA
BRANCH  34  36
ATOM     36  O   UNL     1      -6.140  14.523  18.224  0.00  0.00    +0.000 OA
ATOM     37  H   UNL     1      -6.971  14.966  18.490  0.00  0.00    +0.000 HD
ENDBRANCH  34  36
ENDBRANCH  33  34
ENDBRANCH  32  33
ENDBRANCH  23  24
ENDBRANCH  22  23
ENDBRANCH  21  22
ENDBRANCH  20  21
ENDBRANCH   1  20
TORSDOF 12
ENDMDL
MODEL 3
REMARK VINA RESULT:      -7.9      0.914      1.159
REMARK  Name = 
REMARK  13 active torsions:
REMARK  status: ('A' for Active; 'I' for Inactive)
REMARK    1  A    between atoms: C_1  and  C_2
REMARK    2  A    between atoms: C_2  and  C_3
REMARK    3  A    between atoms: C_3  and  C_4
REMARK    4  A    between atoms: C_5  and  O_6
REMARK    5  A    between atoms: O_6  and  C_7
REMARK    6  A    between atoms: C_7  and  C_8
REMARK    7  A    between atoms: C_8  and  C_9
REMARK    8  A    between atoms: C_9  and  O_10
REMARK    9  A    between atoms: O_10  and  C_11
REMARK   10  A    between atoms: N_19  and  C_20
REMARK   11  A    between atoms: C_20  and  C_21
REMARK   12  A    between atoms: C_21  and  O_23
REMARK   13  A    between atoms: C_27  and  C_28
REMARK                            x       y       z     vdW  Elec       q    Type
REMARK                         _______ _______ _______ _____ _____    ______ ____
ROOT
ATOM      1  O   UNL     1       1.228   6.982  20.657  0.00  0.00    +0.000 OA
ENDROOT
BRANCH   1   3
ATOM      2  C   UNL     1       2.681   5.162  20.176  0.00  0.00    +0.000 A 
ATOM      3  C   UNL     1       2.238   6.473  19.875  0.00  0.00    +0.000 A 
ATOM      4  C   UNL     1       2.758   7.157  18.779  0.00  0.00    +0.000 A 
ATOM      5  C   UNL     1       3.528   6.525  17.817  0.00  0.00    +0.000 A 
ATOM      6  C   UNL     1       4.019   5.252  18.100  0.00  0.00    +0.000 A 
ATOM      7  C   UNL     1       4.914   4.344  17.468  0.00  0.00    +0.000 A 
ATOM      8  N   UNL     1       5.037   3.229  18.207  0.00  0.00    +0.000 NA
ATOM      9  O   UNL     1       4.227   3.410  19.325  0.00  0.00    +0.000 OA
ATOM     10  C   UNL     1       3.606   4.622  19.260  0.00  0.00    +0.000 A 
BRANCH   7  11
ATOM     11  C   UNL     1       5.597   4.553  16.185  0.00  0.00    +0.000 A 
ATOM     12  C   UNL     1       5.074   4.009  14.996  0.00  0.00    +0.000 A 
ATOM     13  C   UNL     1       5.799   4.033  13.805  0.00  0.00    +0.000 A 
ATOM     14  C   UNL     1       7.036   4.668  13.772  0.00  0.00    +0.000 A 
ATOM     15  C   UNL     1       7.538   5.275  14.922  0.00  0.00    +0.000 A 
ATOM     16  C   UNL     1       6.824   5.216  16.124  0.00  0.00    +0.000 A 
ENDBRANCH   7  11
BRANCH   2  17
ATOM     17  C   UNL     1       2.241   4.441  21.426  0.00  0.00    +0.000 C 
BRANCH  17  19
ATOM     18  C   UNL     1       0.686   3.124  19.857  0.00  0.00    +0.000 C 
ATOM     19  C   UNL     1       1.503   3.125  21.143  0.00  0.00    +0.000 C 
ENDBRANCH  17  19
ENDBRANCH   2  17
ENDBRANCH   1   3
BRANCH   1  20
ATOM     20  C   UNL     1       1.313   8.326  21.149  0.00  0.00    +0.000 C 
BRANCH  20  21
ATOM     21  C   UNL     1       0.084   9.189  20.821  0.00  0.00    +0.000 C 
BRANCH  21  22
ATOM     22  C   UNL     1       0.319  10.678  21.047  0.00  0.00    +0.000 C 
BRANCH  22  23
ATOM     23  O   UNL     1       0.121  11.461  19.887  0.00  0.00    +0.000 OA
BRANCH  23  24
ATOM     24  C   UNL     1      -0.902  11.082  19.066  0.00  0.00    +0.000 A 
ATOM     25  C   UNL     1      -0.817  10.206  17.973  0.00  0.00    +0.000 A 
ATOM     26  C   UNL     1      -1.952   9.870  17.234  0.00  0.00    +0.000 A 
ATOM     27  C   UNL     1      -3.198  10.417  17.540  0.00  0.00    +0.000 A 
ATOM     28  C   UNL     1      -3.265  11.336  18.593  0.00  0.00    +0.000 A 
ATOM     29  C   UNL     1      -2.140  11.679  19.349  0.00  0.00    +0.000 A 
ATOM     30  C   UNL     1      -2.532  12.628  20.328  0.00  0.00    +0.000 A 
ATOM     31  C   UNL     1      -3.868  12.871  20.150  0.00  0.00    +0.000 A 
ATOM     32  N   UNL     1      -4.305  12.087  19.112  0.00  0.00    +0.000 N 
BRANCH  32  33
ATOM     33  C   UNL     1      -5.677  12.089  18.623  0.00  0.00    +0.000 C 
BRANCH  33  34
ATOM     34  C   UNL     1      -6.572  11.088  19.309  0.00  0.00    +0.000 C 
ATOM     35  O   UNL     1      -6.752   9.963  18.864  0.00  0.00    +0.000 OA
BRANCH  34  36
ATOM     36  O   UNL     1      -7.107  11.467  20.494  0.00  0.00    +0.000 OA
ATOM     37  H   UNL     1      -8.033  11.191  20.649  0.00  0.00    +0.000 HD
ENDBRANCH  34  36
ENDBRANCH  33  34
ENDBRANCH  32  33
ENDBRANCH  23  24
ENDBRANCH  22  23
ENDBRANCH  21  22
ENDBRANCH  20  21
ENDBRANCH   1  20
TORSDOF 12
ENDMDL
MODEL 4
REMARK VINA RESULT:      -7.9      3.484      5.160
REMARK  Name = 
REMARK  13 active torsions:
REMARK  status: ('A' for Active; 'I' for Inactive)
REMARK    1  A    between atoms: C_1  and  C_2
REMARK    2  A    between atoms: C_2  and  C_3
REMARK    3  A    between atoms: C_3  and  C_4
REMARK    4  A    between atoms: C_5  and  O_6
REMARK    5  A    between atoms: O_6  and  C_7
REMARK    6  A    between atoms: C_7  and  C_8
REMARK    7  A    between atoms: C_8  and  C_9
REMARK    8  A    between atoms: C_9  and  O_10
REMARK    9  A    between atoms: O_10  and  C_11
REMARK   10  A    between atoms: N_19  and  C_20
REMARK   11  A    between atoms: C_20  and  C_21
REMARK   12  A    between atoms: C_21  and  O_23
REMARK   13  A    between atoms: C_27  and  C_28
REMARK                            x       y       z     vdW  Elec       q    Type
REMARK                         _______ _______ _______ _____ _____    ______ ____
ROOT
ATOM      1  O   UNL     1       4.563   5.024  19.302  0.00  0.00    +0.000 OA
ENDROOT
BRANCH   1   3
ATOM      2  C   UNL     1       6.059   5.545  17.528  0.00  0.00    +0.000 A 
ATOM      3  C   UNL     1       4.861   4.928  17.963  0.00  0.00    +0.000 A 
ATOM      4  C   UNL     1       4.086   4.190  17.071  0.00  0.00    +0.000 A 
ATOM      5  C   UNL     1       4.552   3.830  15.817  0.00  0.00    +0.000 A 
ATOM      6  C   UNL     1       5.704   4.454  15.340  0.00  0.00    +0.000 A 
ATOM      7  C   UNL     1       6.415   4.466  14.108  0.00  0.00    +0.000 A 
ATOM      8  N   UNL     1       7.485   5.274  14.203  0.00  0.00    +0.000 NA
ATOM      9  O   UNL     1       7.470   5.792  15.496  0.00  0.00    +0.000 OA
ATOM     10  C   UNL     1       6.404   5.294  16.185  0.00  0.00    +0.000 A 
BRANCH   7  11
ATOM     11  C   UNL     1       6.074   3.702  12.902  0.00  0.00    +0.000 A 
ATOM     12  C   UNL     1       4.775   3.755  12.361  0.00  0.00    +0.000 A 
ATOM     13  C   UNL     1       4.379   2.897  11.335  0.00  0.00    +0.000 A 
ATOM     14  C   UNL     1       5.305   2.017  10.787  0.00  0.00    +0.000 A 
ATOM     15  C   UNL     1       6.616   2.000  11.260  0.00  0.00    +0.000 A 
ATOM     16  C   UNL     1       6.999   2.836  12.315  0.00  0.00    +0.000 A 
ENDBRANCH   7  11
BRANCH   2  17
ATOM     17  C   UNL     1       6.854   6.458  18.428  0.00  0.00    +0.000 C 
BRANCH  17  19
ATOM     18  C   UNL     1       8.217   5.464  20.370  0.00  0.00    +0.000 C 
ATOM     19  C   UNL     1       8.182   5.848  18.896  0.00  0.00    +0.000 C 
ENDBRANCH  17  19
ENDBRANCH   2  17
ENDBRANCH   1   3
BRANCH   1  20
ATOM     20  C   UNL     1       4.067   3.879  20.008  0.00  0.00    +0.000 C 
BRANCH  20  21
ATOM     21  C   UNL     1       2.719   4.113  20.707  0.00  0.00    +0.000 C 
BRANCH  21  22
ATOM     22  C   UNL     1       1.903   5.234  20.075  0.00  0.00    +0.000 C 
BRANCH  22  23
ATOM     23  O   UNL     1       2.141   6.500  20.655  0.00  0.00    +0.000 OA
BRANCH  23  24
ATOM     24  C   UNL     1       1.942   7.584  19.849  0.00  0.00    +0.000 A 
ATOM     25  C   UNL     1       2.375   7.731  18.522  0.00  0.00    +0.000 A 
ATOM     26  C   UNL     1       2.072   8.881  17.793  0.00  0.00    +0.000 A 
ATOM     27  C   UNL     1       1.356   9.930  18.368  0.00  0.00    +0.000 A 
ATOM     28  C   UNL     1       0.980   9.804  19.710  0.00  0.00    +0.000 A 
ATOM     29  C   UNL     1       1.268   8.657  20.454  0.00  0.00    +0.000 A 
ATOM     30  C   UNL     1       0.764   8.837  21.768  0.00  0.00    +0.000 A 
ATOM     31  C   UNL     1       0.200  10.084  21.821  0.00  0.00    +0.000 A 
ATOM     32  N   UNL     1       0.325  10.657  20.580  0.00  0.00    +0.000 N 
BRANCH  32  33
ATOM     33  C   UNL     1      -0.148  11.997  20.261  0.00  0.00    +0.000 C 
BRANCH  33  34
ATOM     34  C   UNL     1       0.848  13.086  20.568  0.00  0.00    +0.000 C 
ATOM     35  O   UNL     1       1.946  12.848  21.053  0.00  0.00    +0.000 OA
BRANCH  34  36
ATOM     36  O   UNL     1       0.501  14.344  20.205  0.00  0.00    +0.000 OA
ATOM     37  H   UNL     1      -0.389  14.637  20.487  0.00  0.00    +0.000 HD
ENDBRANCH  34  36
ENDBRANCH  33  34
ENDBRANCH  32  33
ENDBRANCH  23  24
ENDBRANCH  22  23
ENDBRANCH  21  22
ENDBRANCH  20  21
ENDBRANCH   1  20
TORSDOF 12
ENDMDL
MODEL 5
REMARK VINA RESULT:      -7.7      2.362      4.251
REMARK  Name = 
REMARK  13 active torsions:
REMARK  status: ('A' for Active; 'I' for Inactive)
REMARK    1  A    between atoms: C_1  and  C_2
REMARK    2  A    between atoms: C_2  and  C_3
REMARK    3  A    between atoms: C_3  and  C_4
REMARK    4  A    between atoms: C_5  and  O_6
REMARK    5  A    between atoms: O_6  and  C_7
REMARK    6  A    between atoms: C_7  and  C_8
REMARK    7  A    between atoms: C_8  and  C_9
REMARK    8  A    between atoms: C_9  and  O_10
REMARK    9  A    between atoms: O_10  and  C_11
REMARK   10  A    between atoms: N_19  and  C_20
REMARK   11  A    between atoms: C_20  and  C_21
REMARK   12  A    between atoms: C_21  and  O_23
REMARK   13  A    between atoms: C_27  and  C_28
REMARK                            x       y       z     vdW  Elec       q    Type
REMARK                         _______ _______ _______ _____ _____    ______ ____
ROOT
ATOM      1  O   UNL     1       4.549   4.999  19.433  0.00  0.00    +0.000 OA
ENDROOT
BRANCH   1   3
ATOM      2  C   UNL     1       6.021   5.555  17.650  0.00  0.00    +0.000 A 
ATOM      3  C   UNL     1       4.836   4.917  18.091  0.00  0.00    +0.000 A 
ATOM      4  C   UNL     1       4.063   4.176  17.200  0.00  0.00    +0.000 A 
ATOM      5  C   UNL     1       4.522   3.832  15.939  0.00  0.00    +0.000 A 
ATOM      6  C   UNL     1       5.660   4.475  15.456  0.00  0.00    +0.000 A 
ATOM      7  C   UNL     1       6.360   4.507  14.218  0.00  0.00    +0.000 A 
ATOM      8  N   UNL     1       7.420   5.329  14.309  0.00  0.00    +0.000 NA
ATOM      9  O   UNL     1       7.409   5.837  15.606  0.00  0.00    +0.000 OA
ATOM     10  C   UNL     1       6.357   5.319  16.301  0.00  0.00    +0.000 A 
BRANCH   7  11
ATOM     11  C   UNL     1       6.018   3.748  13.009  0.00  0.00    +0.000 A 
ATOM     12  C   UNL     1       4.753   3.888  12.406  0.00  0.00    +0.000 A 
ATOM     13  C   UNL     1       4.341   3.042  11.376  0.00  0.00    +0.000 A 
ATOM     14  C   UNL     1       5.222   2.085  10.886  0.00  0.00    +0.000 A 
ATOM     15  C   UNL     1       6.504   1.979  11.422  0.00  0.00    +0.000 A 
ATOM     16  C   UNL     1       6.900   2.803  12.481  0.00  0.00    +0.000 A 
ENDBRANCH   7  11
BRANCH   2  17
ATOM     17  C   UNL     1       6.812   6.472  18.549  0.00  0.00    +0.000 C 
BRANCH  17  19
ATOM     18  C   UNL     1       7.858   8.676  17.735  0.00  0.00    +0.000 C 
ATOM     19  C   UNL     1       7.984   7.161  17.837  0.00  0.00    +0.000 C 
ENDBRANCH  17  19
ENDBRANCH   2  17
ENDBRANCH   1   3
BRANCH   1  20
ATOM     20  C   UNL     1       3.193   5.176  19.865  0.00  0.00    +0.000 C 
BRANCH  20  21
ATOM     21  C   UNL     1       2.523   6.443  19.310  0.00  0.00    +0.000 C 
BRANCH  21  22
ATOM     22  C   UNL     1       2.086   7.416  20.399  0.00  0.00    +0.000 C 
BRANCH  22  23
ATOM     23  O   UNL     1       1.235   8.442  19.929  0.00  0.00    +0.000 OA
BRANCH  23  24
ATOM     24  C   UNL     1       0.584   9.173  20.881  0.00  0.00    +0.000 A 
ATOM     25  C   UNL     1       0.578   8.931  22.263  0.00  0.00    +0.000 A 
ATOM     26  C   UNL     1      -0.102   9.781  23.137  0.00  0.00    +0.000 A 
ATOM     27  C   UNL     1      -0.819  10.878  22.660  0.00  0.00    +0.000 A 
ATOM     28  C   UNL     1      -0.859  11.080  21.277  0.00  0.00    +0.000 A 
ATOM     29  C   UNL     1      -0.179  10.243  20.387  0.00  0.00    +0.000 A 
ATOM     30  C   UNL     1      -0.418  10.704  19.067  0.00  0.00    +0.000 A 
ATOM     31  C   UNL     1      -1.249  11.790  19.158  0.00  0.00    +0.000 A 
ATOM     32  N   UNL     1      -1.504  12.015  20.487  0.00  0.00    +0.000 N 
BRANCH  32  33
ATOM     33  C   UNL     1      -2.368  13.083  20.972  0.00  0.00    +0.000 C 
BRANCH  33  34
ATOM     34  C   UNL     1      -3.815  12.684  21.108  0.00  0.00    +0.000 C 
ATOM     35  O   UNL     1      -4.556  12.576  20.140  0.00  0.00    +0.000 OA
BRANCH  34  36
ATOM     36  O   UNL     1      -4.241  12.369  22.355  0.00  0.00    +0.000 OA
ATOM     37  H   UNL     1      -4.720  13.076  22.832  0.00  0.00    +0.000 HD
ENDBRANCH  34  36
ENDBRANCH  33  34
ENDBRANCH  32  33
ENDBRANCH  23  24
ENDBRANCH  22  23
ENDBRANCH  21  22
ENDBRANCH  20  21
ENDBRANCH   1  20
TORSDOF 12
ENDMDL
MODEL 6
REMARK VINA RESULT:      -7.7      3.351      5.026
REMARK  Name = 
REMARK  13 active torsions:
REMARK  status: ('A' for Active; 'I' for Inactive)
REMARK    1  A    between atoms: C_1  and  C_2
REMARK    2  A    between atoms: C_2  and  C_3
REMARK    3  A    between atoms: C_3  and  C_4
REMARK    4  A    between atoms: C_5  and  O_6
REMARK    5  A    between atoms: O_6  and  C_7
REMARK    6  A    between atoms: C_7  and  C_8
REMARK    7  A    between atoms: C_8  and  C_9
REMARK    8  A    between atoms: C_9  and  O_10
REMARK    9  A    between atoms: O_10  and  C_11
REMARK   10  A    between atoms: N_19  and  C_20
REMARK   11  A    between atoms: C_20  and  C_21
REMARK   12  A    between atoms: C_21  and  O_23
REMARK   13  A    between atoms: C_27  and  C_28
REMARK                            x       y       z     vdW  Elec       q    Type
REMARK                         _______ _______ _______ _____ _____    ______ ____
ROOT
ATOM      1  O   UNL     1       5.515   4.585  19.292  0.00  0.00    +0.000 OA
ENDROOT
BRANCH   1   3
ATOM      2  C   UNL     1       6.598   5.209  17.269  0.00  0.00    +0.000 A 
ATOM      3  C   UNL     1       5.552   4.510  17.919  0.00  0.00    +0.000 A 
ATOM      4  C   UNL     1       4.668   3.723  17.185  0.00  0.00    +0.000 A 
ATOM      5  C   UNL     1       4.903   3.397  15.860  0.00  0.00    +0.000 A 
ATOM      6  C   UNL     1       5.895   4.097  15.176  0.00  0.00    +0.000 A 
ATOM      7  C   UNL     1       6.350   4.159  13.829  0.00  0.00    +0.000 A 
ATOM      8  N   UNL     1       7.362   5.037  13.726  0.00  0.00    +0.000 NA
ATOM      9  O   UNL     1       7.565   5.553  15.004  0.00  0.00    +0.000 OA
ATOM     10  C   UNL     1       6.690   4.983  15.880  0.00  0.00    +0.000 A 
BRANCH   7  11
ATOM     11  C   UNL     1       5.831   3.375  12.702  0.00  0.00    +0.000 A 
ATOM     12  C   UNL     1       6.635   2.407  12.070  0.00  0.00    +0.000 A 
ATOM     13  C   UNL     1       6.232   1.788  10.886  0.00  0.00    +0.000 A 
ATOM     14  C   UNL     1       4.982   2.082  10.355  0.00  0.00    +0.000 A 
ATOM     15  C   UNL     1       4.142   2.984  11.005  0.00  0.00    +0.000 A 
ATOM     16  C   UNL     1       4.565   3.630  12.172  0.00  0.00    +0.000 A 
ENDBRANCH   7  11
BRANCH   2  17
ATOM     17  C   UNL     1       7.491   6.172  18.009  0.00  0.00    +0.000 C 
BRANCH  17  19
ATOM     18  C   UNL     1       8.338   8.595  18.175  0.00  0.00    +0.000 C 
ATOM     19  C   UNL     1       7.395   7.614  17.490  0.00  0.00    +0.000 C 
ENDBRANCH  17  19
ENDBRANCH   2  17
ENDBRANCH   1   3
BRANCH   1  20
ATOM     20  C   UNL     1       4.330   5.053  19.951  0.00  0.00    +0.000 C 
BRANCH  20  21
ATOM     21  C   UNL     1       3.722   6.314  19.320  0.00  0.00    +0.000 C 
BRANCH  21  22
ATOM     22  C   UNL     1       2.221   6.436  19.549  0.00  0.00    +0.000 C 
BRANCH  22  23
ATOM     23  O   UNL     1       1.877   7.379  20.544  0.00  0.00    +0.000 OA
BRANCH  23  24
ATOM     24  C   UNL     1       1.346   8.558  20.104  0.00  0.00    +0.000 A 
ATOM     25  C   UNL     1       1.502   9.122  18.829  0.00  0.00    +0.000 A 
ATOM     26  C   UNL     1       0.872  10.321  18.494  0.00  0.00    +0.000 A 
ATOM     27  C   UNL     1       0.094  11.010  19.424  0.00  0.00    +0.000 A 
ATOM     28  C   UNL     1      -0.008  10.474  20.712  0.00  0.00    +0.000 A 
ATOM     29  C   UNL     1       0.610   9.270  21.064  0.00  0.00    +0.000 A 
ATOM     30  C   UNL     1       0.324   9.002  22.428  0.00  0.00    +0.000 A 
ATOM     31  C   UNL     1      -0.437  10.041  22.898  0.00  0.00    +0.000 A 
ATOM     32  N   UNL     1      -0.639  10.917  21.861  0.00  0.00    +0.000 N 
BRANCH  32  33
ATOM     33  C   UNL     1      -1.394  12.156  21.990  0.00  0.00    +0.000 C 
BRANCH  33  34
ATOM     34  C   UNL     1      -0.636  13.265  22.674  0.00  0.00    +0.000 C 
ATOM     35  O   UNL     1      -0.926  13.658  23.796  0.00  0.00    +0.000 OA
BRANCH  34  36
ATOM     36  O   UNL     1       0.442  13.756  22.016  0.00  0.00    +0.000 OA
ATOM     37  H   UNL     1       1.308  13.597  22.443  0.00  0.00    +0.000 HD
ENDBRANCH  34  36
ENDBRANCH  33  34
ENDBRANCH  32  33
ENDBRANCH  23  24
ENDBRANCH  22  23
ENDBRANCH  21  22
ENDBRANCH  20  21
ENDBRANCH   1  20
TORSDOF 12
ENDMDL
MODEL 7
REMARK VINA RESULT:      -7.7      0.976      1.935
REMARK  Name = 
REMARK  13 active torsions:
REMARK  status: ('A' for Active; 'I' for Inactive)
REMARK    1  A    between atoms: C_1  and  C_2
REMARK    2  A    between atoms: C_2  and  C_3
REMARK    3  A    between atoms: C_3  and  C_4
REMARK    4  A    between atoms: C_5  and  O_6
REMARK    5  A    between atoms: O_6  and  C_7
REMARK    6  A    between atoms: C_7  and  C_8
REMARK    7  A    between atoms: C_8  and  C_9
REMARK    8  A    between atoms: C_9  and  O_10
REMARK    9  A    between atoms: O_10  and  C_11
REMARK   10  A    between atoms: N_19  and  C_20
REMARK   11  A    between atoms: C_20  and  C_21
REMARK   12  A    between atoms: C_21  and  O_23
REMARK   13  A    between atoms: C_27  and  C_28
REMARK                            x       y       z     vdW  Elec       q    Type
REMARK                         _______ _______ _______ _____ _____    ______ ____
ROOT
ATOM      1  O   UNL     1       2.570   7.689  18.903  0.00  0.00    +0.000 OA
ENDROOT
BRANCH   1   3
ATOM      2  C   UNL     1       3.404   5.529  18.364  0.00  0.00    +0.000 A 
ATOM      3  C   UNL     1       3.408   6.924  18.126  0.00  0.00    +0.000 A 
ATOM      4  C   UNL     1       4.169   7.459  17.089  0.00  0.00    +0.000 A 
ATOM      5  C   UNL     1       4.749   6.662  16.117  0.00  0.00    +0.000 A 
ATOM      6  C   UNL     1       4.803   5.287  16.342  0.00  0.00    +0.000 A 
ATOM      7  C   UNL     1       5.400   4.174  15.686  0.00  0.00    +0.000 A 
ATOM      8  N   UNL     1       5.133   3.044  16.363  0.00  0.00    +0.000 NA
ATOM      9  O   UNL     1       4.366   3.420  17.463  0.00  0.00    +0.000 OA
ATOM     10  C   UNL     1       4.158   4.767  17.449  0.00  0.00    +0.000 A 
BRANCH   7  11
ATOM     11  C   UNL     1       6.176   4.215  14.440  0.00  0.00    +0.000 A 
ATOM     12  C   UNL     1       7.275   5.086  14.306  0.00  0.00    +0.000 A 
ATOM     13  C   UNL     1       7.904   5.277  13.076  0.00  0.00    +0.000 A 
ATOM     14  C   UNL     1       7.483   4.543  11.974  0.00  0.00    +0.000 A 
ATOM     15  C   UNL     1       6.444   3.623  12.103  0.00  0.00    +0.000 A 
ATOM     16  C   UNL     1       5.790   3.462  13.330  0.00  0.00    +0.000 A 
ENDBRANCH   7  11
BRANCH   2  17
ATOM     17  C   UNL     1       2.701   4.927  19.555  0.00  0.00    +0.000 C 
BRANCH  17  19
ATOM     18  C   UNL     1       1.302   2.794  19.227  0.00  0.00    +0.000 C 
ATOM     19  C   UNL     1       1.335   4.317  19.212  0.00  0.00    +0.000 C 
ENDBRANCH  17  19
ENDBRANCH   2  17
ENDBRANCH   1   3
BRANCH   1  20
ATOM     20  C   UNL     1       1.592   8.535  18.283  0.00  0.00    +0.000 C 
BRANCH  20  21
ATOM     21  C   UNL     1       2.006  10.012  18.201  0.00  0.00    +0.000 C 
BRANCH  21  22
ATOM     22  C   UNL     1       0.892  10.970  18.605  0.00  0.00    +0.000 C 
BRANCH  22  23
ATOM     23  O   UNL     1      -0.186  10.336  19.263  0.00  0.00    +0.000 OA
BRANCH  23  24
ATOM     24  C   UNL     1      -1.242  11.133  19.605  0.00  0.00    +0.000 A 
ATOM     25  C   UNL     1      -1.331  11.965  20.731  0.00  0.00    +0.000 A 
ATOM     26  C   UNL     1      -2.457  12.761  20.946  0.00  0.00    +0.000 A 
ATOM     27  C   UNL     1      -3.537  12.732  20.065  0.00  0.00    +0.000 A 
ATOM     28  C   UNL     1      -3.468  11.856  18.977  0.00  0.00    +0.000 A 
ATOM     29  C   UNL     1      -2.346  11.056  18.742  0.00  0.00    +0.000 A 
ATOM     30  C   UNL     1      -2.584  10.284  17.575  0.00  0.00    +0.000 A 
ATOM     31  C   UNL     1      -3.840  10.597  17.127  0.00  0.00    +0.000 A 
ATOM     32  N   UNL     1      -4.363  11.547  17.968  0.00  0.00    +0.000 N 
BRANCH  32  33
ATOM     33  C   UNL     1      -5.697  12.112  17.814  0.00  0.00    +0.000 C 
BRANCH  33  34
ATOM     34  C   UNL     1      -6.710  11.560  18.783  0.00  0.00    +0.000 C 
ATOM     35  O   UNL     1      -7.104  12.200  19.750  0.00  0.00    +0.000 OA
BRANCH  34  36
ATOM     36  O   UNL     1      -7.231  10.345  18.488  0.00  0.00    +0.000 OA
ATOM     37  H   UNL     1      -6.924   9.944  17.650  0.00  0.00    +0.000 HD
ENDBRANCH  34  36
ENDBRANCH  33  34
ENDBRANCH  32  33
ENDBRANCH  23  24
ENDBRANCH  22  23
ENDBRANCH  21  22
ENDBRANCH  20  21
ENDBRANCH   1  20
TORSDOF 12
ENDMDL
MODEL 8
REMARK VINA RESULT:      -7.6      2.465     11.684
REMARK  Name = 
REMARK  13 active torsions:
REMARK  status: ('A' for Active; 'I' for Inactive)
REMARK    1  A    between atoms: C_1  and  C_2
REMARK    2  A    between atoms: C_2  and  C_3
REMARK    3  A    between atoms: C_3  and  C_4
REMARK    4  A    between atoms: C_5  and  O_6
REMARK    5  A    between atoms: O_6  and  C_7
REMARK    6  A    between atoms: C_7  and  C_8
REMARK    7  A    between atoms: C_8  and  C_9
REMARK    8  A    between atoms: C_9  and  O_10
REMARK    9  A    between atoms: O_10  and  C_11
REMARK   10  A    between atoms: N_19  and  C_20
REMARK   11  A    between atoms: C_20  and  C_21
REMARK   12  A    between atoms: C_21  and  O_23
REMARK   13  A    between atoms: C_27  and  C_28
REMARK                            x       y       z     vdW  Elec       q    Type
REMARK                         _______ _______ _______ _____ _____    ______ ____
ROOT
ATOM      1  O   UNL     1       1.224  10.606  21.742  0.00  0.00    +0.000 OA
ENDROOT
BRANCH   1   3
ATOM      2  C   UNL     1      -0.503  11.720  20.546  0.00  0.00    +0.000 A 
ATOM      3  C   UNL     1      -0.007  11.217  21.773  0.00  0.00    +0.000 A 
ATOM      4  C   UNL     1      -0.788  11.276  22.926  0.00  0.00    +0.000 A 
ATOM      5  C   UNL     1      -2.135  11.595  22.883  0.00  0.00    +0.000 A 
ATOM      6  C   UNL     1      -2.646  12.135  21.705  0.00  0.00    +0.000 A 
ATOM      7  C   UNL     1      -3.891  12.693  21.299  0.00  0.00    +0.000 A 
ATOM      8  N   UNL     1      -3.826  13.077  20.013  0.00  0.00    +0.000 NA
ATOM      9  O   UNL     1      -2.537  12.776  19.580  0.00  0.00    +0.000 OA
ATOM     10  C   UNL     1      -1.828  12.200  20.592  0.00  0.00    +0.000 A 
BRANCH   7  11
ATOM     11  C   UNL     1      -5.096  12.820  22.129  0.00  0.00    +0.000 A 
ATOM     12  C   UNL     1      -4.995  13.121  23.501  0.00  0.00    +0.000 A 
ATOM     13  C   UNL     1      -6.106  13.060  24.342  0.00  0.00    +0.000 A 
ATOM     14  C   UNL     1      -7.352  12.762  23.804  0.00  0.00    +0.000 A 
ATOM     15  C   UNL     1      -7.485  12.531  22.437  0.00  0.00    +0.000 A 
ATOM     16  C   UNL     1      -6.361  12.556  21.602  0.00  0.00    +0.000 A 
ENDBRANCH   7  11
BRANCH   2  17
ATOM     17  C   UNL     1       0.359  11.794  19.311  0.00  0.00    +0.000 C 
BRANCH  17  19
ATOM     18  C   UNL     1       1.631   9.903  18.119  0.00  0.00    +0.000 C 
ATOM     19  C   UNL     1       0.281  10.535  18.437  0.00  0.00    +0.000 C 
ENDBRANCH  17  19
ENDBRANCH   2  17
ENDBRANCH   1   3
BRANCH   1  20
ATOM     20  C   UNL     1       1.346   9.223  22.105  0.00  0.00    +0.000 C 
BRANCH  20  21
ATOM     21  C   UNL     1       0.581   8.266  21.179  0.00  0.00    +0.000 C 
BRANCH  21  22
ATOM     22  C   UNL     1       1.301   6.941  20.960  0.00  0.00    +0.000 C 
BRANCH  22  23
ATOM     23  O   UNL     1       2.233   6.975  19.898  0.00  0.00    +0.000 OA
BRANCH  23  24
ATOM     24  C   UNL     1       2.881   5.805  19.622  0.00  0.00    +0.000 A 
ATOM     25  C   UNL     1       2.764   4.597  20.326  0.00  0.00    +0.000 A 
ATOM     26  C   UNL     1       3.457   3.457  19.915  0.00  0.00    +0.000 A 
ATOM     27  C   UNL     1       4.308   3.492  18.811  0.00  0.00    +0.000 A 
ATOM     28  C   UNL     1       4.467   4.714  18.149  0.00  0.00    +0.000 A 
ATOM     29  C   UNL     1       3.776   5.864  18.542  0.00  0.00    +0.000 A 
ATOM     30  C   UNL     1       4.154   6.929  17.684  0.00  0.00    +0.000 A 
ATOM     31  C   UNL     1       5.077   6.433  16.800  0.00  0.00    +0.000 A 
ATOM     32  N   UNL     1       5.255   5.101  17.080  0.00  0.00    +0.000 N 
BRANCH  32  33
ATOM     33  C   UNL     1       6.180   4.243  16.352  0.00  0.00    +0.000 C 
BRANCH  33  34
ATOM     34  C   UNL     1       6.458   4.700  14.943  0.00  0.00    +0.000 C 
ATOM     35  O   UNL     1       7.518   5.223  14.625  0.00  0.00    +0.000 OA
BRANCH  34  36
ATOM     36  O   UNL     1       5.505   4.431  14.019  0.00  0.00    +0.000 OA
ATOM     37  H   UNL     1       5.729   3.735  13.369  0.00  0.00    +0.000 HD
ENDBRANCH  34  36
ENDBRANCH  33  34
ENDBRANCH  32  33
ENDBRANCH  23  24
ENDBRANCH  22  23
ENDBRANCH  21  22
ENDBRANCH  20  21
ENDBRANCH   1  20
TORSDOF 12
ENDMDL
MODEL 9
REMARK VINA RESULT:      -7.6      2.147     11.808
REMARK  Name = 
REMARK  13 active torsions:
REMARK  status: ('A' for Active; 'I' for Inactive)
REMARK    1  A    between atoms: C_1  and  C_2
REMARK    2  A    between atoms: C_2  and  C_3
REMARK    3  A    between atoms: C_3  and  C_4
REMARK    4  A    between atoms: C_5  and  O_6
REMARK    5  A    between atoms: O_6  and  C_7
REMARK    6  A    between atoms: C_7  and  C_8
REMARK    7  A    between atoms: C_8  and  C_9
REMARK    8  A    between atoms: C_9  and  O_10
REMARK    9  A    between atoms: O_10  and  C_11
REMARK   10  A    between atoms: N_19  and  C_20
REMARK   11  A    between atoms: C_20  and  C_21
REMARK   12  A    between atoms: C_21  and  O_23
REMARK   13  A    between atoms: C_27  and  C_28
REMARK                            x       y       z     vdW  Elec       q    Type
REMARK                         _______ _______ _______ _____ _____    ______ ____
ROOT
ATOM      1  O   UNL     1      -0.160   9.922  18.340  0.00  0.00    +0.000 OA
ENDROOT
BRANCH   1   3
ATOM      2  C   UNL     1      -2.390  10.715  18.108  0.00  0.00    +0.000 A 
ATOM      3  C   UNL     1      -1.131  10.806  18.749  0.00  0.00    +0.000 A 
ATOM      4  C   UNL     1      -0.940  11.700  19.801  0.00  0.00    +0.000 A 
ATOM      5  C   UNL     1      -1.998  12.349  20.414  0.00  0.00    +0.000 A 
ATOM      6  C   UNL     1      -3.242  12.317  19.785  0.00  0.00    +0.000 A 
ATOM      7  C   UNL     1      -4.506  12.933  20.004  0.00  0.00    +0.000 A 
ATOM      8  N   UNL     1      -5.377  12.543  19.057  0.00  0.00    +0.000 NA
ATOM      9  O   UNL     1      -4.681  11.676  18.219  0.00  0.00    +0.000 OA
ATOM     10  C   UNL     1      -3.399  11.531  18.659  0.00  0.00    +0.000 A 
BRANCH   7  11
ATOM     11  C   UNL     1      -4.848  13.843  21.104  0.00  0.00    +0.000 A 
ATOM     12  C   UNL     1      -4.901  13.377  22.432  0.00  0.00    +0.000 A 
ATOM     13  C   UNL     1      -5.405  14.172  23.461  0.00  0.00    +0.000 A 
ATOM     14  C   UNL     1      -5.801  15.476  23.185  0.00  0.00    +0.000 A 
ATOM     15  C   UNL     1      -5.689  15.979  21.890  0.00  0.00    +0.000 A 
ATOM     16  C   UNL     1      -5.219  15.166  20.853  0.00  0.00    +0.000 A 
ENDBRANCH   7  11
BRANCH   2  17
ATOM     17  C   UNL     1      -2.599   9.858  16.885  0.00  0.00    +0.000 C 
BRANCH  17  19
ATOM     18  C   UNL     1      -3.592  10.118  14.526  0.00  0.00    +0.000 C 
ATOM     19  C   UNL     1      -2.630  10.660  15.576  0.00  0.00    +0.000 C 
ENDBRANCH  17  19
ENDBRANCH   2  17
ENDBRANCH   1   3
BRANCH   1  20
ATOM     20  C   UNL     1       1.070   9.823  19.070  0.00  0.00    +0.000 C 
BRANCH  20  21
ATOM     21  C   UNL     1       0.970   8.980  20.350  0.00  0.00    +0.000 C 
BRANCH  21  22
ATOM     22  C   UNL     1       1.936   7.802  20.370  0.00  0.00    +0.000 C 
BRANCH  22  23
ATOM     23  O   UNL     1       1.951   7.065  19.164  0.00  0.00    +0.000 OA
BRANCH  23  24
ATOM     24  C   UNL     1       2.760   5.965  19.135  0.00  0.00    +0.000 A 
ATOM     25  C   UNL     1       2.638   4.815  19.930  0.00  0.00    +0.000 A 
ATOM     26  C   UNL     1       3.514   3.740  19.774  0.00  0.00    +0.000 A 
ATOM     27  C   UNL     1       4.553   3.788  18.846  0.00  0.00    +0.000 A 
ATOM     28  C   UNL     1       4.707   4.960  18.099  0.00  0.00    +0.000 A 
ATOM     29  C   UNL     1       3.835   6.045  18.236  0.00  0.00    +0.000 A 
ATOM     30  C   UNL     1       4.257   7.072  17.353  0.00  0.00    +0.000 A 
ATOM     31  C   UNL     1       5.380   6.623  16.709  0.00  0.00    +0.000 A 
ATOM     32  N   UNL     1       5.641   5.351  17.155  0.00  0.00    +0.000 N 
BRANCH  32  33
ATOM     33  C   UNL     1       6.774   4.556  16.703  0.00  0.00    +0.000 C 
BRANCH  33  34
ATOM     34  C   UNL     1       6.922   4.501  15.204  0.00  0.00    +0.000 C 
ATOM     35  O   UNL     1       6.253   3.749  14.509  0.00  0.00    +0.000 OA
BRANCH  34  36
ATOM     36  O   UNL     1       7.781   5.389  14.648  0.00  0.00    +0.000 OA
ATOM     37  H   UNL     1       7.514   5.751  13.779  0.00  0.00    +0.000 HD
ENDBRANCH  34  36
ENDBRANCH  33  34
ENDBRANCH  32  33
ENDBRANCH  23  24
ENDBRANCH  22  23
ENDBRANCH  21  22
ENDBRANCH  20  21
ENDBRANCH   1  20
TORSDOF 12
ENDMDL
