MODEL 1
REMARK VINA RESULT:      -6.9      0.000      0.000
REMARK  Name = 
REMARK  6 active torsions:
REMARK  status: ('A' for Active; 'I' for Inactive)
REMARK    1  A    between atoms: C_1  and  C_2
REMARK    2  A    between atoms: C_2  and  N_3
REMARK    3  A    between atoms: N_3  and  C_4
REMARK    4  A    between atoms: N_7  and  C_8
REMARK    5  A    between atoms: C_8  and  C_9
REMARK    6  A    between atoms: C_8  and  C_10
REMARK                            x       y       z     vdW  Elec       q    Type
REMARK                         _______ _______ _______ _____ _____    ______ ____
ROOT
ATOM      1  C   UNL     1       2.839   6.170  18.644  0.00  0.00    +0.000 A 
ATOM      2  N   UNL     1       3.692   6.181  17.603  0.00  0.00    +0.000 NA
ATOM      3  C   UNL     1       4.194   5.013  17.185  0.00  0.00    +0.000 A 
ATOM      4  N   UNL     1       4.952   5.046  16.029  0.00  0.00    +0.000 N 
ATOM      5  N   UNL     1       3.941   3.843  17.770  0.00  0.00    +0.000 NA
ATOM      6  C   UNL     1       3.063   3.821  18.766  0.00  0.00    +0.000 A 
ATOM      7  C   UNL     1       2.705   2.586  19.298  0.00  0.00    +0.000 A 
ATOM      8  C   UNL     1       1.744   2.455  20.300  0.00  0.00    +0.000 A 
ATOM      9  C   UNL     1       1.131   3.587  20.812  0.00  0.00    +0.000 A 
ATOM     10  C   UNL     1       1.492   4.840  20.321  0.00  0.00    +0.000 A 
ATOM     11  C   UNL     1       2.459   4.965  19.280  0.00  0.00    +0.000 A 
ATOM     12  H   UNL     1       5.139   6.008  15.771  0.00  0.00    +0.000 HD
ENDROOT
BRANCH   4  13
ATOM     13  C   UNL     1       6.020   4.066  15.864  0.00  0.00    +0.000 C 
ATOM     14  C   UNL     1       6.334   3.902  14.377  0.00  0.00    +0.000 C 
ATOM     15  C   UNL     1       7.272   4.556  16.596  0.00  0.00    +0.000 C 
ENDBRANCH   4  13
BRANCH   1  16
ATOM     16  N   UNL     1       2.380   7.415  19.156  0.00  0.00    +0.000 N 
ATOM     17  H   UNL     1       1.513   7.280  19.662  0.00  0.00    +0.000 HD
BRANCH  16  19
ATOM     18  C   UNL     1       1.221   9.493  18.626  0.00  0.00    +0.000 C 
ATOM     19  C   UNL     1       2.213   8.447  18.135  0.00  0.00    +0.000 C 
ENDBRANCH  16  19
ENDBRANCH   1  16
TORSDOF 3
ENDMDL
MODEL 2
REMARK VINA RESULT:      -6.8      1.136      1.136
REMARK  Name = 
REMARK  6 active torsions:
REMARK  status: ('A' for Active; 'I' for Inactive)
REMARK    1  A    between atoms: C_1  and  C_2
REMARK    2  A    between atoms: C_2  and  N_3
REMARK    3  A    between atoms: N_3  and  C_4
REMARK    4  A    between atoms: N_7  and  C_8
REMARK    5  A    between atoms: C_8  and  C_9
REMARK    6  A    between atoms: C_8  and  C_10
REMARK                            x       y       z     vdW  Elec       q    Type
REMARK                         _______ _______ _______ _____ _____    ______ ____
ROOT
ATOM      1  C   UNL     1       2.983   5.802  19.226  0.00  0.00    +0.000 A 
ATOM      2  N   UNL     1       3.966   6.101  18.357  0.00  0.00    +0.000 NA
ATOM      3  C   UNL     1       4.319   5.174  17.459  0.00  0.00    +0.000 A 
ATOM      4  N   UNL     1       5.228   5.565  16.494  0.00  0.00    +0.000 N 
ATOM      5  N   UNL     1       3.792   3.951  17.405  0.00  0.00    +0.000 NA
ATOM      6  C   UNL     1       2.789   3.668  18.228  0.00  0.00    +0.000 A 
ATOM      7  C   UNL     1       2.157   2.436  18.092  0.00  0.00    +0.000 A 
ATOM      8  C   UNL     1       1.054   2.074  18.866  0.00  0.00    +0.000 A 
ATOM      9  C   UNL     1       0.572   2.951  19.825  0.00  0.00    +0.000 A 
ATOM     10  C   UNL     1       1.206   4.179  20.005  0.00  0.00    +0.000 A 
ATOM     11  C   UNL     1       2.319   4.553  19.196  0.00  0.00    +0.000 A 
ATOM     12  H   UNL     1       5.609   6.473  16.733  0.00  0.00    +0.000 HD
ENDROOT
BRANCH   4  13
ATOM     13  C   UNL     1       6.129   4.563  15.934  0.00  0.00    +0.000 C 
ATOM     14  C   UNL     1       6.479   4.942  14.495  0.00  0.00    +0.000 C 
ATOM     15  C   UNL     1       7.410   4.512  16.770  0.00  0.00    +0.000 C 
ENDBRANCH   4  13
BRANCH   1  16
ATOM     16  N   UNL     1       2.671   6.743  20.245  0.00  0.00    +0.000 N 
ATOM     17  H   UNL     1       2.186   6.280  21.004  0.00  0.00    +0.000 HD
BRANCH  16  19
ATOM     18  C   UNL     1       1.134   8.503  20.941  0.00  0.00    +0.000 C 
ATOM     19  C   UNL     1       1.893   7.886  19.774  0.00  0.00    +0.000 C 
ENDBRANCH  16  19
ENDBRANCH   1  16
TORSDOF 3
ENDMDL
MODEL 3
REMARK VINA RESULT:      -6.8      2.518      5.645
REMARK  Name = 
REMARK  6 active torsions:
REMARK  status: ('A' for Active; 'I' for Inactive)
REMARK    1  A    between atoms: C_1  and  C_2
REMARK    2  A    between atoms: C_2  and  N_3
REMARK    3  A    between atoms: N_3  and  C_4
REMARK    4  A    between atoms: N_7  and  C_8
REMARK    5  A    between atoms: C_8  and  C_9
REMARK    6  A    between atoms: C_8  and  C_10
REMARK                            x       y       z     vdW  Elec       q    Type
REMARK                         _______ _______ _______ _____ _____    ______ ____
ROOT
ATOM      1  C   UNL     1       6.576   4.415  18.084  0.00  0.00    +0.000 A 
ATOM      2  N   UNL     1       5.638   4.048  18.977  0.00  0.00    +0.000 NA
ATOM      3  C   UNL     1       4.419   3.738  18.521  0.00  0.00    +0.000 A 
ATOM      4  N   UNL     1       3.526   3.230  19.446  0.00  0.00    +0.000 N 
ATOM      5  N   UNL     1       4.060   3.820  17.240  0.00  0.00    +0.000 NA
ATOM      6  C   UNL     1       4.994   4.135  16.351  0.00  0.00    +0.000 A 
ATOM      7  C   UNL     1       4.652   4.103  15.002  0.00  0.00    +0.000 A 
ATOM      8  C   UNL     1       5.580   4.354  13.991  0.00  0.00    +0.000 A 
ATOM      9  C   UNL     1       6.887   4.671  14.324  0.00  0.00    +0.000 A 
ATOM     10  C   UNL     1       7.250   4.742  15.668  0.00  0.00    +0.000 A 
ATOM     11  C   UNL     1       6.303   4.462  16.697  0.00  0.00    +0.000 A 
ATOM     12  H   UNL     1       3.907   3.330  20.379  0.00  0.00    +0.000 HD
ENDROOT
BRANCH   4  13
ATOM     13  C   UNL     1       2.100   3.476  19.251  0.00  0.00    +0.000 C 
ATOM     14  C   UNL     1       1.393   2.153  18.955  0.00  0.00    +0.000 C 
ATOM     15  C   UNL     1       1.516   4.090  20.525  0.00  0.00    +0.000 C 
ENDBRANCH   4  13
BRANCH   1  16
ATOM     16  N   UNL     1       7.843   4.841  18.569  0.00  0.00    +0.000 N 
ATOM     17  H   UNL     1       8.230   4.136  19.185  0.00  0.00    +0.000 HD
BRANCH  16  19
ATOM     18  C   UNL     1       7.833   7.251  18.204  0.00  0.00    +0.000 C 
ATOM     19  C   UNL     1       7.810   6.137  19.242  0.00  0.00    +0.000 C 
ENDBRANCH  16  19
ENDBRANCH   1  16
TORSDOF 3
ENDMDL
MODEL 4
REMARK VINA RESULT:      -6.7      2.550      6.081
REMARK  Name = 
REMARK  6 active torsions:
REMARK  status: ('A' for Active; 'I' for Inactive)
REMARK    1  A    between atoms: C_1  and  C_2
REMARK    2  A    between atoms: C_2  and  N_3
REMARK    3  A    between atoms: N_3  and  C_4
REMARK    4  A    between atoms: N_7  and  C_8
REMARK    5  A    between atoms: C_8  and  C_9
REMARK    6  A    between atoms: C_8  and  C_10
REMARK                            x       y       z     vdW  Elec       q    Type
REMARK                         _______ _______ _______ _____ _____    ______ ____
ROOT
ATOM      1  C   UNL     1       6.741   5.538  16.036  0.00  0.00    +0.000 A 
ATOM      2  N   UNL     1       5.857   5.137  16.969  0.00  0.00    +0.000 NA
ATOM      3  C   UNL     1       4.926   4.244  16.614  0.00  0.00    +0.000 A 
ATOM      4  N   UNL     1       4.128   3.749  17.629  0.00  0.00    +0.000 N 
ATOM      5  N   UNL     1       4.786   3.766  15.378  0.00  0.00    +0.000 NA
ATOM      6  C   UNL     1       5.684   4.122  14.467  0.00  0.00    +0.000 A 
ATOM      7  C   UNL     1       5.613   3.529  13.210  0.00  0.00    +0.000 A 
ATOM      8  C   UNL     1       6.549   3.789  12.209  0.00  0.00    +0.000 A 
ATOM      9  C   UNL     1       7.579   4.683  12.450  0.00  0.00    +0.000 A 
ATOM     10  C   UNL     1       7.658   5.316  13.689  0.00  0.00    +0.000 A 
ATOM     11  C   UNL     1       6.711   5.029  14.717  0.00  0.00    +0.000 A 
ATOM     12  H   UNL     1       4.283   4.283  18.476  0.00  0.00    +0.000 HD
ENDROOT
BRANCH   4  13
ATOM     13  C   UNL     1       2.765   3.338  17.310  0.00  0.00    +0.000 C 
ATOM     14  C   UNL     1       2.438   2.043  18.054  0.00  0.00    +0.000 C 
ATOM     15  C   UNL     1       1.792   4.434  17.750  0.00  0.00    +0.000 C 
ENDBRANCH   4  13
BRANCH   1  16
ATOM     16  N   UNL     1       7.670   6.559  16.378  0.00  0.00    +0.000 N 
ATOM     17  H   UNL     1       8.615   6.215  16.266  0.00  0.00    +0.000 HD
BRANCH  16  19
ATOM     18  C   UNL     1       8.041   8.514  17.787  0.00  0.00    +0.000 C 
ATOM     19  C   UNL     1       7.485   7.098  17.724  0.00  0.00    +0.000 C 
ENDBRANCH  16  19
ENDBRANCH   1  16
TORSDOF 3
ENDMDL
MODEL 5
REMARK VINA RESULT:      -6.6      1.372      4.691
REMARK  Name = 
REMARK  6 active torsions:
REMARK  status: ('A' for Active; 'I' for Inactive)
REMARK    1  A    between atoms: C_1  and  C_2
REMARK    2  A    between atoms: C_2  and  N_3
REMARK    3  A    between atoms: N_3  and  C_4
REMARK    4  A    between atoms: N_7  and  C_8
REMARK    5  A    between atoms: C_8  and  C_9
REMARK    6  A    between atoms: C_8  and  C_10
REMARK                            x       y       z     vdW  Elec       q    Type
REMARK                         _______ _______ _______ _____ _____    ______ ____
ROOT
ATOM      1  C   UNL     1       3.517   6.724  17.972  0.00  0.00    +0.000 A 
ATOM      2  N   UNL     1       2.909   6.173  19.039  0.00  0.00    +0.000 NA
ATOM      3  C   UNL     1       3.036   4.854  19.227  0.00  0.00    +0.000 A 
ATOM      4  N   UNL     1       2.521   4.347  20.405  0.00  0.00    +0.000 N 
ATOM      5  N   UNL     1       3.684   4.043  18.392  0.00  0.00    +0.000 NA
ATOM      6  C   UNL     1       4.325   4.588  17.365  0.00  0.00    +0.000 A 
ATOM      7  C   UNL     1       5.103   3.759  16.562  0.00  0.00    +0.000 A 
ATOM      8  C   UNL     1       5.864   4.249  15.500  0.00  0.00    +0.000 A 
ATOM      9  C   UNL     1       5.838   5.603  15.206  0.00  0.00    +0.000 A 
ATOM     10  C   UNL     1       5.043   6.452  15.974  0.00  0.00    +0.000 A 
ATOM     11  C   UNL     1       4.285   5.949  17.072  0.00  0.00    +0.000 A 
ATOM     12  H   UNL     1       1.974   5.060  20.873  0.00  0.00    +0.000 HD
ENDROOT
BRANCH   4  13
ATOM     13  C   UNL     1       2.026   2.975  20.419  0.00  0.00    +0.000 C 
ATOM     14  C   UNL     1       1.700   2.567  21.856  0.00  0.00    +0.000 C 
ATOM     15  C   UNL     1       0.758   2.887  19.567  0.00  0.00    +0.000 C 
ENDBRANCH   4  13
BRANCH   1  16
ATOM     16  N   UNL     1       3.305   8.106  17.711  0.00  0.00    +0.000 N 
ATOM     17  H   UNL     1       3.873   8.665  18.335  0.00  0.00    +0.000 HD
BRANCH  16  19
ATOM     18  C   UNL     1       1.828  10.007  18.094  0.00  0.00    +0.000 C 
ATOM     19  C   UNL     1       1.905   8.515  17.801  0.00  0.00    +0.000 C 
ENDBRANCH  16  19
ENDBRANCH   1  16
TORSDOF 3
ENDMDL
MODEL 6
REMARK VINA RESULT:      -6.5      1.632      1.764
REMARK  Name = 
REMARK  6 active torsions:
REMARK  status: ('A' for Active; 'I' for Inactive)
REMARK    1  A    between atoms: C_1  and  C_2
REMARK    2  A    between atoms: C_2  and  N_3
REMARK    3  A    between atoms: N_3  and  C_4
REMARK    4  A    between atoms: N_7  and  C_8
REMARK    5  A    between atoms: C_8  and  C_9
REMARK    6  A    between atoms: C_8  and  C_10
REMARK                            x       y       z     vdW  Elec       q    Type
REMARK                         _______ _______ _______ _____ _____    ______ ____
ROOT
ATOM      1  C   UNL     1       2.370   6.037  19.813  0.00  0.00    +0.000 A 
ATOM      2  N   UNL     1       3.335   6.637  19.092  0.00  0.00    +0.000 NA
ATOM      3  C   UNL     1       3.944   5.925  18.136  0.00  0.00    +0.000 A 
ATOM      4  N   UNL     1       4.826   6.612  17.323  0.00  0.00    +0.000 N 
ATOM      5  N   UNL     1       3.689   4.641  17.888  0.00  0.00    +0.000 NA
ATOM      6  C   UNL     1       2.705   4.059  18.564  0.00  0.00    +0.000 A 
ATOM      7  C   UNL     1       2.356   2.756  18.223  0.00  0.00    +0.000 A 
ATOM      8  C   UNL     1       1.295   2.084  18.829  0.00  0.00    +0.000 A 
ATOM      9  C   UNL     1       0.566   2.714  19.826  0.00  0.00    +0.000 A 
ATOM     10  C   UNL     1       0.913   4.008  20.211  0.00  0.00    +0.000 A 
ATOM     11  C   UNL     1       1.985   4.697  19.571  0.00  0.00    +0.000 A 
ATOM     12  H   UNL     1       4.989   7.537  17.702  0.00  0.00    +0.000 HD
ENDROOT
BRANCH   4  13
ATOM     13  C   UNL     1       5.957   5.890  16.750  0.00  0.00    +0.000 C 
ATOM     14  C   UNL     1       5.740   5.716  15.247  0.00  0.00    +0.000 C 
ATOM     15  C   UNL     1       7.240   6.692  16.988  0.00  0.00    +0.000 C 
ENDBRANCH   4  13
BRANCH   1  16
ATOM     16  N   UNL     1       1.788   6.754  20.894  0.00  0.00    +0.000 N 
ATOM     17  H   UNL     1       0.943   6.289  21.200  0.00  0.00    +0.000 HD
BRANCH  16  19
ATOM     18  C   UNL     1       1.173   8.899  21.876  0.00  0.00    +0.000 C 
ATOM     19  C   UNL     1       1.511   8.156  20.590  0.00  0.00    +0.000 C 
ENDBRANCH  16  19
ENDBRANCH   1  16
TORSDOF 3
ENDMDL
MODEL 7
REMARK VINA RESULT:      -6.5      3.015      4.166
REMARK  Name = 
REMARK  6 active torsions:
REMARK  status: ('A' for Active; 'I' for Inactive)
REMARK    1  A    between atoms: C_1  and  C_2
REMARK    2  A    between atoms: C_2  and  N_3
REMARK    3  A    between atoms: N_3  and  C_4
REMARK    4  A    between atoms: N_7  and  C_8
REMARK    5  A    between atoms: C_8  and  C_9
REMARK    6  A    between atoms: C_8  and  C_10
REMARK                            x       y       z     vdW  Elec       q    Type
REMARK                         _______ _______ _______ _____ _____    ______ ____
ROOT
ATOM      1  C   UNL     1       6.881   5.740  16.718  0.00  0.00    +0.000 A 
ATOM      2  N   UNL     1       7.100   5.539  15.406  0.00  0.00    +0.000 NA
ATOM      3  C   UNL     1       6.301   4.684  14.756  0.00  0.00    +0.000 A 
ATOM      4  N   UNL     1       6.463   4.611  13.385  0.00  0.00    +0.000 N 
ATOM      5  N   UNL     1       5.333   3.980  15.340  0.00  0.00    +0.000 NA
ATOM      6  C   UNL     1       5.083   4.210  16.624  0.00  0.00    +0.000 A 
ATOM      7  C   UNL     1       3.995   3.566  17.206  0.00  0.00    +0.000 A 
ATOM      8  C   UNL     1       3.613   3.794  18.528  0.00  0.00    +0.000 A 
ATOM      9  C   UNL     1       4.345   4.671  19.311  0.00  0.00    +0.000 A 
ATOM     10  C   UNL     1       5.459   5.307  18.764  0.00  0.00    +0.000 A 
ATOM     11  C   UNL     1       5.831   5.087  17.405  0.00  0.00    +0.000 A 
ATOM     12  H   UNL     1       7.296   5.117  13.112  0.00  0.00    +0.000 HD
ENDROOT
BRANCH   4  13
ATOM     13  C   UNL     1       6.167   3.350  12.712  0.00  0.00    +0.000 C 
ATOM     14  C   UNL     1       4.831   3.467  11.979  0.00  0.00    +0.000 C 
ATOM     15  C   UNL     1       7.276   3.047  11.701  0.00  0.00    +0.000 C 
ENDBRANCH   4  13
BRANCH   1  16
ATOM     16  N   UNL     1       7.787   6.569  17.437  0.00  0.00    +0.000 N 
ATOM     17  H   UNL     1       7.857   6.251  18.395  0.00  0.00    +0.000 HD
BRANCH  16  19
ATOM     18  C   UNL     1       8.450   8.779  18.223  0.00  0.00    +0.000 C 
ATOM     19  C   UNL     1       7.443   7.988  17.399  0.00  0.00    +0.000 C 
ENDBRANCH  16  19
ENDBRANCH   1  16
TORSDOF 3
ENDMDL
MODEL 8
REMARK VINA RESULT:      -6.4      1.704      4.726
REMARK  Name = 
REMARK  6 active torsions:
REMARK  status: ('A' for Active; 'I' for Inactive)
REMARK    1  A    between atoms: C_1  and  C_2
REMARK    2  A    between atoms: C_2  and  N_3
REMARK    3  A    between atoms: N_3  and  C_4
REMARK    4  A    between atoms: N_7  and  C_8
REMARK    5  A    between atoms: C_8  and  C_9
REMARK    6  A    between atoms: C_8  and  C_10
REMARK                            x       y       z     vdW  Elec       q    Type
REMARK                         _______ _______ _______ _____ _____    ______ ____
ROOT
ATOM      1  C   UNL     1       3.528   6.874  18.038  0.00  0.00    +0.000 A 
ATOM      2  N   UNL     1       2.602   6.230  18.773  0.00  0.00    +0.000 NA
ATOM      3  C   UNL     1       2.917   5.030  19.274  0.00  0.00    +0.000 A 
ATOM      4  N   UNL     1       2.000   4.463  20.138  0.00  0.00    +0.000 N 
ATOM      5  N   UNL     1       4.074   4.409  19.046  0.00  0.00    +0.000 NA
ATOM      6  C   UNL     1       5.007   5.061  18.362  0.00  0.00    +0.000 A 
ATOM      7  C   UNL     1       6.258   4.465  18.228  0.00  0.00    +0.000 A 
ATOM      8  C   UNL     1       7.321   5.099  17.584  0.00  0.00    +0.000 A 
ATOM      9  C   UNL     1       7.136   6.357  17.033  0.00  0.00    +0.000 A 
ATOM     10  C   UNL     1       5.885   6.964  17.125  0.00  0.00    +0.000 A 
ATOM     11  C   UNL     1       4.808   6.321  17.804  0.00  0.00    +0.000 A 
ATOM     12  H   UNL     1       1.140   4.999  20.123  0.00  0.00    +0.000 HD
ENDROOT
BRANCH   4  13
ATOM     13  C   UNL     1       1.907   3.008  20.205  0.00  0.00    +0.000 C 
ATOM     14  C   UNL     1       1.480   2.590  21.612  0.00  0.00    +0.000 C 
ATOM     15  C   UNL     1       0.866   2.522  19.194  0.00  0.00    +0.000 C 
ENDBRANCH   4  13
BRANCH   1  16
ATOM     16  N   UNL     1       3.166   8.103  17.420  0.00  0.00    +0.000 N 
ATOM     17  H   UNL     1       3.875   8.802  17.603  0.00  0.00    +0.000 HD
BRANCH  16  19
ATOM     18  C   UNL     1       1.918  10.109  18.022  0.00  0.00    +0.000 C 
ATOM     19  C   UNL     1       1.852   8.600  17.822  0.00  0.00    +0.000 C 
ENDBRANCH  16  19
ENDBRANCH   1  16
TORSDOF 3
ENDMDL
MODEL 9
REMARK VINA RESULT:      -6.3      1.632      3.773
REMARK  Name = 
REMARK  6 active torsions:
REMARK  status: ('A' for Active; 'I' for Inactive)
REMARK    1  A    between atoms: C_1  and  C_2
REMARK    2  A    between atoms: C_2  and  N_3
REMARK    3  A    between atoms: N_3  and  C_4
REMARK    4  A    between atoms: N_7  and  C_8
REMARK    5  A    between atoms: C_8  and  C_9
REMARK    6  A    between atoms: C_8  and  C_10
REMARK                            x       y       z     vdW  Elec       q    Type
REMARK                         _______ _______ _______ _____ _____    ______ ____
ROOT
ATOM      1  C   UNL     1       3.730   3.919  18.518  0.00  0.00    +0.000 A 
ATOM      2  N   UNL     1       4.578   3.524  17.549  0.00  0.00    +0.000 NA
ATOM      3  C   UNL     1       4.973   4.430  16.647  0.00  0.00    +0.000 A 
ATOM      4  N   UNL     1       5.950   4.028  15.757  0.00  0.00    +0.000 N 
ATOM      5  N   UNL     1       4.537   5.689  16.618  0.00  0.00    +0.000 NA
ATOM      6  C   UNL     1       3.739   6.096  17.598  0.00  0.00    +0.000 A 
ATOM      7  C   UNL     1       3.381   7.440  17.637  0.00  0.00    +0.000 A 
ATOM      8  C   UNL     1       2.601   7.975  18.663  0.00  0.00    +0.000 A 
ATOM      9  C   UNL     1       2.139   7.148  19.674  0.00  0.00    +0.000 A 
ATOM     10  C   UNL     1       2.455   5.791  19.643  0.00  0.00    +0.000 A 
ATOM     11  C   UNL     1       3.272   5.255  18.604  0.00  0.00    +0.000 A 
ATOM     12  H   UNL     1       6.095   3.029  15.838  0.00  0.00    +0.000 HD
ENDROOT
BRANCH   4  13
ATOM     13  C   UNL     1       5.972   4.624  14.425  0.00  0.00    +0.000 C 
ATOM     14  C   UNL     1       7.382   5.129  14.118  0.00  0.00    +0.000 C 
ATOM     15  C   UNL     1       5.576   3.567  13.392  0.00  0.00    +0.000 C 
ENDBRANCH   4  13
BRANCH   1  16
ATOM     16  N   UNL     1       3.229   2.940  19.419  0.00  0.00    +0.000 N 
ATOM     17  H   UNL     1       3.997   2.502  19.913  0.00  0.00    +0.000 HD
BRANCH  16  19
ATOM     18  C   UNL     1       0.940   2.378  18.798  0.00  0.00    +0.000 C 
ATOM     19  C   UNL     1       2.394   1.925  18.782  0.00  0.00    +0.000 C 
ENDBRANCH  16  19
ENDBRANCH   1  16
TORSDOF 3
ENDMDL
