MODEL 1
REMARK VINA RESULT:      -8.3      0.000      0.000
REMARK  Name = 
REMARK  7 active torsions:
REMARK  status: ('A' for Active; 'I' for Inactive)
REMARK    1  A    between atoms: C_1  and  C_2
REMARK    2  A    between atoms: C_2  and  O_3
REMARK    3  A    between atoms: C_2  and  C_13
REMARK    4  A    between atoms: O_3  and  C_4
REMARK    5  A    between atoms: C_10  and  C_11
REMARK    6  A    between atoms: N_15  and  C_16
REMARK    7  A    between atoms: C_21  and  C_22
REMARK                            x       y       z     vdW  Elec       q    Type
REMARK                         _______ _______ _______ _____ _____    ______ ____
ROOT
ATOM      1  C   UNL     1       2.288   4.124  17.922  0.00  0.00    +0.000 C 
ATOM      2  O   UNL     1       1.203   4.329  17.381  0.00  0.00    +0.000 OA
ATOM      3  N   UNL     1       2.921   4.995  18.804  0.00  0.00    +0.000 N 
ATOM      4  H   UNL     1       3.879   4.789  19.059  0.00  0.00    +0.000 HD
ENDROOT
BRANCH   3   5
ATOM      5  C   UNL     1       2.406   6.232  19.255  0.00  0.00    +0.000 A 
ATOM      6  C   UNL     1       1.809   6.387  20.517  0.00  0.00    +0.000 A 
ATOM      7  C   UNL     1       1.278   7.610  20.948  0.00  0.00    +0.000 A 
ATOM      8  C   UNL     1       1.378   8.653  20.045  0.00  0.00    +0.000 A 
ATOM      9  O   UNL     1       0.928   9.925  20.211  0.00  0.00    +0.000 OA
ATOM     10  C   UNL     1       1.264  10.553  19.039  0.00  0.00    +0.000 A 
ATOM     11  N   UNL     1       1.889   9.782  18.164  0.00  0.00    +0.000 NA
ATOM     12  C   UNL     1       1.967   8.565  18.796  0.00  0.00    +0.000 A 
ATOM     13  C   UNL     1       2.512   7.337  18.388  0.00  0.00    +0.000 A 
BRANCH  10  14
ATOM     14  C   UNL     1       0.885  11.959  18.937  0.00  0.00    +0.000 A 
ATOM     15  C   UNL     1       1.836  12.966  18.732  0.00  0.00    +0.000 A 
ATOM     16  C   UNL     1       1.407  14.278  18.636  0.00  0.00    +0.000 A 
ATOM     17  N   UNL     1       0.115  14.651  18.731  0.00  0.00    +0.000 NA
ATOM     18  C   UNL     1      -0.789  13.668  18.930  0.00  0.00    +0.000 A 
ATOM     19  C   UNL     1      -0.458  12.328  19.039  0.00  0.00    +0.000 A 
ENDBRANCH  10  14
ENDBRANCH   3   5
BRANCH   1  21
ATOM     20  C   UNL     1       2.671   1.771  18.642  0.00  0.00    +0.000 C 
ATOM     21  C   UNL     1       3.094   2.843  17.638  0.00  0.00    +0.000 C 
BRANCH  21  22
ATOM     22  O   UNL     1       4.468   3.209  17.795  0.00  0.00    +0.000 OA
BRANCH  22  23
ATOM     23  C   UNL     1       5.138   3.878  16.806  0.00  0.00    +0.000 A 
ATOM     24  C   UNL     1       4.918   3.704  15.434  0.00  0.00    +0.000 A 
ATOM     25  C   UNL     1       5.678   4.408  14.492  0.00  0.00    +0.000 A 
ATOM     26  C   UNL     1       6.664   5.295  14.911  0.00  0.00    +0.000 A 
ATOM     27  C   UNL     1       6.864   5.496  16.272  0.00  0.00    +0.000 A 
ATOM     28  F   UNL     1       7.803   6.378  16.652  0.00  0.00    +0.000 F 
ATOM     29  C   UNL     1       6.109   4.809  17.225  0.00  0.00    +0.000 A 
BRANCH  29  30
ATOM     30  C   UNL     1       6.338   5.088  18.613  0.00  0.00    +0.000 C 
ATOM     31  N   UNL     1       6.533   5.339  19.727  0.00  0.00    +0.000 NA
ENDBRANCH  29  30
ENDBRANCH  22  23
ENDBRANCH  21  22
ENDBRANCH   1  21
TORSDOF 6
ENDMDL
MODEL 2
REMARK VINA RESULT:      -8.0      2.040      2.418
REMARK  Name = 
REMARK  7 active torsions:
REMARK  status: ('A' for Active; 'I' for Inactive)
REMARK    1  A    between atoms: C_1  and  C_2
REMARK    2  A    between atoms: C_2  and  O_3
REMARK    3  A    between atoms: C_2  and  C_13
REMARK    4  A    between atoms: O_3  and  C_4
REMARK    5  A    between atoms: C_10  and  C_11
REMARK    6  A    between atoms: N_15  and  C_16
REMARK    7  A    between atoms: C_21  and  C_22
REMARK                            x       y       z     vdW  Elec       q    Type
REMARK                         _______ _______ _______ _____ _____    ______ ____
ROOT
ATOM      1  C   UNL     1       2.385   4.406  19.412  0.00  0.00    +0.000 C 
ATOM      2  O   UNL     1       1.223   4.257  19.041  0.00  0.00    +0.000 OA
ATOM      3  N   UNL     1       2.989   5.632  19.682  0.00  0.00    +0.000 N 
ATOM      4  H   UNL     1       3.991   5.639  19.824  0.00  0.00    +0.000 HD
ENDROOT
BRANCH   3   5
ATOM      5  C   UNL     1       2.357   6.895  19.620  0.00  0.00    +0.000 A 
ATOM      6  C   UNL     1       2.410   7.712  18.478  0.00  0.00    +0.000 A 
ATOM      7  C   UNL     1       1.803   8.973  18.432  0.00  0.00    +0.000 A 
ATOM      8  C   UNL     1       1.152   9.363  19.589  0.00  0.00    +0.000 A 
ATOM      9  O   UNL     1       0.505  10.538  19.807  0.00  0.00    +0.000 OA
ATOM     10  C   UNL     1       0.045  10.431  21.095  0.00  0.00    +0.000 A 
ATOM     11  N   UNL     1       0.346   9.289  21.691  0.00  0.00    +0.000 NA
ATOM     12  C   UNL     1       1.054   8.597  20.737  0.00  0.00    +0.000 A 
ATOM     13  C   UNL     1       1.651   7.328  20.759  0.00  0.00    +0.000 A 
BRANCH  10  14
ATOM     14  C   UNL     1      -0.697  11.579  21.606  0.00  0.00    +0.000 A 
ATOM     15  C   UNL     1      -0.851  12.750  20.855  0.00  0.00    +0.000 A 
ATOM     16  C   UNL     1      -1.574  13.799  21.397  0.00  0.00    +0.000 A 
ATOM     17  N   UNL     1      -2.143  13.761  22.619  0.00  0.00    +0.000 NA
ATOM     18  C   UNL     1      -1.982  12.626  23.331  0.00  0.00    +0.000 A 
ATOM     19  C   UNL     1      -1.278  11.525  22.876  0.00  0.00    +0.000 A 
ENDBRANCH  10  14
ENDBRANCH   3   5
BRANCH   1  21
ATOM     20  C   UNL     1       3.189   2.682  21.017  0.00  0.00    +0.000 C 
ATOM     21  C   UNL     1       3.330   3.204  19.588  0.00  0.00    +0.000 C 
BRANCH  21  22
ATOM     22  O   UNL     1       4.645   3.705  19.329  0.00  0.00    +0.000 OA
BRANCH  22  23
ATOM     23  C   UNL     1       5.017   4.096  18.071  0.00  0.00    +0.000 A 
ATOM     24  C   UNL     1       4.327   3.769  16.897  0.00  0.00    +0.000 A 
ATOM     25  C   UNL     1       4.803   4.185  15.648  0.00  0.00    +0.000 A 
ATOM     26  C   UNL     1       5.972   4.934  15.559  0.00  0.00    +0.000 A 
ATOM     27  C   UNL     1       6.643   5.289  16.723  0.00  0.00    +0.000 A 
ATOM     28  F   UNL     1       7.754   6.035  16.613  0.00  0.00    +0.000 F 
ATOM     29  C   UNL     1       6.177   4.890  17.978  0.00  0.00    +0.000 A 
BRANCH  29  30
ATOM     30  C   UNL     1       6.894   5.319  19.143  0.00  0.00    +0.000 C 
ATOM     31  N   UNL     1       7.452   5.658  20.101  0.00  0.00    +0.000 NA
ENDBRANCH  29  30
ENDBRANCH  22  23
ENDBRANCH  21  22
ENDBRANCH   1  21
TORSDOF 6
ENDMDL
MODEL 3
REMARK VINA RESULT:      -7.9      3.564      5.101
REMARK  Name = 
REMARK  7 active torsions:
REMARK  status: ('A' for Active; 'I' for Inactive)
REMARK    1  A    between atoms: C_1  and  C_2
REMARK    2  A    between atoms: C_2  and  O_3
REMARK    3  A    between atoms: C_2  and  C_13
REMARK    4  A    between atoms: O_3  and  C_4
REMARK    5  A    between atoms: C_10  and  C_11
REMARK    6  A    between atoms: N_15  and  C_16
REMARK    7  A    between atoms: C_21  and  C_22
REMARK                            x       y       z     vdW  Elec       q    Type
REMARK                         _______ _______ _______ _____ _____    ______ ____
ROOT
ATOM      1  C   UNL     1       2.365   8.011  18.393  0.00  0.00    +0.000 C 
ATOM      2  O   UNL     1       2.239   8.739  17.410  0.00  0.00    +0.000 OA
ATOM      3  N   UNL     1       1.770   8.228  19.633  0.00  0.00    +0.000 N 
ATOM      4  H   UNL     1       2.075   7.651  20.406  0.00  0.00    +0.000 HD
ENDROOT
BRANCH   3   5
ATOM      5  C   UNL     1       0.892   9.289  19.953  0.00  0.00    +0.000 A 
ATOM      6  C   UNL     1       0.179  10.002  18.975  0.00  0.00    +0.000 A 
ATOM      7  C   UNL     1      -0.671  11.068  19.298  0.00  0.00    +0.000 A 
ATOM      8  C   UNL     1      -0.756  11.374  20.644  0.00  0.00    +0.000 A 
ATOM      9  O   UNL     1      -1.489  12.368  21.212  0.00  0.00    +0.000 OA
ATOM     10  C   UNL     1      -1.225  12.252  22.554  0.00  0.00    +0.000 A 
ATOM     11  N   UNL     1      -0.397  11.269  22.866  0.00  0.00    +0.000 NA
ATOM     12  C   UNL     1      -0.090  10.700  21.653  0.00  0.00    +0.000 A 
ATOM     13  C   UNL     1       0.741   9.622  21.314  0.00  0.00    +0.000 A 
BRANCH  10  14
ATOM     14  C   UNL     1      -1.890  13.219  23.422  0.00  0.00    +0.000 A 
ATOM     15  C   UNL     1      -1.230  14.359  23.896  0.00  0.00    +0.000 A 
ATOM     16  C   UNL     1      -1.923  15.240  24.709  0.00  0.00    +0.000 A 
ATOM     17  N   UNL     1      -3.208  15.063  25.077  0.00  0.00    +0.000 NA
ATOM     18  C   UNL     1      -3.828  13.958  24.613  0.00  0.00    +0.000 A 
ATOM     19  C   UNL     1      -3.221  13.020  23.796  0.00  0.00    +0.000 A 
ENDBRANCH  10  14
ENDBRANCH   3   5
BRANCH   1  21
ATOM     20  C   UNL     1       4.460   7.047  17.453  0.00  0.00    +0.000 C 
ATOM     21  C   UNL     1       3.257   6.757  18.350  0.00  0.00    +0.000 C 
BRANCH  21  22
ATOM     22  O   UNL     1       2.432   5.715  17.817  0.00  0.00    +0.000 OA
BRANCH  22  23
ATOM     23  C   UNL     1       2.213   4.560  18.517  0.00  0.00    +0.000 A 
ATOM     24  C   UNL     1       1.233   4.398  19.504  0.00  0.00    +0.000 A 
ATOM     25  C   UNL     1       1.106   3.186  20.194  0.00  0.00    +0.000 A 
ATOM     26  C   UNL     1       1.956   2.124  19.904  0.00  0.00    +0.000 A 
ATOM     27  C   UNL     1       2.909   2.268  18.903  0.00  0.00    +0.000 A 
ATOM     28  F   UNL     1       3.699   1.220  18.622  0.00  0.00    +0.000 F 
ATOM     29  C   UNL     1       3.043   3.467  18.199  0.00  0.00    +0.000 A 
BRANCH  29  30
ATOM     30  C   UNL     1       4.021   3.541  17.152  0.00  0.00    +0.000 C 
ATOM     31  N   UNL     1       4.804   3.628  16.303  0.00  0.00    +0.000 NA
ENDBRANCH  29  30
ENDBRANCH  22  23
ENDBRANCH  21  22
ENDBRANCH   1  21
TORSDOF 6
ENDMDL
MODEL 4
REMARK VINA RESULT:      -7.9      2.784      4.150
REMARK  Name = 
REMARK  7 active torsions:
REMARK  status: ('A' for Active; 'I' for Inactive)
REMARK    1  A    between atoms: C_1  and  C_2
REMARK    2  A    between atoms: C_2  and  O_3
REMARK    3  A    between atoms: C_2  and  C_13
REMARK    4  A    between atoms: O_3  and  C_4
REMARK    5  A    between atoms: C_10  and  C_11
REMARK    6  A    between atoms: N_15  and  C_16
REMARK    7  A    between atoms: C_21  and  C_22
REMARK                            x       y       z     vdW  Elec       q    Type
REMARK                         _______ _______ _______ _____ _____    ______ ____
ROOT
ATOM      1  C   UNL     1       4.422   5.562  17.784  0.00  0.00    +0.000 C 
ATOM      2  O   UNL     1       4.373   6.045  16.655  0.00  0.00    +0.000 OA
ATOM      3  N   UNL     1       3.772   6.074  18.904  0.00  0.00    +0.000 N 
ATOM      4  H   UNL     1       4.015   5.683  19.806  0.00  0.00    +0.000 HD
ENDROOT
BRANCH   3   5
ATOM      5  C   UNL     1       2.919   7.201  18.921  0.00  0.00    +0.000 A 
ATOM      6  C   UNL     1       2.814   8.086  17.835  0.00  0.00    +0.000 A 
ATOM      7  C   UNL     1       1.985   9.215  17.868  0.00  0.00    +0.000 A 
ATOM      8  C   UNL     1       1.280   9.401  19.044  0.00  0.00    +0.000 A 
ATOM      9  O   UNL     1       0.429  10.421  19.335  0.00  0.00    +0.000 OA
ATOM     10  C   UNL     1       0.004  10.146  20.611  0.00  0.00    +0.000 A 
ATOM     11  N   UNL     1       0.514   9.042  21.132  0.00  0.00    +0.000 NA
ATOM     12  C   UNL     1       1.331   8.557  20.139  0.00  0.00    +0.000 A 
ATOM     13  C   UNL     1       2.152   7.420  20.082  0.00  0.00    +0.000 A 
BRANCH  10  14
ATOM     14  C   UNL     1      -0.933  11.103  21.191  0.00  0.00    +0.000 A 
ATOM     15  C   UNL     1      -1.641  12.014  20.399  0.00  0.00    +0.000 A 
ATOM     16  C   UNL     1      -2.521  12.888  21.014  0.00  0.00    +0.000 A 
ATOM     17  N   UNL     1      -2.738  12.917  22.345  0.00  0.00    +0.000 NA
ATOM     18  C   UNL     1      -2.045  12.034  23.094  0.00  0.00    +0.000 A 
ATOM     19  C   UNL     1      -1.144  11.121  22.572  0.00  0.00    +0.000 A 
ENDBRANCH  10  14
ENDBRANCH   3   5
BRANCH   1  21
ATOM     20  C   UNL     1       6.481   4.312  17.154  0.00  0.00    +0.000 C 
ATOM     21  C   UNL     1       5.267   4.310  18.082  0.00  0.00    +0.000 C 
BRANCH  21  22
ATOM     22  O   UNL     1       4.405   3.194  17.832  0.00  0.00    +0.000 OA
BRANCH  22  23
ATOM     23  C   UNL     1       3.157   3.127  18.388  0.00  0.00    +0.000 A 
ATOM     24  C   UNL     1       1.974   3.510  17.743  0.00  0.00    +0.000 A 
ATOM     25  C   UNL     1       0.743   3.440  18.406  0.00  0.00    +0.000 A 
ATOM     26  C   UNL     1       0.680   2.985  19.719  0.00  0.00    +0.000 A 
ATOM     27  C   UNL     1       1.847   2.572  20.353  0.00  0.00    +0.000 A 
ATOM     28  F   UNL     1       1.756   2.111  21.610  0.00  0.00    +0.000 F 
ATOM     29  C   UNL     1       3.082   2.628  19.703  0.00  0.00    +0.000 A 
BRANCH  29  30
ATOM     30  C   UNL     1       4.243   2.153  20.398  0.00  0.00    +0.000 C 
ATOM     31  N   UNL     1       5.197   1.786  20.943  0.00  0.00    +0.000 NA
ENDBRANCH  29  30
ENDBRANCH  22  23
ENDBRANCH  21  22
ENDBRANCH   1  21
TORSDOF 6
ENDMDL
MODEL 5
REMARK VINA RESULT:      -7.8      2.219      3.642
REMARK  Name = 
REMARK  7 active torsions:
REMARK  status: ('A' for Active; 'I' for Inactive)
REMARK    1  A    between atoms: C_1  and  C_2
REMARK    2  A    between atoms: C_2  and  O_3
REMARK    3  A    between atoms: C_2  and  C_13
REMARK    4  A    between atoms: O_3  and  C_4
REMARK    5  A    between atoms: C_10  and  C_11
REMARK    6  A    between atoms: N_15  and  C_16
REMARK    7  A    between atoms: C_21  and  C_22
REMARK                            x       y       z     vdW  Elec       q    Type
REMARK                         _______ _______ _______ _____ _____    ______ ____
ROOT
ATOM      1  C   UNL     1       4.560   5.229  18.521  0.00  0.00    +0.000 C 
ATOM      2  O   UNL     1       5.050   5.400  19.636  0.00  0.00    +0.000 OA
ATOM      3  N   UNL     1       3.461   5.918  18.015  0.00  0.00    +0.000 N 
ATOM      4  H   UNL     1       3.053   5.580  17.152  0.00  0.00    +0.000 HD
ENDROOT
BRANCH   3   5
ATOM      5  C   UNL     1       2.759   6.953  18.674  0.00  0.00    +0.000 A 
ATOM      6  C   UNL     1       2.194   6.789  19.950  0.00  0.00    +0.000 A 
ATOM      7  C   UNL     1       1.478   7.811  20.587  0.00  0.00    +0.000 A 
ATOM      8  C   UNL     1       1.360   8.990  19.873  0.00  0.00    +0.000 A 
ATOM      9  O   UNL     1       0.704  10.116  20.256  0.00  0.00    +0.000 OA
ATOM     10  C   UNL     1       0.880  10.979  19.204  0.00  0.00    +0.000 A 
ATOM     11  N   UNL     1       1.593  10.486  18.205  0.00  0.00    +0.000 NA
ATOM     12  C   UNL     1       1.906   9.214  18.621  0.00  0.00    +0.000 A 
ATOM     13  C   UNL     1       2.637   8.187  18.006  0.00  0.00    +0.000 A 
BRANCH  10  14
ATOM     14  C   UNL     1       0.261  12.293  19.345  0.00  0.00    +0.000 A 
ATOM     15  C   UNL     1      -0.900  12.483  20.103  0.00  0.00    +0.000 A 
ATOM     16  C   UNL     1      -1.430  13.758  20.202  0.00  0.00    +0.000 A 
ATOM     17  N   UNL     1      -0.892  14.840  19.604  0.00  0.00    +0.000 NA
ATOM     18  C   UNL     1       0.226  14.639  18.874  0.00  0.00    +0.000 A 
ATOM     19  C   UNL     1       0.830  13.403  18.716  0.00  0.00    +0.000 A 
ENDBRANCH  10  14
ENDBRANCH   3   5
BRANCH   1  21
ATOM     20  C   UNL     1       4.820   4.612  16.123  0.00  0.00    +0.000 C 
ATOM     21  C   UNL     1       5.121   4.170  17.555  0.00  0.00    +0.000 C 
BRANCH  21  22
ATOM     22  O   UNL     1       4.452   2.950  17.889  0.00  0.00    +0.000 OA
BRANCH  22  23
ATOM     23  C   UNL     1       3.216   2.960  18.479  0.00  0.00    +0.000 A 
ATOM     24  C   UNL     1       2.030   3.342  17.839  0.00  0.00    +0.000 A 
ATOM     25  C   UNL     1       0.815   3.355  18.535  0.00  0.00    +0.000 A 
ATOM     26  C   UNL     1       0.773   2.985  19.876  0.00  0.00    +0.000 A 
ATOM     27  C   UNL     1       1.942   2.574  20.506  0.00  0.00    +0.000 A 
ATOM     28  F   UNL     1       1.870   2.196  21.792  0.00  0.00    +0.000 F 
ATOM     29  C   UNL     1       3.160   2.547  19.824  0.00  0.00    +0.000 A 
BRANCH  29  30
ATOM     30  C   UNL     1       4.324   2.078  20.519  0.00  0.00    +0.000 C 
ATOM     31  N   UNL     1       5.250   1.701  21.105  0.00  0.00    +0.000 NA
ENDBRANCH  29  30
ENDBRANCH  22  23
ENDBRANCH  21  22
ENDBRANCH   1  21
TORSDOF 6
ENDMDL
MODEL 6
REMARK VINA RESULT:      -7.8      3.307      5.029
REMARK  Name = 
REMARK  7 active torsions:
REMARK  status: ('A' for Active; 'I' for Inactive)
REMARK    1  A    between atoms: C_1  and  C_2
REMARK    2  A    between atoms: C_2  and  O_3
REMARK    3  A    between atoms: C_2  and  C_13
REMARK    4  A    between atoms: O_3  and  C_4
REMARK    5  A    between atoms: C_10  and  C_11
REMARK    6  A    between atoms: N_15  and  C_16
REMARK    7  A    between atoms: C_21  and  C_22
REMARK                            x       y       z     vdW  Elec       q    Type
REMARK                         _______ _______ _______ _____ _____    ______ ____
ROOT
ATOM      1  C   UNL     1       2.378   7.597  18.807  0.00  0.00    +0.000 C 
ATOM      2  O   UNL     1       1.981   7.514  19.968  0.00  0.00    +0.000 OA
ATOM      3  N   UNL     1       1.919   8.517  17.868  0.00  0.00    +0.000 N 
ATOM      4  H   UNL     1       2.204   8.385  16.906  0.00  0.00    +0.000 HD
ENDROOT
BRANCH   3   5
ATOM      5  C   UNL     1       0.962   9.531  18.104  0.00  0.00    +0.000 A 
ATOM      6  C   UNL     1       1.301  10.779  18.652  0.00  0.00    +0.000 A 
ATOM      7  C   UNL     1       0.343  11.769  18.906  0.00  0.00    +0.000 A 
ATOM      8  C   UNL     1      -0.960  11.433  18.585  0.00  0.00    +0.000 A 
ATOM      9  O   UNL     1      -2.068  12.203  18.750  0.00  0.00    +0.000 OA
ATOM     10  C   UNL     1      -3.092  11.416  18.287  0.00  0.00    +0.000 A 
ATOM     11  N   UNL     1      -2.714  10.228  17.845  0.00  0.00    +0.000 NA
ATOM     12  C   UNL     1      -1.352  10.228  18.030  0.00  0.00    +0.000 A 
ATOM     13  C   UNL     1      -0.377   9.254  17.764  0.00  0.00    +0.000 A 
BRANCH  10  14
ATOM     14  C   UNL     1      -4.428  12.002  18.354  0.00  0.00    +0.000 A 
ATOM     15  C   UNL     1      -4.921  12.581  19.529  0.00  0.00    +0.000 A 
ATOM     16  C   UNL     1      -6.193  13.126  19.520  0.00  0.00    +0.000 A 
ATOM     17  N   UNL     1      -6.996  13.131  18.437  0.00  0.00    +0.000 NA
ATOM     18  C   UNL     1      -6.506  12.567  17.313  0.00  0.00    +0.000 A 
ATOM     19  C   UNL     1      -5.248  11.997  17.223  0.00  0.00    +0.000 A 
ENDBRANCH  10  14
ENDBRANCH   3   5
BRANCH   1  21
ATOM     20  C   UNL     1       4.386   7.417  17.347  0.00  0.00    +0.000 C 
ATOM     21  C   UNL     1       3.440   6.630  18.253  0.00  0.00    +0.000 C 
BRANCH  21  22
ATOM     22  O   UNL     1       2.713   5.633  17.529  0.00  0.00    +0.000 OA
BRANCH  22  23
ATOM     23  C   UNL     1       2.433   4.416  18.090  0.00  0.00    +0.000 A 
ATOM     24  C   UNL     1       1.328   4.149  18.907  0.00  0.00    +0.000 A 
ATOM     25  C   UNL     1       1.143   2.879  19.467  0.00  0.00    +0.000 A 
ATOM     26  C   UNL     1       2.058   1.862  19.215  0.00  0.00    +0.000 A 
ATOM     27  C   UNL     1       3.139   2.113  18.378  0.00  0.00    +0.000 A 
ATOM     28  F   UNL     1       3.994   1.109  18.128  0.00  0.00    +0.000 F 
ATOM     29  C   UNL     1       3.335   3.371  17.804  0.00  0.00    +0.000 A 
BRANCH  29  30
ATOM     30  C   UNL     1       4.449   3.556  16.920  0.00  0.00    +0.000 C 
ATOM     31  N   UNL     1       5.331   3.713  16.186  0.00  0.00    +0.000 NA
ENDBRANCH  29  30
ENDBRANCH  22  23
ENDBRANCH  21  22
ENDBRANCH   1  21
TORSDOF 6
ENDMDL
MODEL 7
REMARK VINA RESULT:      -7.7      3.512      4.873
REMARK  Name = 
REMARK  7 active torsions:
REMARK  status: ('A' for Active; 'I' for Inactive)
REMARK    1  A    between atoms: C_1  and  C_2
REMARK    2  A    between atoms: C_2  and  O_3
REMARK    3  A    between atoms: C_2  and  C_13
REMARK    4  A    between atoms: O_3  and  C_4
REMARK    5  A    between atoms: C_10  and  C_11
REMARK    6  A    between atoms: N_15  and  C_16
REMARK    7  A    between atoms: C_21  and  C_22
REMARK                            x       y       z     vdW  Elec       q    Type
REMARK                         _______ _______ _______ _____ _____    ______ ____
ROOT
ATOM      1  C   UNL     1       2.670   7.879  18.177  0.00  0.00    +0.000 C 
ATOM      2  O   UNL     1       2.632   8.676  17.241  0.00  0.00    +0.000 OA
ATOM      3  N   UNL     1       1.986   8.025  19.381  0.00  0.00    +0.000 N 
ATOM      4  H   UNL     1       2.221   7.388  20.132  0.00  0.00    +0.000 HD
ENDROOT
BRANCH   3   5
ATOM      5  C   UNL     1       1.106   9.081  19.709  0.00  0.00    +0.000 A 
ATOM      6  C   UNL     1       0.435   9.837  18.733  0.00  0.00    +0.000 A 
ATOM      7  C   UNL     1      -0.417  10.898  19.064  0.00  0.00    +0.000 A 
ATOM      8  C   UNL     1      -0.548  11.156  20.417  0.00  0.00    +0.000 A 
ATOM      9  O   UNL     1      -1.293  12.135  20.995  0.00  0.00    +0.000 OA
ATOM     10  C   UNL     1      -1.079  11.968  22.340  0.00  0.00    +0.000 A 
ATOM     11  N   UNL     1      -0.270  10.966  22.645  0.00  0.00    +0.000 NA
ATOM     12  C   UNL     1       0.075  10.439  21.423  0.00  0.00    +0.000 A 
ATOM     13  C   UNL     1       0.909   9.366  21.074  0.00  0.00    +0.000 A 
BRANCH  10  14
ATOM     14  C   UNL     1      -1.766  12.909  23.218  0.00  0.00    +0.000 A 
ATOM     15  C   UNL     1      -1.155  14.090  23.656  0.00  0.00    +0.000 A 
ATOM     16  C   UNL     1      -1.868  14.942  24.481  0.00  0.00    +0.000 A 
ATOM     17  N   UNL     1      -3.128  14.701  24.896  0.00  0.00    +0.000 NA
ATOM     18  C   UNL     1      -3.701  13.557  24.468  0.00  0.00    +0.000 A 
ATOM     19  C   UNL     1      -3.071  12.642  23.641  0.00  0.00    +0.000 A 
ENDBRANCH  10  14
ENDBRANCH   3   5
BRANCH   1  21
ATOM     20  C   UNL     1       4.652   6.836  17.090  0.00  0.00    +0.000 C 
ATOM     21  C   UNL     1       3.539   6.610  18.112  0.00  0.00    +0.000 C 
BRANCH  21  22
ATOM     22  O   UNL     1       2.654   5.557  17.715  0.00  0.00    +0.000 OA
BRANCH  22  23
ATOM     23  C   UNL     1       2.896   4.259  18.075  0.00  0.00    +0.000 A 
ATOM     24  C   UNL     1       3.565   3.321  17.278  0.00  0.00    +0.000 A 
ATOM     25  C   UNL     1       3.734   2.002  17.716  0.00  0.00    +0.000 A 
ATOM     26  C   UNL     1       3.239   1.607  18.954  0.00  0.00    +0.000 A 
ATOM     27  C   UNL     1       2.604   2.542  19.763  0.00  0.00    +0.000 A 
ATOM     28  F   UNL     1       2.159   2.143  20.965  0.00  0.00    +0.000 F 
ATOM     29  C   UNL     1       2.433   3.864  19.345  0.00  0.00    +0.000 A 
BRANCH  29  30
ATOM     30  C   UNL     1       1.802   4.789  20.241  0.00  0.00    +0.000 C 
ATOM     31  N   UNL     1       1.316   5.552  20.965  0.00  0.00    +0.000 NA
ENDBRANCH  29  30
ENDBRANCH  22  23
ENDBRANCH  21  22
ENDBRANCH   1  21
TORSDOF 6
ENDMDL
MODEL 8
REMARK VINA RESULT:      -7.7      2.175      2.633
REMARK  Name = 
REMARK  7 active torsions:
REMARK  status: ('A' for Active; 'I' for Inactive)
REMARK    1  A    between atoms: C_1  and  C_2
REMARK    2  A    between atoms: C_2  and  O_3
REMARK    3  A    between atoms: C_2  and  C_13
REMARK    4  A    between atoms: O_3  and  C_4
REMARK    5  A    between atoms: C_10  and  C_11
REMARK    6  A    between atoms: N_15  and  C_16
REMARK    7  A    between atoms: C_21  and  C_22
REMARK                            x       y       z     vdW  Elec       q    Type
REMARK                         _______ _______ _______ _____ _____    ______ ____
ROOT
ATOM      1  C   UNL     1       2.056   4.720  19.925  0.00  0.00    +0.000 C 
ATOM      2  O   UNL     1       0.834   4.587  19.967  0.00  0.00    +0.000 OA
ATOM      3  N   UNL     1       2.725   5.931  19.773  0.00  0.00    +0.000 N 
ATOM      4  H   UNL     1       3.721   5.896  19.593  0.00  0.00    +0.000 HD
ENDROOT
BRANCH   3   5
ATOM      5  C   UNL     1       2.119   7.205  19.689  0.00  0.00    +0.000 A 
ATOM      6  C   UNL     1       2.204   8.009  18.540  0.00  0.00    +0.000 A 
ATOM      7  C   UNL     1       1.622   9.281  18.473  0.00  0.00    +0.000 A 
ATOM      8  C   UNL     1       0.962   9.695  19.617  0.00  0.00    +0.000 A 
ATOM      9  O   UNL     1       0.335  10.885  19.814  0.00  0.00    +0.000 OA
ATOM     10  C   UNL     1      -0.145  10.800  21.096  0.00  0.00    +0.000 A 
ATOM     11  N   UNL     1       0.125   9.658  21.708  0.00  0.00    +0.000 NA
ATOM     12  C   UNL     1       0.833   8.944  20.771  0.00  0.00    +0.000 A 
ATOM     13  C   UNL     1       1.405   7.663  20.814  0.00  0.00    +0.000 A 
BRANCH  10  14
ATOM     14  C   UNL     1      -0.872  11.967  21.585  0.00  0.00    +0.000 A 
ATOM     15  C   UNL     1      -1.121  12.163  22.948  0.00  0.00    +0.000 A 
ATOM     16  C   UNL     1      -1.809  13.297  23.344  0.00  0.00    +0.000 A 
ATOM     17  N   UNL     1      -2.261  14.234  22.486  0.00  0.00    +0.000 NA
ATOM     18  C   UNL     1      -2.015  14.029  21.175  0.00  0.00    +0.000 A 
ATOM     19  C   UNL     1      -1.336  12.927  20.682  0.00  0.00    +0.000 A 
ENDBRANCH  10  14
ENDBRANCH   3   5
BRANCH   1  21
ATOM     20  C   UNL     1       2.922   2.928  21.421  0.00  0.00    +0.000 C 
ATOM     21  C   UNL     1       2.996   3.503  20.007  0.00  0.00    +0.000 C 
BRANCH  21  22
ATOM     22  O   UNL     1       4.302   4.003  19.701  0.00  0.00    +0.000 OA
BRANCH  22  23
ATOM     23  C   UNL     1       4.763   4.031  18.412  0.00  0.00    +0.000 A 
ATOM     24  C   UNL     1       4.044   3.582  17.298  0.00  0.00    +0.000 A 
ATOM     25  C   UNL     1       4.613   3.617  16.019  0.00  0.00    +0.000 A 
ATOM     26  C   UNL     1       5.903   4.104  15.840  0.00  0.00    +0.000 A 
ATOM     27  C   UNL     1       6.609   4.582  16.938  0.00  0.00    +0.000 A 
ATOM     28  F   UNL     1       7.842   5.072  16.736  0.00  0.00    +0.000 F 
ATOM     29  C   UNL     1       6.053   4.562  18.220  0.00  0.00    +0.000 A 
BRANCH  29  30
ATOM     30  C   UNL     1       6.817   5.104  19.306  0.00  0.00    +0.000 C 
ATOM     31  N   UNL     1       7.452   5.520  20.181  0.00  0.00    +0.000 NA
ENDBRANCH  29  30
ENDBRANCH  22  23
ENDBRANCH  21  22
ENDBRANCH   1  21
TORSDOF 6
ENDMDL
MODEL 9
REMARK VINA RESULT:      -7.7      4.138     10.134
REMARK  Name = 
REMARK  7 active torsions:
REMARK  status: ('A' for Active; 'I' for Inactive)
REMARK    1  A    between atoms: C_1  and  C_2
REMARK    2  A    between atoms: C_2  and  O_3
REMARK    3  A    between atoms: C_2  and  C_13
REMARK    4  A    between atoms: O_3  and  C_4
REMARK    5  A    between atoms: C_10  and  C_11
REMARK    6  A    between atoms: N_15  and  C_16
REMARK    7  A    between atoms: C_21  and  C_22
REMARK                            x       y       z     vdW  Elec       q    Type
REMARK                         _______ _______ _______ _____ _____    ______ ____
ROOT
ATOM      1  C   UNL     1      -0.869  11.842  19.275  0.00  0.00    +0.000 C 
ATOM      2  O   UNL     1      -1.456  11.193  18.411  0.00  0.00    +0.000 OA
ATOM      3  N   UNL     1       0.201  11.379  20.036  0.00  0.00    +0.000 N 
ATOM      4  H   UNL     1       0.496  11.944  20.822  0.00  0.00    +0.000 HD
ENDROOT
BRANCH   3   5
ATOM      5  C   UNL     1       0.815  10.111  19.913  0.00  0.00    +0.000 A 
ATOM      6  C   UNL     1       0.806   9.162  20.949  0.00  0.00    +0.000 A 
ATOM      7  C   UNL     1       1.438   7.918  20.828  0.00  0.00    +0.000 A 
ATOM      8  C   UNL     1       2.076   7.689  19.622  0.00  0.00    +0.000 A 
ATOM      9  O   UNL     1       2.773   6.579  19.264  0.00  0.00    +0.000 OA
ATOM     10  C   UNL     1       3.204   6.852  17.990  0.00  0.00    +0.000 A 
ATOM     11  N   UNL     1       2.829   8.033  17.527  0.00  0.00    +0.000 NA
ATOM     12  C   UNL     1       2.107   8.577  18.562  0.00  0.00    +0.000 A 
ATOM     13  C   UNL     1       1.452   9.811  18.692  0.00  0.00    +0.000 A 
BRANCH  10  14
ATOM     14  C   UNL     1       4.001   5.812  17.348  0.00  0.00    +0.000 A 
ATOM     15  C   UNL     1       3.773   4.452  17.591  0.00  0.00    +0.000 A 
ATOM     16  C   UNL     1       4.560   3.518  16.942  0.00  0.00    +0.000 A 
ATOM     17  N   UNL     1       5.547   3.840  16.082  0.00  0.00    +0.000 NA
ATOM     18  C   UNL     1       5.756   5.155  15.860  0.00  0.00    +0.000 A 
ATOM     19  C   UNL     1       5.021   6.163  16.461  0.00  0.00    +0.000 A 
ENDBRANCH  10  14
ENDBRANCH   3   5
BRANCH   1  21
ATOM     20  C   UNL     1      -0.310  14.253  19.000  0.00  0.00    +0.000 C 
ATOM     21  C   UNL     1      -1.302  13.276  19.631  0.00  0.00    +0.000 C 
BRANCH  21  22
ATOM     22  O   UNL     1      -1.280  13.342  21.061  0.00  0.00    +0.000 OA
BRANCH  22  23
ATOM     23  C   UNL     1      -2.438  13.473  21.779  0.00  0.00    +0.000 A 
ATOM     24  C   UNL     1      -3.428  14.430  21.528  0.00  0.00    +0.000 A 
ATOM     25  C   UNL     1      -4.566  14.512  22.341  0.00  0.00    +0.000 A 
ATOM     26  C   UNL     1      -4.726  13.637  23.410  0.00  0.00    +0.000 A 
ATOM     27  C   UNL     1      -3.762  12.663  23.643  0.00  0.00    +0.000 A 
ATOM     28  F   UNL     1      -3.953  11.813  24.664  0.00  0.00    +0.000 F 
ATOM     29  C   UNL     1      -2.626  12.562  22.838  0.00  0.00    +0.000 A 
BRANCH  29  30
ATOM     30  C   UNL     1      -1.686  11.513  23.107  0.00  0.00    +0.000 C 
ATOM     31  N   UNL     1      -0.947  10.651  23.338  0.00  0.00    +0.000 NA
ENDBRANCH  29  30
ENDBRANCH  22  23
ENDBRANCH  21  22
ENDBRANCH   1  21
TORSDOF 6
ENDMDL
