MODEL 1
REMARK VINA RESULT:      -7.8      0.000      0.000
REMARK  Name = 
REMARK  6 active torsions:
REMARK  status: ('A' for Active; 'I' for Inactive)
REMARK    1  A    between atoms: C_1  and  C_2
REMARK    2  A    between atoms: C_3  and  C_4
REMARK    3  A    between atoms: N_6  and  N_7
REMARK    4  A    between atoms: C_8  and  C_9
REMARK    5  A    between atoms: N_17  and  N_18
REMARK    6  A    between atoms: N_18  and  C_19
REMARK                            x       y       z     vdW  Elec       q    Type
REMARK                         _______ _______ _______ _____ _____    ______ ____
ROOT
ATOM      1  C   UNL     1       5.519   6.534  16.406  0.00  0.00    +0.000 C 
ATOM      2  C   UNL     1       6.509   6.164  17.442  0.00  0.00    +0.000 A 
ATOM      3  C   UNL     1       7.517   6.872  18.086  0.00  0.00    +0.000 A 
ATOM      4  N   UNL     1       8.185   6.020  18.935  0.00  0.00    +0.000 NA
ATOM      5  N   UNL     1       7.660   4.815  18.808  0.00  0.00    +0.000 NA
ATOM      6  N   UNL     1       6.610   4.901  17.972  0.00  0.00    +0.000 N 
ENDROOT
BRANCH   3   7
ATOM      7  C   UNL     1       7.919   8.270  17.941  0.00  0.00    +0.000 C 
ATOM      8  O   UNL     1       7.554   8.965  16.996  0.00  0.00    +0.000 OA
ATOM      9  N   UNL     1       8.753   8.694  18.972  0.00  0.00    +0.000 N 
ATOM     10  H   UNL     1       8.995   8.032  19.704  0.00  0.00    +0.000 HD
BRANCH   9  11
ATOM     11  N   UNL     1       9.265   9.961  18.987  0.00  0.00    +0.000 NA
ATOM     12  C   UNL     1       9.456  10.480  20.160  0.00  0.00    +0.000 C 
BRANCH  12  13
ATOM     13  C   UNL     1      10.012  11.840  20.325  0.00  0.00    +0.000 A 
ATOM     14  C   UNL     1       9.379  12.775  21.143  0.00  0.00    +0.000 A 
ATOM     15  C   UNL     1       9.954  14.029  21.251  0.00  0.00    +0.000 A 
ATOM     16  N   UNL     1      11.086  14.395  20.611  0.00  0.00    +0.000 NA
ATOM     17  C   UNL     1      11.675  13.468  19.828  0.00  0.00    +0.000 A 
ATOM     18  C   UNL     1      11.183  12.184  19.651  0.00  0.00    +0.000 A 
ENDBRANCH  12  13
ENDBRANCH   9  11
ENDBRANCH   3   7
BRANCH   6  19
ATOM     19  N   UNL     1       5.882   3.770  17.645  0.00  0.00    +0.000 N 
ATOM     20  H   UNL     1       6.488   2.965  17.756  0.00  0.00    +0.000 HD
BRANCH  19  21
ATOM     21  C   UNL     1       4.618   3.523  18.250  0.00  0.00    +0.000 A 
ATOM     22  C   UNL     1       3.722   2.587  17.712  0.00  0.00    +0.000 A 
ATOM     23  C   UNL     1       2.435   2.447  18.236  0.00  0.00    +0.000 A 
ATOM     24  C   UNL     1       2.050   3.206  19.335  0.00  0.00    +0.000 A 
ATOM     25 CL   UNL     1       0.441   3.092  19.931  0.00  0.00    +0.000 Cl
ATOM     26  C   UNL     1       2.960   4.066  19.946  0.00  0.00    +0.000 A 
ATOM     27  C   UNL     1       4.248   4.209  19.416  0.00  0.00    +0.000 A 
ENDBRANCH  19  21
ENDBRANCH   6  19
TORSDOF 5
ENDMDL
MODEL 2
REMARK VINA RESULT:      -7.8      6.371      7.752
REMARK  Name = 
REMARK  6 active torsions:
REMARK  status: ('A' for Active; 'I' for Inactive)
REMARK    1  A    between atoms: C_1  and  C_2
REMARK    2  A    between atoms: C_3  and  C_4
REMARK    3  A    between atoms: N_6  and  N_7
REMARK    4  A    between atoms: C_8  and  C_9
REMARK    5  A    between atoms: N_17  and  N_18
REMARK    6  A    between atoms: N_18  and  C_19
REMARK                            x       y       z     vdW  Elec       q    Type
REMARK                         _______ _______ _______ _____ _____    ______ ____
ROOT
ATOM      1  C   UNL     1       5.180   4.856  19.502  0.00  0.00    +0.000 C 
ATOM      2  C   UNL     1       3.944   4.533  18.756  0.00  0.00    +0.000 A 
ATOM      3  C   UNL     1       2.604   4.831  18.967  0.00  0.00    +0.000 A 
ATOM      4  N   UNL     1       1.854   4.232  17.981  0.00  0.00    +0.000 NA
ATOM      5  N   UNL     1       2.671   3.546  17.202  0.00  0.00    +0.000 NA
ATOM      6  N   UNL     1       3.932   3.775  17.611  0.00  0.00    +0.000 N 
ENDROOT
BRANCH   3   7
ATOM      7  C   UNL     1       1.974   5.604  20.036  0.00  0.00    +0.000 C 
ATOM      8  O   UNL     1       1.197   5.099  20.843  0.00  0.00    +0.000 OA
ATOM      9  N   UNL     1       2.346   6.947  20.013  0.00  0.00    +0.000 N 
ATOM     10  H   UNL     1       2.995   7.258  19.296  0.00  0.00    +0.000 HD
BRANCH   9  11
ATOM     11  N   UNL     1       1.827   7.836  20.912  0.00  0.00    +0.000 NA
ATOM     12  C   UNL     1       1.036   8.739  20.421  0.00  0.00    +0.000 C 
BRANCH  12  13
ATOM     13  C   UNL     1       0.398   9.759  21.280  0.00  0.00    +0.000 A 
ATOM     14  C   UNL     1       0.436  11.109  20.933  0.00  0.00    +0.000 A 
ATOM     15  C   UNL     1      -0.180  12.010  21.783  0.00  0.00    +0.000 A 
ATOM     16  N   UNL     1      -0.813  11.656  22.922  0.00  0.00    +0.000 NA
ATOM     17  C   UNL     1      -0.834  10.343  23.231  0.00  0.00    +0.000 A 
ATOM     18  C   UNL     1      -0.248   9.360  22.449  0.00  0.00    +0.000 A 
ENDBRANCH  12  13
ENDBRANCH   9  11
ENDBRANCH   3   7
BRANCH   6  19
ATOM     19  N   UNL     1       4.996   3.158  16.974  0.00  0.00    +0.000 N 
ATOM     20  H   UNL     1       4.692   2.238  16.678  0.00  0.00    +0.000 HD
BRANCH  19  21
ATOM     21  C   UNL     1       5.685   3.815  15.917  0.00  0.00    +0.000 A 
ATOM     22  C   UNL     1       5.287   3.663  14.581  0.00  0.00    +0.000 A 
ATOM     23  C   UNL     1       6.046   4.205  13.541  0.00  0.00    +0.000 A 
ATOM     24  C   UNL     1       7.185   4.947  13.834  0.00  0.00    +0.000 A 
ATOM     25 CL   UNL     1       8.165   5.547  12.554  0.00  0.00    +0.000 Cl
ATOM     26  C   UNL     1       7.540   5.194  15.158  0.00  0.00    +0.000 A 
ATOM     27  C   UNL     1       6.780   4.646  16.197  0.00  0.00    +0.000 A 
ENDBRANCH  19  21
ENDBRANCH   6  19
TORSDOF 5
ENDMDL
MODEL 3
REMARK VINA RESULT:      -7.8      1.547      2.121
REMARK  Name = 
REMARK  6 active torsions:
REMARK  status: ('A' for Active; 'I' for Inactive)
REMARK    1  A    between atoms: C_1  and  C_2
REMARK    2  A    between atoms: C_3  and  C_4
REMARK    3  A    between atoms: N_6  and  N_7
REMARK    4  A    between atoms: C_8  and  C_9
REMARK    5  A    between atoms: N_17  and  N_18
REMARK    6  A    between atoms: N_18  and  C_19
REMARK                            x       y       z     vdW  Elec       q    Type
REMARK                         _______ _______ _______ _____ _____    ______ ____
ROOT
ATOM      1  C   UNL     1       5.874   4.808  19.191  0.00  0.00    +0.000 C 
ATOM      2  C   UNL     1       6.333   5.071  17.810  0.00  0.00    +0.000 A 
ATOM      3  C   UNL     1       7.115   6.071  17.245  0.00  0.00    +0.000 A 
ATOM      4  N   UNL     1       7.190   5.864  15.887  0.00  0.00    +0.000 NA
ATOM      5  N   UNL     1       6.453   4.809  15.590  0.00  0.00    +0.000 NA
ATOM      6  N   UNL     1       5.993   4.282  16.739  0.00  0.00    +0.000 N 
ENDROOT
BRANCH   3   7
ATOM      7  C   UNL     1       7.768   7.218  17.876  0.00  0.00    +0.000 C 
ATOM      8  O   UNL     1       8.426   7.115  18.908  0.00  0.00    +0.000 OA
ATOM      9  N   UNL     1       7.542   8.406  17.184  0.00  0.00    +0.000 N 
ATOM     10  H   UNL     1       6.978   8.376  16.340  0.00  0.00    +0.000 HD
BRANCH   9  11
ATOM     11  N   UNL     1       8.039   9.593  17.644  0.00  0.00    +0.000 NA
ATOM     12  C   UNL     1       8.821   9.517  18.675  0.00  0.00    +0.000 C 
BRANCH  12  13
ATOM     13  C   UNL     1       9.436  10.722  19.272  0.00  0.00    +0.000 A 
ATOM     14  C   UNL     1      10.111  11.648  18.477  0.00  0.00    +0.000 A 
ATOM     15  C   UNL     1      10.662  12.751  19.102  0.00  0.00    +0.000 A 
ATOM     16  N   UNL     1      10.584  12.981  20.431  0.00  0.00    +0.000 NA
ATOM     17  C   UNL     1       9.923  12.068  21.174  0.00  0.00    +0.000 A 
ATOM     18  C   UNL     1       9.335  10.928  20.647  0.00  0.00    +0.000 A 
ENDBRANCH  12  13
ENDBRANCH   9  11
ENDBRANCH   3   7
BRANCH   6  19
ATOM     19  N   UNL     1       5.171   3.168  16.717  0.00  0.00    +0.000 N 
ATOM     20  H   UNL     1       5.735   2.359  16.951  0.00  0.00    +0.000 HD
BRANCH  19  21
ATOM     21  C   UNL     1       3.955   3.152  17.454  0.00  0.00    +0.000 A 
ATOM     22  C   UNL     1       2.992   4.160  17.296  0.00  0.00    +0.000 A 
ATOM     23  C   UNL     1       1.863   4.206  18.117  0.00  0.00    +0.000 A 
ATOM     24  C   UNL     1       1.662   3.214  19.070  0.00  0.00    +0.000 A 
ATOM     25 CL   UNL     1       0.314   3.313  20.134  0.00  0.00    +0.000 Cl
ATOM     26  C   UNL     1       2.554   2.150  19.173  0.00  0.00    +0.000 A 
ATOM     27  C   UNL     1       3.688   2.109  18.353  0.00  0.00    +0.000 A 
ENDBRANCH  19  21
ENDBRANCH   6  19
TORSDOF 5
ENDMDL
MODEL 4
REMARK VINA RESULT:      -7.7      6.032      7.673
REMARK  Name = 
REMARK  6 active torsions:
REMARK  status: ('A' for Active; 'I' for Inactive)
REMARK    1  A    between atoms: C_1  and  C_2
REMARK    2  A    between atoms: C_3  and  C_4
REMARK    3  A    between atoms: N_6  and  N_7
REMARK    4  A    between atoms: C_8  and  C_9
REMARK    5  A    between atoms: N_17  and  N_18
REMARK    6  A    between atoms: N_18  and  C_19
REMARK                            x       y       z     vdW  Elec       q    Type
REMARK                         _______ _______ _______ _____ _____    ______ ____
ROOT
ATOM      1  C   UNL     1       4.351   6.513  18.291  0.00  0.00    +0.000 C 
ATOM      2  C   UNL     1       4.173   5.210  18.968  0.00  0.00    +0.000 A 
ATOM      3  C   UNL     1       3.203   4.713  19.829  0.00  0.00    +0.000 A 
ATOM      4  N   UNL     1       3.556   3.439  20.210  0.00  0.00    +0.000 NA
ATOM      5  N   UNL     1       4.719   3.150  19.654  0.00  0.00    +0.000 NA
ATOM      6  N   UNL     1       5.066   4.172  18.851  0.00  0.00    +0.000 N 
ENDROOT
BRANCH   3   7
ATOM      7  C   UNL     1       1.994   5.352  20.345  0.00  0.00    +0.000 C 
ATOM      8  O   UNL     1       0.923   4.757  20.437  0.00  0.00    +0.000 OA
ATOM      9  N   UNL     1       2.203   6.684  20.696  0.00  0.00    +0.000 N 
ATOM     10  H   UNL     1       3.132   7.077  20.575  0.00  0.00    +0.000 HD
BRANCH   9  11
ATOM     11  N   UNL     1       1.178   7.459  21.161  0.00  0.00    +0.000 NA
ATOM     12  C   UNL     1       1.358   8.741  21.085  0.00  0.00    +0.000 C 
BRANCH  12  13
ATOM     13  C   UNL     1       0.328   9.697  21.543  0.00  0.00    +0.000 A 
ATOM     14  C   UNL     1      -0.163   9.646  22.847  0.00  0.00    +0.000 A 
ATOM     15  C   UNL     1      -1.126  10.570  23.208  0.00  0.00    +0.000 A 
ATOM     16  N   UNL     1      -1.614  11.514  22.374  0.00  0.00    +0.000 NA
ATOM     17  C   UNL     1      -1.118  11.539  21.119  0.00  0.00    +0.000 A 
ATOM     18  C   UNL     1      -0.153  10.659  20.656  0.00  0.00    +0.000 A 
ENDBRANCH  12  13
ENDBRANCH   9  11
ENDBRANCH   3   7
BRANCH   6  19
ATOM     19  N   UNL     1       6.262   4.139  18.154  0.00  0.00    +0.000 N 
ATOM     20  H   UNL     1       6.787   3.333  18.472  0.00  0.00    +0.000 HD
BRANCH  19  21
ATOM     21  C   UNL     1       6.273   4.207  16.733  0.00  0.00    +0.000 A 
ATOM     22  C   UNL     1       5.271   3.596  15.966  0.00  0.00    +0.000 A 
ATOM     23  C   UNL     1       5.360   3.556  14.572  0.00  0.00    +0.000 A 
ATOM     24  C   UNL     1       6.429   4.172  13.932  0.00  0.00    +0.000 A 
ATOM     25 CL   UNL     1       6.584   4.056  12.223  0.00  0.00    +0.000 Cl
ATOM     26  C   UNL     1       7.380   4.872  14.671  0.00  0.00    +0.000 A 
ATOM     27  C   UNL     1       7.291   4.905  16.068  0.00  0.00    +0.000 A 
ENDBRANCH  19  21
ENDBRANCH   6  19
TORSDOF 5
ENDMDL
MODEL 5
REMARK VINA RESULT:      -7.7      0.671      1.141
REMARK  Name = 
REMARK  6 active torsions:
REMARK  status: ('A' for Active; 'I' for Inactive)
REMARK    1  A    between atoms: C_1  and  C_2
REMARK    2  A    between atoms: C_3  and  C_4
REMARK    3  A    between atoms: N_6  and  N_7
REMARK    4  A    between atoms: C_8  and  C_9
REMARK    5  A    between atoms: N_17  and  N_18
REMARK    6  A    between atoms: N_18  and  C_19
REMARK                            x       y       z     vdW  Elec       q    Type
REMARK                         _______ _______ _______ _____ _____    ______ ____
ROOT
ATOM      1  C   UNL     1       6.178   6.384  16.284  0.00  0.00    +0.000 C 
ATOM      2  C   UNL     1       6.876   6.176  17.573  0.00  0.00    +0.000 A 
ATOM      3  C   UNL     1       7.718   6.976  18.335  0.00  0.00    +0.000 A 
ATOM      4  N   UNL     1       8.134   6.262  19.435  0.00  0.00    +0.000 NA
ATOM      5  N   UNL     1       7.620   5.048  19.357  0.00  0.00    +0.000 NA
ATOM      6  N   UNL     1       6.807   5.004  18.286  0.00  0.00    +0.000 N 
ENDROOT
BRANCH   3   7
ATOM      7  C   UNL     1       8.184   8.340  18.094  0.00  0.00    +0.000 C 
ATOM      8  O   UNL     1       7.952   8.940  17.047  0.00  0.00    +0.000 OA
ATOM      9  N   UNL     1       8.914   8.851  19.166  0.00  0.00    +0.000 N 
ATOM     10  H   UNL     1       9.047   8.265  19.985  0.00  0.00    +0.000 HD
BRANCH   9  11
ATOM     11  N   UNL     1       9.467  10.100  19.109  0.00  0.00    +0.000 NA
ATOM     12  C   UNL     1       9.433  10.783  20.210  0.00  0.00    +0.000 C 
BRANCH  12  13
ATOM     13  C   UNL     1      10.002  12.145  20.295  0.00  0.00    +0.000 A 
ATOM     14  C   UNL     1      10.877  12.616  19.315  0.00  0.00    +0.000 A 
ATOM     15  C   UNL     1      11.372  13.899  19.458  0.00  0.00    +0.000 A 
ATOM     16  N   UNL     1      11.058  14.716  20.486  0.00  0.00    +0.000 NA
ATOM     17  C   UNL     1      10.209  14.233  21.417  0.00  0.00    +0.000 A 
ATOM     18  C   UNL     1       9.657  12.963  21.369  0.00  0.00    +0.000 A 
ENDBRANCH  12  13
ENDBRANCH   9  11
ENDBRANCH   3   7
BRANCH   6  19
ATOM     19  N   UNL     1       6.147   3.833  17.957  0.00  0.00    +0.000 N 
ATOM     20  H   UNL     1       6.725   3.054  18.253  0.00  0.00    +0.000 HD
BRANCH  19  21
ATOM     21  C   UNL     1       4.798   3.626  18.356  0.00  0.00    +0.000 A 
ATOM     22  C   UNL     1       3.727   4.080  17.571  0.00  0.00    +0.000 A 
ATOM     23  C   UNL     1       2.412   3.988  18.034  0.00  0.00    +0.000 A 
ATOM     24  C   UNL     1       2.153   3.395  19.264  0.00  0.00    +0.000 A 
ATOM     25 CL   UNL     1       0.544   3.353  19.870  0.00  0.00    +0.000 Cl
ATOM     26  C   UNL     1       3.193   2.847  20.011  0.00  0.00    +0.000 A 
ATOM     27  C   UNL     1       4.511   2.945  19.548  0.00  0.00    +0.000 A 
ENDBRANCH  19  21
ENDBRANCH   6  19
TORSDOF 5
ENDMDL
MODEL 6
REMARK VINA RESULT:      -7.7      0.851      1.303
REMARK  Name = 
REMARK  6 active torsions:
REMARK  status: ('A' for Active; 'I' for Inactive)
REMARK    1  A    between atoms: C_1  and  C_2
REMARK    2  A    between atoms: C_3  and  C_4
REMARK    3  A    between atoms: N_6  and  N_7
REMARK    4  A    between atoms: C_8  and  C_9
REMARK    5  A    between atoms: N_17  and  N_18
REMARK    6  A    between atoms: N_18  and  C_19
REMARK                            x       y       z     vdW  Elec       q    Type
REMARK                         _______ _______ _______ _____ _____    ______ ____
ROOT
ATOM      1  C   UNL     1       4.749   6.718  16.983  0.00  0.00    +0.000 C 
ATOM      2  C   UNL     1       6.007   6.111  17.473  0.00  0.00    +0.000 A 
ATOM      3  C   UNL     1       7.244   6.641  17.819  0.00  0.00    +0.000 A 
ATOM      4  N   UNL     1       8.088   5.612  18.165  0.00  0.00    +0.000 NA
ATOM      5  N   UNL     1       7.437   4.474  18.004  0.00  0.00    +0.000 NA
ATOM      6  N   UNL     1       6.169   4.760  17.660  0.00  0.00    +0.000 N 
ENDROOT
BRANCH   3   7
ATOM      7  C   UNL     1       7.700   8.030  17.818  0.00  0.00    +0.000 C 
ATOM      8  O   UNL     1       7.283   8.860  17.013  0.00  0.00    +0.000 OA
ATOM      9  N   UNL     1       8.648   8.280  18.808  0.00  0.00    +0.000 N 
ATOM     10  H   UNL     1       8.923   7.517  19.420  0.00  0.00    +0.000 HD
BRANCH   9  11
ATOM     11  N   UNL     1       9.222   9.514  18.938  0.00  0.00    +0.000 NA
ATOM     12  C   UNL     1       9.079  10.086  20.092  0.00  0.00    +0.000 C 
BRANCH  12  13
ATOM     13  C   UNL     1       9.655  11.418  20.374  0.00  0.00    +0.000 A 
ATOM     14  C   UNL     1      10.810  11.848  19.723  0.00  0.00    +0.000 A 
ATOM     15  C   UNL     1      11.295  13.105  20.036  0.00  0.00    +0.000 A 
ATOM     16  N   UNL     1      10.715  13.933  20.932  0.00  0.00    +0.000 NA
ATOM     17  C   UNL     1       9.598  13.489  21.545  0.00  0.00    +0.000 A 
ATOM     18  C   UNL     1       9.030  12.248  21.304  0.00  0.00    +0.000 A 
ENDBRANCH  12  13
ENDBRANCH   9  11
ENDBRANCH   3   7
BRANCH   6  19
ATOM     19  N   UNL     1       5.265   3.742  17.410  0.00  0.00    +0.000 N 
ATOM     20  H   UNL     1       5.791   2.908  17.174  0.00  0.00    +0.000 HD
BRANCH  19  21
ATOM     21  C   UNL     1       4.246   3.432  18.352  0.00  0.00    +0.000 A 
ATOM     22  C   UNL     1       2.897   3.706  18.085  0.00  0.00    +0.000 A 
ATOM     23  C   UNL     1       1.920   3.519  19.066  0.00  0.00    +0.000 A 
ATOM     24  C   UNL     1       2.279   3.007  20.307  0.00  0.00    +0.000 A 
ATOM     25 CL   UNL     1       1.092   2.851  21.542  0.00  0.00    +0.000 Cl
ATOM     26  C   UNL     1       3.597   2.633  20.557  0.00  0.00    +0.000 A 
ATOM     27  C   UNL     1       4.575   2.827  19.574  0.00  0.00    +0.000 A 
ENDBRANCH  19  21
ENDBRANCH   6  19
TORSDOF 5
ENDMDL
MODEL 7
REMARK VINA RESULT:      -7.7      6.240      7.702
REMARK  Name = 
REMARK  6 active torsions:
REMARK  status: ('A' for Active; 'I' for Inactive)
REMARK    1  A    between atoms: C_1  and  C_2
REMARK    2  A    between atoms: C_3  and  C_4
REMARK    3  A    between atoms: N_6  and  N_7
REMARK    4  A    between atoms: C_8  and  C_9
REMARK    5  A    between atoms: N_17  and  N_18
REMARK    6  A    between atoms: N_18  and  C_19
REMARK                            x       y       z     vdW  Elec       q    Type
REMARK                         _______ _______ _______ _____ _____    ______ ____
ROOT
ATOM      1  C   UNL     1       2.077   3.678  17.468  0.00  0.00    +0.000 C 
ATOM      2  C   UNL     1       3.163   4.081  18.388  0.00  0.00    +0.000 A 
ATOM      3  C   UNL     1       3.186   4.830  19.558  0.00  0.00    +0.000 A 
ATOM      4  N   UNL     1       4.489   4.947  19.986  0.00  0.00    +0.000 NA
ATOM      5  N   UNL     1       5.267   4.340  19.108  0.00  0.00    +0.000 NA
ATOM      6  N   UNL     1       4.482   3.756  18.185  0.00  0.00    +0.000 N 
ENDROOT
BRANCH   3   7
ATOM      7  C   UNL     1       2.089   5.469  20.282  0.00  0.00    +0.000 C 
ATOM      8  O   UNL     1       1.103   4.844  20.667  0.00  0.00    +0.000 OA
ATOM      9  N   UNL     1       2.292   6.835  20.462  0.00  0.00    +0.000 N 
ATOM     10  H   UNL     1       3.146   7.250  20.099  0.00  0.00    +0.000 HD
BRANCH   9  11
ATOM     11  N   UNL     1       1.354   7.611  21.083  0.00  0.00    +0.000 NA
ATOM     12  C   UNL     1       1.362   8.869  20.768  0.00  0.00    +0.000 C 
BRANCH  12  13
ATOM     13  C   UNL     1       0.397   9.821  21.358  0.00  0.00    +0.000 A 
ATOM     14  C   UNL     1      -0.161   9.586  22.614  0.00  0.00    +0.000 A 
ATOM     15  C   UNL     1      -1.058  10.519  23.104  0.00  0.00    +0.000 A 
ATOM     16  N   UNL     1      -1.419  11.637  22.438  0.00  0.00    +0.000 NA
ATOM     17  C   UNL     1      -0.861  11.837  21.226  0.00  0.00    +0.000 A 
ATOM     18  C   UNL     1       0.046  10.966  20.644  0.00  0.00    +0.000 A 
ENDBRANCH  12  13
ENDBRANCH   9  11
ENDBRANCH   3   7
BRANCH   6  19
ATOM     19  N   UNL     1       5.045   3.062  17.128  0.00  0.00    +0.000 N 
ATOM     20  H   UNL     1       4.337   2.446  16.745  0.00  0.00    +0.000 HD
BRANCH  19  21
ATOM     21  C   UNL     1       5.713   3.755  16.080  0.00  0.00    +0.000 A 
ATOM     22  C   UNL     1       5.247   3.704  14.758  0.00  0.00    +0.000 A 
ATOM     23  C   UNL     1       5.981   4.280  13.718  0.00  0.00    +0.000 A 
ATOM     24  C   UNL     1       7.163   4.956  14.000  0.00  0.00    +0.000 A 
ATOM     25 CL   UNL     1       8.108   5.595  12.713  0.00  0.00    +0.000 Cl
ATOM     26  C   UNL     1       7.589   5.105  15.318  0.00  0.00    +0.000 A 
ATOM     27  C   UNL     1       6.854   4.522  16.358  0.00  0.00    +0.000 A 
ENDBRANCH  19  21
ENDBRANCH   6  19
TORSDOF 5
ENDMDL
MODEL 8
REMARK VINA RESULT:      -7.6      1.247      1.570
REMARK  Name = 
REMARK  6 active torsions:
REMARK  status: ('A' for Active; 'I' for Inactive)
REMARK    1  A    between atoms: C_1  and  C_2
REMARK    2  A    between atoms: C_3  and  C_4
REMARK    3  A    between atoms: N_6  and  N_7
REMARK    4  A    between atoms: C_8  and  C_9
REMARK    5  A    between atoms: N_17  and  N_18
REMARK    6  A    between atoms: N_18  and  C_19
REMARK                            x       y       z     vdW  Elec       q    Type
REMARK                         _______ _______ _______ _____ _____    ______ ____
ROOT
ATOM      1  C   UNL     1       5.468   6.642  16.470  0.00  0.00    +0.000 C 
ATOM      2  C   UNL     1       6.494   6.188  17.434  0.00  0.00    +0.000 A 
ATOM      3  C   UNL     1       7.515   6.844  18.111  0.00  0.00    +0.000 A 
ATOM      4  N   UNL     1       8.218   5.924  18.855  0.00  0.00    +0.000 NA
ATOM      5  N   UNL     1       7.700   4.731  18.631  0.00  0.00    +0.000 NA
ATOM      6  N   UNL     1       6.623   4.882  17.840  0.00  0.00    +0.000 N 
ENDROOT
BRANCH   3   7
ATOM      7  C   UNL     1       7.900   8.254  18.086  0.00  0.00    +0.000 C 
ATOM      8  O   UNL     1       7.497   9.031  17.224  0.00  0.00    +0.000 OA
ATOM      9  N   UNL     1       8.765   8.589  19.126  0.00  0.00    +0.000 N 
ATOM     10  H   UNL     1       9.037   7.864  19.783  0.00  0.00    +0.000 HD
BRANCH   9  11
ATOM     11  N   UNL     1       9.266   9.855  19.244  0.00  0.00    +0.000 NA
ATOM     12  C   UNL     1       9.649  10.417  18.140  0.00  0.00    +0.000 C 
BRANCH  12  13
ATOM     13  C   UNL     1      10.204  11.788  18.120  0.00  0.00    +0.000 A 
ATOM     14  C   UNL     1      11.491  12.030  17.641  0.00  0.00    +0.000 A 
ATOM     15  C   UNL     1      11.945  13.336  17.652  0.00  0.00    +0.000 A 
ATOM     16  N   UNL     1      11.217  14.382  18.099  0.00  0.00    +0.000 NA
ATOM     17  C   UNL     1       9.976  14.116  18.555  0.00  0.00    +0.000 A 
ATOM     18  C   UNL     1       9.425  12.845  18.588  0.00  0.00    +0.000 A 
ENDBRANCH  12  13
ENDBRANCH   9  11
ENDBRANCH   3   7
BRANCH   6  19
ATOM     19  N   UNL     1       5.895   3.778  17.430  0.00  0.00    +0.000 N 
ATOM     20  H   UNL     1       6.508   2.971  17.461  0.00  0.00    +0.000 HD
BRANCH  19  21
ATOM     21  C   UNL     1       4.644   3.471  18.033  0.00  0.00    +0.000 A 
ATOM     22  C   UNL     1       3.564   2.998  17.274  0.00  0.00    +0.000 A 
ATOM     23  C   UNL     1       2.304   2.824  17.852  0.00  0.00    +0.000 A 
ATOM     24  C   UNL     1       2.127   3.076  19.208  0.00  0.00    +0.000 A 
ATOM     25 CL   UNL     1       0.560   2.940  19.904  0.00  0.00    +0.000 Cl
ATOM     26  C   UNL     1       3.211   3.449  19.999  0.00  0.00    +0.000 A 
ATOM     27  C   UNL     1       4.471   3.627  19.416  0.00  0.00    +0.000 A 
ENDBRANCH  19  21
ENDBRANCH   6  19
TORSDOF 5
ENDMDL
MODEL 9
REMARK VINA RESULT:      -7.5      1.765      2.527
REMARK  Name = 
REMARK  6 active torsions:
REMARK  status: ('A' for Active; 'I' for Inactive)
REMARK    1  A    between atoms: C_1  and  C_2
REMARK    2  A    between atoms: C_3  and  C_4
REMARK    3  A    between atoms: N_6  and  N_7
REMARK    4  A    between atoms: C_8  and  C_9
REMARK    5  A    between atoms: N_17  and  N_18
REMARK    6  A    between atoms: N_18  and  C_19
REMARK                            x       y       z     vdW  Elec       q    Type
REMARK                         _______ _______ _______ _____ _____    ______ ____
ROOT
ATOM      1  C   UNL     1       4.126   6.395  17.717  0.00  0.00    +0.000 C 
ATOM      2  C   UNL     1       5.020   5.399  17.087  0.00  0.00    +0.000 A 
ATOM      3  C   UNL     1       6.360   5.425  16.720  0.00  0.00    +0.000 A 
ATOM      4  N   UNL     1       6.679   4.230  16.116  0.00  0.00    +0.000 NA
ATOM      5  N   UNL     1       5.585   3.493  16.059  0.00  0.00    +0.000 NA
ATOM      6  N   UNL     1       4.602   4.149  16.700  0.00  0.00    +0.000 N 
ENDROOT
BRANCH   3   7
ATOM      7  C   UNL     1       7.349   6.492  16.863  0.00  0.00    +0.000 C 
ATOM      8  O   UNL     1       8.022   6.896  15.918  0.00  0.00    +0.000 OA
ATOM      9  N   UNL     1       7.435   6.966  18.170  0.00  0.00    +0.000 N 
ATOM     10  H   UNL     1       6.830   6.557  18.876  0.00  0.00    +0.000 HD
BRANCH   9  11
ATOM     11  N   UNL     1       8.335   7.939  18.508  0.00  0.00    +0.000 NA
ATOM     12  C   UNL     1       8.013   9.148  18.170  0.00  0.00    +0.000 C 
BRANCH  12  13
ATOM     13  C   UNL     1       8.889  10.298  18.480  0.00  0.00    +0.000 A 
ATOM     14  C   UNL     1       9.752  10.264  19.575  0.00  0.00    +0.000 A 
ATOM     15  C   UNL     1      10.542  11.375  19.806  0.00  0.00    +0.000 A 
ATOM     16  N   UNL     1      10.525  12.484  19.035  0.00  0.00    +0.000 NA
ATOM     17  C   UNL     1       9.680  12.487  17.983  0.00  0.00    +0.000 A 
ATOM     18  C   UNL     1       8.846  11.427  17.663  0.00  0.00    +0.000 A 
ENDBRANCH  12  13
ENDBRANCH   9  11
ENDBRANCH   3   7
BRANCH   6  19
ATOM     19  N   UNL     1       3.331   3.605  16.774  0.00  0.00    +0.000 N 
ATOM     20  H   UNL     1       3.286   2.826  16.127  0.00  0.00    +0.000 HD
BRANCH  19  21
ATOM     21  C   UNL     1       2.774   3.236  18.030  0.00  0.00    +0.000 A 
ATOM     22  C   UNL     1       1.412   3.422  18.308  0.00  0.00    +0.000 A 
ATOM     23  C   UNL     1       0.903   3.179  19.586  0.00  0.00    +0.000 A 
ATOM     24  C   UNL     1       1.743   2.699  20.584  0.00  0.00    +0.000 A 
ATOM     25 CL   UNL     1       1.136   2.475  22.177  0.00  0.00    +0.000 Cl
ATOM     26  C   UNL     1       3.076   2.411  20.299  0.00  0.00    +0.000 A 
ATOM     27  C   UNL     1       3.586   2.661  19.020  0.00  0.00    +0.000 A 
ENDBRANCH  19  21
ENDBRANCH   6  19
TORSDOF 5
ENDMDL
