MODEL 1
REMARK VINA RESULT:      -8.3      0.000      0.000
REMARK  Name = 
REMARK  5 active torsions:
REMARK  status: ('A' for Active; 'I' for Inactive)
REMARK    1  A    between atoms: C_2  and  C_4
REMARK    2  A    between atoms: C_9  and  N_10
REMARK    3  A    between atoms: N_10  and  C_11
REMARK    4  A    between atoms: C_11  and  C_12
REMARK    5  A    between atoms: C_14  and  C_15
REMARK                            x       y       z     vdW  Elec       q    Type
REMARK                         _______ _______ _______ _____ _____    ______ ____
ROOT
ATOM      1  N   UNL     1       3.080   5.967  17.991  0.00  0.00    +0.000 NA
ATOM      2  H   UNL     1       2.345   6.457  18.507  0.00  0.00    +0.000 HD
ENDROOT
BRANCH   1   8
ATOM      3  C   UNL     1       3.082   3.456  18.172  0.00  0.00    +0.000 C 
ATOM      4  C   UNL     1       1.559   3.277  18.261  0.00  0.00    +0.000 C 
ATOM      5  C   UNL     1       1.037   3.457  19.685  0.00  0.00    +0.000 C 
ATOM      6  C   UNL     1       1.451   4.801  20.270  0.00  0.00    +0.000 C 
ATOM      7  C   UNL     1       2.968   4.990  20.210  0.00  0.00    +0.000 C 
ATOM      8  C   UNL     1       3.541   4.805  18.785  0.00  0.00    +0.000 C 
BRANCH   3  10
ATOM      9  N   UNL     1       4.927   2.581  19.499  0.00  0.00    +0.000 N 
ATOM     10  C   UNL     1       3.834   2.257  18.743  0.00  0.00    +0.000 C 
ATOM     11  O   UNL     1       3.496   1.088  18.607  0.00  0.00    +0.000 OA
ATOM     12  H   UNL     1       5.445   1.831  19.940  0.00  0.00    +0.000 HD
ATOM     13  H   UNL     1       5.214   3.533  19.676  0.00  0.00    +0.000 HD
ENDBRANCH   3  10
ENDBRANCH   1   8
BRANCH   1  14
ATOM     14  C   UNL     1       4.135   6.930  17.648  0.00  0.00    +0.000 C 
BRANCH  14  15
ATOM     15  C   UNL     1       5.159   6.325  16.756  0.00  0.00    +0.000 A 
ATOM     16  N   UNL     1       5.029   5.369  15.857  0.00  0.00    +0.000 NA
ATOM     17  C   UNL     1       6.298   5.274  15.354  0.00  0.00    +0.000 A 
ATOM     18  N   UNL     1       7.194   6.096  15.919  0.00  0.00    +0.000 NA
ATOM     19  O   UNL     1       6.435   6.802  16.855  0.00  0.00    +0.000 OA
BRANCH  17  20
ATOM     20  C   UNL     1       6.648   4.352  14.248  0.00  0.00    +0.000 C 
ATOM     21  C   UNL     1       5.436   3.769  13.525  0.00  0.00    +0.000 C 
ATOM     22  C   UNL     1       6.020   3.228  12.226  0.00  0.00    +0.000 C 
ATOM     23  C   UNL     1       7.220   4.118  11.905  0.00  0.00    +0.000 C 
ATOM     24  C   UNL     1       7.409   5.035  13.111  0.00  0.00    +0.000 C 
ENDBRANCH  17  20
ENDBRANCH  14  15
ENDBRANCH   1  14
TORSDOF 5
ENDMDL
MODEL 2
REMARK VINA RESULT:      -8.0      1.641      2.203
REMARK  Name = 
REMARK  5 active torsions:
REMARK  status: ('A' for Active; 'I' for Inactive)
REMARK    1  A    between atoms: C_2  and  C_4
REMARK    2  A    between atoms: C_9  and  N_10
REMARK    3  A    between atoms: N_10  and  C_11
REMARK    4  A    between atoms: C_11  and  C_12
REMARK    5  A    between atoms: C_14  and  C_15
REMARK                            x       y       z     vdW  Elec       q    Type
REMARK                         _______ _______ _______ _____ _____    ______ ____
ROOT
ATOM      1  N   UNL     1       5.153   3.680  19.032  0.00  0.00    +0.000 NA
ATOM      2  H   UNL     1       4.870   3.379  18.096  0.00  0.00    +0.000 HD
ENDROOT
BRANCH   1   8
ATOM      3  C   UNL     1       2.858   2.868  19.676  0.00  0.00    +0.000 C 
ATOM      4  C   UNL     1       2.263   2.860  18.260  0.00  0.00    +0.000 C 
ATOM      5  C   UNL     1       1.744   4.234  17.843  0.00  0.00    +0.000 C 
ATOM      6  C   UNL     1       2.824   5.303  17.960  0.00  0.00    +0.000 C 
ATOM      7  C   UNL     1       3.415   5.342  19.370  0.00  0.00    +0.000 C 
ATOM      8  C   UNL     1       3.944   3.965  19.839  0.00  0.00    +0.000 C 
BRANCH   3  10
ATOM      9  N   UNL     1       2.255   2.950  22.034  0.00  0.00    +0.000 N 
ATOM     10  C   UNL     1       1.778   2.938  20.752  0.00  0.00    +0.000 C 
ATOM     11  O   UNL     1       0.576   3.028  20.533  0.00  0.00    +0.000 OA
ATOM     12  H   UNL     1       1.589   3.036  22.792  0.00  0.00    +0.000 HD
ATOM     13  H   UNL     1       3.239   2.924  22.258  0.00  0.00    +0.000 HD
ENDBRANCH   3  10
ENDBRANCH   1   8
BRANCH   1  14
ATOM     14  C   UNL     1       6.080   4.812  18.902  0.00  0.00    +0.000 C 
BRANCH  14  15
ATOM     15  C   UNL     1       6.451   5.056  17.484  0.00  0.00    +0.000 A 
ATOM     16  N   UNL     1       5.945   4.535  16.383  0.00  0.00    +0.000 NA
ATOM     17  C   UNL     1       6.673   5.163  15.409  0.00  0.00    +0.000 A 
ATOM     18  N   UNL     1       7.610   6.010  15.858  0.00  0.00    +0.000 NA
ATOM     19  O   UNL     1       7.463   5.943  17.246  0.00  0.00    +0.000 OA
BRANCH  17  20
ATOM     20  C   UNL     1       6.423   4.943  13.964  0.00  0.00    +0.000 C 
ATOM     21  C   UNL     1       7.677   5.048  13.099  0.00  0.00    +0.000 C 
ATOM     22  C   UNL     1       7.264   4.389  11.789  0.00  0.00    +0.000 C 
ATOM     23  C   UNL     1       6.220   3.337  12.161  0.00  0.00    +0.000 C 
ATOM     24  C   UNL     1       5.924   3.533  13.646  0.00  0.00    +0.000 C 
ENDBRANCH  17  20
ENDBRANCH  14  15
ENDBRANCH   1  14
TORSDOF 5
ENDMDL
MODEL 3
REMARK VINA RESULT:      -7.9      1.677      2.247
REMARK  Name = 
REMARK  5 active torsions:
REMARK  status: ('A' for Active; 'I' for Inactive)
REMARK    1  A    between atoms: C_2  and  C_4
REMARK    2  A    between atoms: C_9  and  N_10
REMARK    3  A    between atoms: N_10  and  C_11
REMARK    4  A    between atoms: C_11  and  C_12
REMARK    5  A    between atoms: C_14  and  C_15
REMARK                            x       y       z     vdW  Elec       q    Type
REMARK                         _______ _______ _______ _____ _____    ______ ____
ROOT
ATOM      1  N   UNL     1       5.497   3.992  18.970  0.00  0.00    +0.000 NA
ATOM      2  H   UNL     1       5.437   3.300  18.219  0.00  0.00    +0.000 HD
ENDROOT
BRANCH   1   8
ATOM      3  C   UNL     1       3.471   3.126  20.187  0.00  0.00    +0.000 C 
ATOM      4  C   UNL     1       3.173   1.955  19.238  0.00  0.00    +0.000 C 
ATOM      5  C   UNL     1       2.355   2.388  18.024  0.00  0.00    +0.000 C 
ATOM      6  C   UNL     1       3.028   3.528  17.269  0.00  0.00    +0.000 C 
ATOM      7  C   UNL     1       3.313   4.713  18.193  0.00  0.00    +0.000 C 
ATOM      8  C   UNL     1       4.132   4.317  19.444  0.00  0.00    +0.000 C 
BRANCH   3  10
ATOM      9  N   UNL     1       2.213   4.858  21.349  0.00  0.00    +0.000 N 
ATOM     10  C   UNL     1       2.242   3.537  20.993  0.00  0.00    +0.000 C 
ATOM     11  O   UNL     1       1.309   2.795  21.276  0.00  0.00    +0.000 OA
ATOM     12  H   UNL     1       1.404   5.201  21.851  0.00  0.00    +0.000 HD
ATOM     13  H   UNL     1       2.938   5.514  21.097  0.00  0.00    +0.000 HD
ENDBRANCH   3  10
ENDBRANCH   1   8
BRANCH   1  14
ATOM     14  C   UNL     1       6.265   5.147  18.485  0.00  0.00    +0.000 C 
BRANCH  14  15
ATOM     15  C   UNL     1       6.603   5.014  17.043  0.00  0.00    +0.000 A 
ATOM     16  N   UNL     1       6.275   4.064  16.190  0.00  0.00    +0.000 NA
ATOM     17  C   UNL     1       6.851   4.510  15.031  0.00  0.00    +0.000 A 
ATOM     18  N   UNL     1       7.533   5.658  15.142  0.00  0.00    +0.000 NA
ATOM     19  O   UNL     1       7.367   5.999  16.487  0.00  0.00    +0.000 OA
BRANCH  17  20
ATOM     20  C   UNL     1       6.705   3.791  13.743  0.00  0.00    +0.000 C 
ATOM     21  C   UNL     1       5.259   3.662  13.269  0.00  0.00    +0.000 C 
ATOM     22  C   UNL     1       5.395   3.294  11.798  0.00  0.00    +0.000 C 
ATOM     23  C   UNL     1       6.697   3.940  11.324  0.00  0.00    +0.000 C 
ATOM     24  C   UNL     1       7.369   4.513  12.570  0.00  0.00    +0.000 C 
ENDBRANCH  17  20
ENDBRANCH  14  15
ENDBRANCH   1  14
TORSDOF 5
ENDMDL
MODEL 4
REMARK VINA RESULT:      -7.8      1.827      2.728
REMARK  Name = 
REMARK  5 active torsions:
REMARK  status: ('A' for Active; 'I' for Inactive)
REMARK    1  A    between atoms: C_2  and  C_4
REMARK    2  A    between atoms: C_9  and  N_10
REMARK    3  A    between atoms: N_10  and  C_11
REMARK    4  A    between atoms: C_11  and  C_12
REMARK    5  A    between atoms: C_14  and  C_15
REMARK                            x       y       z     vdW  Elec       q    Type
REMARK                         _______ _______ _______ _____ _____    ______ ____
ROOT
ATOM      1  N   UNL     1       5.357   3.777  17.954  0.00  0.00    +0.000 NA
ATOM      2  H   UNL     1       5.146   3.152  17.172  0.00  0.00    +0.000 HD
ENDROOT
BRANCH   1   8
ATOM      3  C   UNL     1       3.648   3.979  19.792  0.00  0.00    +0.000 C 
ATOM      4  C   UNL     1       3.189   2.513  19.778  0.00  0.00    +0.000 C 
ATOM      5  C   UNL     1       2.127   2.249  18.713  0.00  0.00    +0.000 C 
ATOM      6  C   UNL     1       2.602   2.672  17.328  0.00  0.00    +0.000 C 
ATOM      7  C   UNL     1       3.042   4.136  17.316  0.00  0.00    +0.000 C 
ATOM      8  C   UNL     1       4.112   4.451  18.389  0.00  0.00    +0.000 C 
BRANCH   3  10
ATOM      9  N   UNL     1       2.796   6.231  20.160  0.00  0.00    +0.000 N 
ATOM     10  C   UNL     1       2.602   4.900  20.413  0.00  0.00    +0.000 C 
ATOM     11  O   UNL     1       1.625   4.524  21.049  0.00  0.00    +0.000 OA
ATOM     12  H   UNL     1       2.113   6.890  20.511  0.00  0.00    +0.000 HD
ATOM     13  H   UNL     1       3.561   6.581  19.601  0.00  0.00    +0.000 HD
ENDBRANCH   3  10
ENDBRANCH   1   8
BRANCH   1  14
ATOM     14  C   UNL     1       6.436   4.689  17.551  0.00  0.00    +0.000 C 
BRANCH  14  15
ATOM     15  C   UNL     1       6.633   4.685  16.077  0.00  0.00    +0.000 A 
ATOM     16  N   UNL     1       6.023   3.972  15.152  0.00  0.00    +0.000 NA
ATOM     17  C   UNL     1       6.613   4.430  14.004  0.00  0.00    +0.000 A 
ATOM     18  N   UNL     1       7.564   5.355  14.186  0.00  0.00    +0.000 NA
ATOM     19  O   UNL     1       7.579   5.531  15.571  0.00  0.00    +0.000 OA
BRANCH  17  20
ATOM     20  C   UNL     1       6.207   3.956  12.659  0.00  0.00    +0.000 C 
ATOM     21  C   UNL     1       6.838   2.625  12.257  0.00  0.00    +0.000 C 
ATOM     22  C   UNL     1       5.979   2.159  11.090  0.00  0.00    +0.000 C 
ATOM     23  C   UNL     1       4.584   2.729  11.344  0.00  0.00    +0.000 C 
ATOM     24  C   UNL     1       4.712   3.653  12.552  0.00  0.00    +0.000 C 
ENDBRANCH  17  20
ENDBRANCH  14  15
ENDBRANCH   1  14
TORSDOF 5
ENDMDL
MODEL 5
REMARK VINA RESULT:      -7.8      1.627      1.761
REMARK  Name = 
REMARK  5 active torsions:
REMARK  status: ('A' for Active; 'I' for Inactive)
REMARK    1  A    between atoms: C_2  and  C_4
REMARK    2  A    between atoms: C_9  and  N_10
REMARK    3  A    between atoms: N_10  and  C_11
REMARK    4  A    between atoms: C_11  and  C_12
REMARK    5  A    between atoms: C_14  and  C_15
REMARK                            x       y       z     vdW  Elec       q    Type
REMARK                         _______ _______ _______ _____ _____    ______ ____
ROOT
ATOM      1  N   UNL     1       5.395   5.737  18.548  0.00  0.00    +0.000 NA
ATOM      2  H   UNL     1       5.500   6.597  19.090  0.00  0.00    +0.000 HD
ENDROOT
BRANCH   1   8
ATOM      3  C   UNL     1       4.160   3.544  18.465  0.00  0.00    +0.000 C 
ATOM      4  C   UNL     1       3.183   3.925  17.344  0.00  0.00    +0.000 C 
ATOM      5  C   UNL     1       1.964   4.680  17.869  0.00  0.00    +0.000 C 
ATOM      6  C   UNL     1       2.368   5.914  18.667  0.00  0.00    +0.000 C 
ATOM      7  C   UNL     1       3.325   5.552  19.803  0.00  0.00    +0.000 C 
ATOM      8  C   UNL     1       4.571   4.775  19.316  0.00  0.00    +0.000 C 
BRANCH   3  10
ATOM      9  N   UNL     1       3.018   1.396  18.597  0.00  0.00    +0.000 N 
ATOM     10  C   UNL     1       3.638   2.385  19.311  0.00  0.00    +0.000 C 
ATOM     11  O   UNL     1       3.784   2.281  20.522  0.00  0.00    +0.000 OA
ATOM     12  H   UNL     1       2.686   0.581  19.096  0.00  0.00    +0.000 HD
ATOM     13  H   UNL     1       2.918   1.420  17.592  0.00  0.00    +0.000 HD
ENDBRANCH   3  10
ENDBRANCH   1   8
BRANCH   1  14
ATOM     14  C   UNL     1       6.730   5.243  18.184  0.00  0.00    +0.000 C 
BRANCH  14  15
ATOM     15  C   UNL     1       6.849   5.015  16.720  0.00  0.00    +0.000 A 
ATOM     16  N   UNL     1       6.400   4.015  15.988  0.00  0.00    +0.000 NA
ATOM     17  C   UNL     1       6.794   4.383  14.729  0.00  0.00    +0.000 A 
ATOM     18  N   UNL     1       7.482   5.531  14.664  0.00  0.00    +0.000 NA
ATOM     19  O   UNL     1       7.518   5.958  15.993  0.00  0.00    +0.000 OA
BRANCH  17  20
ATOM     20  C   UNL     1       6.460   3.583  13.527  0.00  0.00    +0.000 C 
ATOM     21  C   UNL     1       4.994   3.682  13.108  0.00  0.00    +0.000 C 
ATOM     22  C   UNL     1       4.993   3.156  11.680  0.00  0.00    +0.000 C 
ATOM     23  C   UNL     1       6.368   3.499  11.107  0.00  0.00    +0.000 C 
ATOM     24  C   UNL     1       7.190   4.052  12.268  0.00  0.00    +0.000 C 
ENDBRANCH  17  20
ENDBRANCH  14  15
ENDBRANCH   1  14
TORSDOF 5
ENDMDL
MODEL 6
REMARK VINA RESULT:      -7.7      1.906      2.870
REMARK  Name = 
REMARK  5 active torsions:
REMARK  status: ('A' for Active; 'I' for Inactive)
REMARK    1  A    between atoms: C_2  and  C_4
REMARK    2  A    between atoms: C_9  and  N_10
REMARK    3  A    between atoms: N_10  and  C_11
REMARK    4  A    between atoms: C_11  and  C_12
REMARK    5  A    between atoms: C_14  and  C_15
REMARK                            x       y       z     vdW  Elec       q    Type
REMARK                         _______ _______ _______ _____ _____    ______ ____
ROOT
ATOM      1  N   UNL     1       4.687   4.429  19.138  0.00  0.00    +0.000 NA
ATOM      2  H   UNL     1       4.590   3.639  18.496  0.00  0.00    +0.000 HD
ENDROOT
BRANCH   1   8
ATOM      3  C   UNL     1       2.954   5.940  20.164  0.00  0.00    +0.000 C 
ATOM      4  C   UNL     1       2.154   4.842  20.879  0.00  0.00    +0.000 C 
ATOM      5  C   UNL     1       1.137   4.173  19.958  0.00  0.00    +0.000 C 
ATOM      6  C   UNL     1       1.796   3.618  18.702  0.00  0.00    +0.000 C 
ATOM      7  C   UNL     1       2.581   4.702  17.961  0.00  0.00    +0.000 C 
ATOM      8  C   UNL     1       3.617   5.415  18.863  0.00  0.00    +0.000 C 
BRANCH   3  10
ATOM      9  N   UNL     1       1.476   7.660  21.054  0.00  0.00    +0.000 N 
ATOM     10  C   UNL     1       2.124   7.201  19.940  0.00  0.00    +0.000 C 
ATOM     11  O   UNL     1       2.055   7.815  18.882  0.00  0.00    +0.000 OA
ATOM     12  H   UNL     1       0.942   8.516  20.980  0.00  0.00    +0.000 HD
ATOM     13  H   UNL     1       1.544   7.210  21.956  0.00  0.00    +0.000 HD
ENDBRANCH   3  10
ENDBRANCH   1   8
BRANCH   1  14
ATOM     14  C   UNL     1       6.052   4.961  19.027  0.00  0.00    +0.000 C 
BRANCH  14  15
ATOM     15  C   UNL     1       6.502   5.022  17.612  0.00  0.00    +0.000 A 
ATOM     16  N   UNL     1       6.418   4.108  16.666  0.00  0.00    +0.000 NA
ATOM     17  C   UNL     1       6.972   4.754  15.594  0.00  0.00    +0.000 A 
ATOM     18  N   UNL     1       7.413   5.994  15.846  0.00  0.00    +0.000 NA
ATOM     19  O   UNL     1       7.099   6.178  17.194  0.00  0.00    +0.000 OA
BRANCH  17  20
ATOM     20  C   UNL     1       7.050   4.138  14.248  0.00  0.00    +0.000 C 
ATOM     21  C   UNL     1       5.689   3.792  13.648  0.00  0.00    +0.000 C 
ATOM     22  C   UNL     1       5.991   3.587  12.170  0.00  0.00    +0.000 C 
ATOM     23  C   UNL     1       7.177   4.498  11.855  0.00  0.00    +0.000 C 
ATOM     24  C   UNL     1       7.644   5.070  13.191  0.00  0.00    +0.000 C 
ENDBRANCH  17  20
ENDBRANCH  14  15
ENDBRANCH   1  14
TORSDOF 5
ENDMDL
MODEL 7
REMARK VINA RESULT:      -7.7      1.638      2.183
REMARK  Name = 
REMARK  5 active torsions:
REMARK  status: ('A' for Active; 'I' for Inactive)
REMARK    1  A    between atoms: C_2  and  C_4
REMARK    2  A    between atoms: C_9  and  N_10
REMARK    3  A    between atoms: N_10  and  C_11
REMARK    4  A    between atoms: C_11  and  C_12
REMARK    5  A    between atoms: C_14  and  C_15
REMARK                            x       y       z     vdW  Elec       q    Type
REMARK                         _______ _______ _______ _____ _____    ______ ____
ROOT
ATOM      1  N   UNL     1       4.288   5.455  18.873  0.00  0.00    +0.000 NA
ATOM      2  H   UNL     1       4.855   4.631  18.664  0.00  0.00    +0.000 HD
ENDROOT
BRANCH   1   8
ATOM      3  C   UNL     1       2.767   4.030  20.286  0.00  0.00    +0.000 C 
ATOM      4  C   UNL     1       3.417   2.680  19.949  0.00  0.00    +0.000 C 
ATOM      5  C   UNL     1       2.886   2.090  18.645  0.00  0.00    +0.000 C 
ATOM      6  C   UNL     1       3.045   3.062  17.482  0.00  0.00    +0.000 C 
ATOM      7  C   UNL     1       2.385   4.408  17.789  0.00  0.00    +0.000 C 
ATOM      8  C   UNL     1       2.887   5.036  19.111  0.00  0.00    +0.000 C 
BRANCH   3  10
ATOM      9  N   UNL     1       1.134   2.783  21.593  0.00  0.00    +0.000 N 
ATOM     10  C   UNL     1       1.334   3.868  20.785  0.00  0.00    +0.000 C 
ATOM     11  O   UNL     1       0.419   4.647  20.550  0.00  0.00    +0.000 OA
ATOM     12  H   UNL     1       0.213   2.643  21.990  0.00  0.00    +0.000 HD
ATOM     13  H   UNL     1       1.871   2.141  21.850  0.00  0.00    +0.000 HD
ENDBRANCH   3  10
ENDBRANCH   1   8
BRANCH   1  14
ATOM     14  C   UNL     1       4.457   6.431  17.788  0.00  0.00    +0.000 C 
BRANCH  14  15
ATOM     15  C   UNL     1       5.443   5.961  16.779  0.00  0.00    +0.000 A 
ATOM     16  N   UNL     1       5.307   5.052  15.834  0.00  0.00    +0.000 NA
ATOM     17  C   UNL     1       6.532   5.087  15.225  0.00  0.00    +0.000 A 
ATOM     18  N   UNL     1       7.410   5.943  15.766  0.00  0.00    +0.000 NA
ATOM     19  O   UNL     1       6.684   6.532  16.804  0.00  0.00    +0.000 OA
BRANCH  17  20
ATOM     20  C   UNL     1       6.853   4.260  14.037  0.00  0.00    +0.000 C 
ATOM     21  C   UNL     1       5.625   3.684  13.337  0.00  0.00    +0.000 C 
ATOM     22  C   UNL     1       6.156   3.260  11.974  0.00  0.00    +0.000 C 
ATOM     23  C   UNL     1       7.304   4.216  11.657  0.00  0.00    +0.000 C 
ATOM     24  C   UNL     1       7.526   5.052  12.915  0.00  0.00    +0.000 C 
ENDBRANCH  17  20
ENDBRANCH  14  15
ENDBRANCH   1  14
TORSDOF 5
ENDMDL
MODEL 8
REMARK VINA RESULT:      -7.6      1.546      1.902
REMARK  Name = 
REMARK  5 active torsions:
REMARK  status: ('A' for Active; 'I' for Inactive)
REMARK    1  A    between atoms: C_2  and  C_4
REMARK    2  A    between atoms: C_9  and  N_10
REMARK    3  A    between atoms: N_10  and  C_11
REMARK    4  A    between atoms: C_11  and  C_12
REMARK    5  A    between atoms: C_14  and  C_15
REMARK                            x       y       z     vdW  Elec       q    Type
REMARK                         _______ _______ _______ _____ _____    ______ ____
ROOT
ATOM      1  N   UNL     1       4.764   5.517  19.227  0.00  0.00    +0.000 NA
ATOM      2  H   UNL     1       5.029   6.240  19.901  0.00  0.00    +0.000 HD
ENDROOT
BRANCH   1   8
ATOM      3  C   UNL     1       3.364   3.444  18.938  0.00  0.00    +0.000 C 
ATOM      4  C   UNL     1       2.789   3.802  17.560  0.00  0.00    +0.000 C 
ATOM      5  C   UNL     1       1.565   4.708  17.661  0.00  0.00    +0.000 C 
ATOM      6  C   UNL     1       1.865   5.972  18.457  0.00  0.00    +0.000 C 
ATOM      7  C   UNL     1       2.419   5.637  19.843  0.00  0.00    +0.000 C 
ATOM      8  C   UNL     1       3.656   4.710  19.788  0.00  0.00    +0.000 C 
BRANCH   3  10
ATOM      9  N   UNL     1       1.937   1.472  18.867  0.00  0.00    +0.000 N 
ATOM     10  C   UNL     1       2.500   2.423  19.673  0.00  0.00    +0.000 C 
ATOM     11  O   UNL     1       2.338   2.386  20.886  0.00  0.00    +0.000 OA
ATOM     12  H   UNL     1       1.385   0.742  19.299  0.00  0.00    +0.000 HD
ATOM     13  H   UNL     1       2.083   1.437  17.868  0.00  0.00    +0.000 HD
ENDBRANCH   3  10
ENDBRANCH   1   8
BRANCH   1  14
ATOM     14  C   UNL     1       5.962   4.745  18.871  0.00  0.00    +0.000 C 
BRANCH  14  15
ATOM     15  C   UNL     1       6.377   4.996  17.466  0.00  0.00    +0.000 A 
ATOM     16  N   UNL     1       5.885   4.504  16.346  0.00  0.00    +0.000 NA
ATOM     17  C   UNL     1       6.657   5.122  15.399  0.00  0.00    +0.000 A 
ATOM     18  N   UNL     1       7.606   5.934  15.883  0.00  0.00    +0.000 NA
ATOM     19  O   UNL     1       7.421   5.854  17.266  0.00  0.00    +0.000 OA
BRANCH  17  20
ATOM     20  C   UNL     1       6.438   4.928  13.946  0.00  0.00    +0.000 C 
ATOM     21  C   UNL     1       7.723   4.947  13.121  0.00  0.00    +0.000 C 
ATOM     22  C   UNL     1       7.306   4.327  11.794  0.00  0.00    +0.000 C 
ATOM     23  C   UNL     1       6.178   3.350  12.125  0.00  0.00    +0.000 C 
ATOM     24  C   UNL     1       5.850   3.559  13.601  0.00  0.00    +0.000 C 
ENDBRANCH  17  20
ENDBRANCH  14  15
ENDBRANCH   1  14
TORSDOF 5
ENDMDL
MODEL 9
REMARK VINA RESULT:      -7.6      5.987      8.649
REMARK  Name = 
REMARK  5 active torsions:
REMARK  status: ('A' for Active; 'I' for Inactive)
REMARK    1  A    between atoms: C_2  and  C_4
REMARK    2  A    between atoms: C_9  and  N_10
REMARK    3  A    between atoms: N_10  and  C_11
REMARK    4  A    between atoms: C_11  and  C_12
REMARK    5  A    between atoms: C_14  and  C_15
REMARK                            x       y       z     vdW  Elec       q    Type
REMARK                         _______ _______ _______ _____ _____    ______ ____
ROOT
ATOM      1  N   UNL     1       8.924  10.338  18.737  0.00  0.00    +0.000 NA
ATOM      2  H   UNL     1       8.327  10.196  19.555  0.00  0.00    +0.000 HD
ENDROOT
BRANCH   1   8
ATOM      3  C   UNL     1      10.534  12.021  17.780  0.00  0.00    +0.000 C 
ATOM      4  C   UNL     1      11.787  11.508  18.503  0.00  0.00    +0.000 C 
ATOM      5  C   UNL     1      11.914  12.075  19.915  0.00  0.00    +0.000 C 
ATOM      6  C   UNL     1      10.668  11.796  20.747  0.00  0.00    +0.000 C 
ATOM      7  C   UNL     1       9.409  12.319  20.053  0.00  0.00    +0.000 C 
ATOM      8  C   UNL     1       9.247  11.778  18.613  0.00  0.00    +0.000 C 
BRANCH   3  10
ATOM      9  N   UNL     1       9.507  14.163  17.240  0.00  0.00    +0.000 N 
ATOM     10  C   UNL     1      10.684  13.472  17.330  0.00  0.00    +0.000 C 
ATOM     11  O   UNL     1      11.752  14.029  17.107  0.00  0.00    +0.000 OA
ATOM     12  H   UNL     1       9.544  15.142  16.986  0.00  0.00    +0.000 HD
ATOM     13  H   UNL     1       8.610  13.756  17.460  0.00  0.00    +0.000 HD
ENDBRANCH   3  10
ENDBRANCH   1   8
BRANCH   1  14
ATOM     14  C   UNL     1       8.260   9.758  17.562  0.00  0.00    +0.000 C 
BRANCH  14  15
ATOM     15  C   UNL     1       7.954   8.317  17.763  0.00  0.00    +0.000 A 
ATOM     16  N   UNL     1       7.227   7.504  17.022  0.00  0.00    +0.000 NA
ATOM     17  C   UNL     1       7.343   6.320  17.700  0.00  0.00    +0.000 A 
ATOM     18  N   UNL     1       8.072   6.379  18.823  0.00  0.00    +0.000 NA
ATOM     19  O   UNL     1       8.485   7.712  18.867  0.00  0.00    +0.000 OA
BRANCH  17  20
ATOM     20  C   UNL     1       6.730   5.061  17.212  0.00  0.00    +0.000 C 
ATOM     21  C   UNL     1       5.206   5.045  17.294  0.00  0.00    +0.000 C 
ATOM     22  C   UNL     1       4.810   3.891  16.383  0.00  0.00    +0.000 C 
ATOM     23  C   UNL     1       5.894   3.817  15.308  0.00  0.00    +0.000 C 
ATOM     24  C   UNL     1       6.979   4.807  15.724  0.00  0.00    +0.000 C 
ENDBRANCH  17  20
ENDBRANCH  14  15
ENDBRANCH   1  14
TORSDOF 5
ENDMDL
