MODEL 1
REMARK VINA RESULT:      -6.6      0.000      0.000
REMARK  Name = 
REMARK  8 active torsions:
REMARK  status: ('A' for Active; 'I' for Inactive)
REMARK    1  A    between atoms: C_1  and  C_2
REMARK    2  A    between atoms: C_9  and  C_10
REMARK    3  A    between atoms: C_10  and  S_11
REMARK    4  A    between atoms: S_11  and  C_12
REMARK    5  A    between atoms: C_12  and  C_13
REMARK    6  A    between atoms: C_13  and  O_14
REMARK    7  A    between atoms: C_13  and  C_15
REMARK    8  A    between atoms: C_15  and  O_16
REMARK                            x       y       z     vdW  Elec       q    Type
REMARK                         _______ _______ _______ _____ _____    ______ ____
ROOT
ATOM      1  C   UNL     1       3.576   1.734  18.434  0.00  0.00    +0.000 C 
ATOM      2  C   UNL     1       2.775   2.771  19.159  0.00  0.00    +0.000 A 
ATOM      3  C   UNL     1       1.922   2.386  20.134  0.00  0.00    +0.000 A 
ATOM      4  C   UNL     1       1.140   3.369  20.857  0.00  0.00    +0.000 A 
ATOM      5  C   UNL     1       1.251   4.675  20.590  0.00  0.00    +0.000 A 
ATOM      6  C   UNL     1       2.152   5.122  19.584  0.00  0.00    +0.000 A 
ATOM      7  N   UNL     1       2.426   6.346  19.201  0.00  0.00    +0.000 NA
ATOM      8  C   UNL     1       3.355   6.210  18.220  0.00  0.00    +0.000 A 
ATOM      9  C   UNL     1       3.639   4.884  17.953  0.00  0.00    +0.000 A 
ATOM     10  N   UNL     1       2.885   4.156  18.873  0.00  0.00    +0.000 N 
ENDROOT
BRANCH   9  11
ATOM     11  C   UNL     1       4.560   4.344  16.922  0.00  0.00    +0.000 C 
BRANCH  11  12
ATOM     12  S   UNL     1       5.396   5.669  15.989  0.00  0.00    +0.000 S 
BRANCH  12  13
ATOM     13  C   UNL     1       7.152   5.351  16.410  0.00  0.00    +0.000 C 
BRANCH  13  14
ATOM     14  C   UNL     1       7.369   4.820  17.833  0.00  0.00    +0.000 C 
BRANCH  14  15
ATOM     15  O   UNL     1       8.535   3.994  17.913  0.00  0.00    +0.000 OA
ATOM     16  H   UNL     1       8.520   3.530  18.769  0.00  0.00    +0.000 HD
ENDBRANCH  14  15
BRANCH  14  17
ATOM     17  C   UNL     1       7.487   5.972  18.841  0.00  0.00    +0.000 C 
BRANCH  17  18
ATOM     18  O   UNL     1       7.732   5.487  20.161  0.00  0.00    +0.000 OA
ATOM     19  H   UNL     1       8.689   5.542  20.334  0.00  0.00    +0.000 HD
ENDBRANCH  17  18
ENDBRANCH  14  17
ENDBRANCH  13  14
ENDBRANCH  12  13
ENDBRANCH  11  12
ENDBRANCH   9  11
TORSDOF 7
ENDMDL
MODEL 2
REMARK VINA RESULT:      -6.2      1.362      2.750
REMARK  Name = 
REMARK  8 active torsions:
REMARK  status: ('A' for Active; 'I' for Inactive)
REMARK    1  A    between atoms: C_1  and  C_2
REMARK    2  A    between atoms: C_9  and  C_10
REMARK    3  A    between atoms: C_10  and  S_11
REMARK    4  A    between atoms: S_11  and  C_12
REMARK    5  A    between atoms: C_12  and  C_13
REMARK    6  A    between atoms: C_13  and  O_14
REMARK    7  A    between atoms: C_13  and  C_15
REMARK    8  A    between atoms: C_15  and  O_16
REMARK                            x       y       z     vdW  Elec       q    Type
REMARK                         _______ _______ _______ _____ _____    ______ ____
ROOT
ATOM      1  C   UNL     1       1.949   6.252  20.487  0.00  0.00    +0.000 C 
ATOM      2  C   UNL     1       1.860   4.821  20.056  0.00  0.00    +0.000 A 
ATOM      3  C   UNL     1       1.106   3.959  20.774  0.00  0.00    +0.000 A 
ATOM      4  C   UNL     1       0.997   2.570  20.376  0.00  0.00    +0.000 A 
ATOM      5  C   UNL     1       1.624   2.110  19.287  0.00  0.00    +0.000 A 
ATOM      6  C   UNL     1       2.413   2.990  18.495  0.00  0.00    +0.000 A 
ATOM      7  N   UNL     1       3.070   2.743  17.387  0.00  0.00    +0.000 NA
ATOM      8  C   UNL     1       3.641   3.926  17.044  0.00  0.00    +0.000 A 
ATOM      9  C   UNL     1       3.373   4.920  17.967  0.00  0.00    +0.000 A 
ATOM     10  N   UNL     1       2.531   4.329  18.907  0.00  0.00    +0.000 N 
ENDROOT
BRANCH   9  11
ATOM     11  C   UNL     1       3.863   6.322  17.958  0.00  0.00    +0.000 C 
BRANCH  11  12
ATOM     12  S   UNL     1       4.996   6.643  16.565  0.00  0.00    +0.000 S 
BRANCH  12  13
ATOM     13  C   UNL     1       6.628   6.493  17.388  0.00  0.00    +0.000 C 
BRANCH  13  14
ATOM     14  C   UNL     1       7.305   5.130  17.191  0.00  0.00    +0.000 C 
BRANCH  14  15
ATOM     15  O   UNL     1       6.860   4.178  18.162  0.00  0.00    +0.000 OA
ATOM     16  H   UNL     1       7.633   3.664  18.459  0.00  0.00    +0.000 HD
ENDBRANCH  14  15
BRANCH  14  17
ATOM     17  C   UNL     1       7.045   4.582  15.781  0.00  0.00    +0.000 C 
BRANCH  17  18
ATOM     18  O   UNL     1       7.775   5.311  14.795  0.00  0.00    +0.000 OA
ATOM     19  H   UNL     1       8.373   5.929  15.252  0.00  0.00    +0.000 HD
ENDBRANCH  17  18
ENDBRANCH  14  17
ENDBRANCH  13  14
ENDBRANCH  12  13
ENDBRANCH  11  12
ENDBRANCH   9  11
TORSDOF 7
ENDMDL
MODEL 3
REMARK VINA RESULT:      -6.1      1.071      1.312
REMARK  Name = 
REMARK  8 active torsions:
REMARK  status: ('A' for Active; 'I' for Inactive)
REMARK    1  A    between atoms: C_1  and  C_2
REMARK    2  A    between atoms: C_9  and  C_10
REMARK    3  A    between atoms: C_10  and  S_11
REMARK    4  A    between atoms: S_11  and  C_12
REMARK    5  A    between atoms: C_12  and  C_13
REMARK    6  A    between atoms: C_13  and  O_14
REMARK    7  A    between atoms: C_13  and  C_15
REMARK    8  A    between atoms: C_15  and  O_16
REMARK                            x       y       z     vdW  Elec       q    Type
REMARK                         _______ _______ _______ _____ _____    ______ ____
ROOT
ATOM      1  C   UNL     1       3.571   1.514  18.769  0.00  0.00    +0.000 C 
ATOM      2  C   UNL     1       2.806   2.674  19.324  0.00  0.00    +0.000 A 
ATOM      3  C   UNL     1       1.969   2.477  20.367  0.00  0.00    +0.000 A 
ATOM      4  C   UNL     1       1.221   3.584  20.930  0.00  0.00    +0.000 A 
ATOM      5  C   UNL     1       1.350   4.825  20.444  0.00  0.00    +0.000 A 
ATOM      6  C   UNL     1       2.234   5.076  19.359  0.00  0.00    +0.000 A 
ATOM      7  N   UNL     1       2.521   6.212  18.770  0.00  0.00    +0.000 NA
ATOM      8  C   UNL     1       3.424   5.894  17.807  0.00  0.00    +0.000 A 
ATOM      9  C   UNL     1       3.679   4.535  17.762  0.00  0.00    +0.000 A 
ATOM     10  N   UNL     1       2.933   3.989  18.806  0.00  0.00    +0.000 N 
ENDROOT
BRANCH   9  11
ATOM     11  C   UNL     1       4.565   3.810  16.818  0.00  0.00    +0.000 C 
BRANCH  11  12
ATOM     12  S   UNL     1       5.862   4.891  16.127  0.00  0.00    +0.000 S 
BRANCH  12  13
ATOM     13  C   UNL     1       7.127   4.827  17.453  0.00  0.00    +0.000 C 
BRANCH  13  14
ATOM     14  C   UNL     1       6.962   5.910  18.528  0.00  0.00    +0.000 C 
BRANCH  14  15
ATOM     15  O   UNL     1       7.125   5.372  19.844  0.00  0.00    +0.000 OA
ATOM     16  H   UNL     1       8.079   5.303  20.027  0.00  0.00    +0.000 HD
ENDBRANCH  14  15
BRANCH  14  17
ATOM     17  C   UNL     1       7.962   7.055  18.317  0.00  0.00    +0.000 C 
BRANCH  17  18
ATOM     18  O   UNL     1       7.747   7.711  17.068  0.00  0.00    +0.000 OA
ATOM     19  H   UNL     1       7.672   7.031  16.374  0.00  0.00    +0.000 HD
ENDBRANCH  17  18
ENDBRANCH  14  17
ENDBRANCH  13  14
ENDBRANCH  12  13
ENDBRANCH  11  12
ENDBRANCH   9  11
TORSDOF 7
ENDMDL
MODEL 4
REMARK VINA RESULT:      -6.1      1.197      2.519
REMARK  Name = 
REMARK  8 active torsions:
REMARK  status: ('A' for Active; 'I' for Inactive)
REMARK    1  A    between atoms: C_1  and  C_2
REMARK    2  A    between atoms: C_9  and  C_10
REMARK    3  A    between atoms: C_10  and  S_11
REMARK    4  A    between atoms: S_11  and  C_12
REMARK    5  A    between atoms: C_12  and  C_13
REMARK    6  A    between atoms: C_13  and  O_14
REMARK    7  A    between atoms: C_13  and  C_15
REMARK    8  A    between atoms: C_15  and  O_16
REMARK                            x       y       z     vdW  Elec       q    Type
REMARK                         _______ _______ _______ _____ _____    ______ ____
ROOT
ATOM      1  C   UNL     1       2.873   6.579  18.753  0.00  0.00    +0.000 C 
ATOM      2  C   UNL     1       2.484   5.227  19.262  0.00  0.00    +0.000 A 
ATOM      3  C   UNL     1       1.603   5.132  20.283  0.00  0.00    +0.000 A 
ATOM      4  C   UNL     1       1.203   3.834  20.791  0.00  0.00    +0.000 A 
ATOM      5  C   UNL     1       1.682   2.704  20.258  0.00  0.00    +0.000 A 
ATOM      6  C   UNL     1       2.598   2.762  19.171  0.00  0.00    +0.000 A 
ATOM      7  N   UNL     1       3.148   1.779  18.498  0.00  0.00    +0.000 NA
ATOM      8  C   UNL     1       3.929   2.383  17.567  0.00  0.00    +0.000 A 
ATOM      9  C   UNL     1       3.902   3.761  17.679  0.00  0.00    +0.000 A 
ATOM     10  N   UNL     1       2.996   4.026  18.705  0.00  0.00    +0.000 N 
ENDROOT
BRANCH   9  11
ATOM     11  C   UNL     1       4.660   4.751  16.874  0.00  0.00    +0.000 C 
BRANCH  11  12
ATOM     12  S   UNL     1       6.201   4.048  16.196  0.00  0.00    +0.000 S 
BRANCH  12  13
ATOM     13  C   UNL     1       7.423   4.582  17.455  0.00  0.00    +0.000 C 
BRANCH  13  14
ATOM     14  C   UNL     1       6.920   5.697  18.382  0.00  0.00    +0.000 C 
BRANCH  14  15
ATOM     15  O   UNL     1       7.116   5.361  19.759  0.00  0.00    +0.000 OA
ATOM     16  H   UNL     1       7.896   5.849  20.082  0.00  0.00    +0.000 HD
ENDBRANCH  14  15
BRANCH  14  17
ATOM     17  C   UNL     1       7.619   7.028  18.076  0.00  0.00    +0.000 C 
BRANCH  17  18
ATOM     18  O   UNL     1       8.620   7.328  19.048  0.00  0.00    +0.000 OA
ATOM     19  H   UNL     1       9.201   8.021  18.684  0.00  0.00    +0.000 HD
ENDBRANCH  17  18
ENDBRANCH  14  17
ENDBRANCH  13  14
ENDBRANCH  12  13
ENDBRANCH  11  12
ENDBRANCH   9  11
TORSDOF 7
ENDMDL
MODEL 5
REMARK VINA RESULT:      -6.1      1.416      1.468
REMARK  Name = 
REMARK  8 active torsions:
REMARK  status: ('A' for Active; 'I' for Inactive)
REMARK    1  A    between atoms: C_1  and  C_2
REMARK    2  A    between atoms: C_9  and  C_10
REMARK    3  A    between atoms: C_10  and  S_11
REMARK    4  A    between atoms: S_11  and  C_12
REMARK    5  A    between atoms: C_12  and  C_13
REMARK    6  A    between atoms: C_13  and  O_14
REMARK    7  A    between atoms: C_13  and  C_15
REMARK    8  A    between atoms: C_15  and  O_16
REMARK                            x       y       z     vdW  Elec       q    Type
REMARK                         _______ _______ _______ _____ _____    ______ ____
ROOT
ATOM      1  C   UNL     1       4.981   2.517  20.333  0.00  0.00    +0.000 C 
ATOM      2  C   UNL     1       3.509   2.771  20.235  0.00  0.00    +0.000 A 
ATOM      3  C   UNL     1       2.723   2.534  21.310  0.00  0.00    +0.000 A 
ATOM      4  C   UNL     1       1.296   2.778  21.245  0.00  0.00    +0.000 A 
ATOM      5  C   UNL     1       0.724   3.254  20.132  0.00  0.00    +0.000 A 
ATOM      6  C   UNL     1       1.519   3.532  18.986  0.00  0.00    +0.000 A 
ATOM      7  N   UNL     1       1.157   4.027  17.827  0.00  0.00    +0.000 NA
ATOM      8  C   UNL     1       2.301   4.098  17.100  0.00  0.00    +0.000 A 
ATOM      9  C   UNL     1       3.391   3.605  17.795  0.00  0.00    +0.000 A 
ATOM     10  N   UNL     1       2.898   3.267  19.054  0.00  0.00    +0.000 N 
ENDROOT
BRANCH   9  11
ATOM     11  C   UNL     1       4.789   3.474  17.314  0.00  0.00    +0.000 C 
BRANCH  11  12
ATOM     12  S   UNL     1       5.180   4.685  16.007  0.00  0.00    +0.000 S 
BRANCH  12  13
ATOM     13  C   UNL     1       6.854   5.234  16.515  0.00  0.00    +0.000 C 
BRANCH  13  14
ATOM     14  C   UNL     1       7.277   4.746  17.907  0.00  0.00    +0.000 C 
BRANCH  14  15
ATOM     15  O   UNL     1       8.475   3.966  17.848  0.00  0.00    +0.000 OA
ATOM     16  H   UNL     1       8.255   3.100  17.459  0.00  0.00    +0.000 HD
ENDBRANCH  14  15
BRANCH  14  17
ATOM     17  C   UNL     1       7.482   5.926  18.867  0.00  0.00    +0.000 C 
BRANCH  17  18
ATOM     18  O   UNL     1       7.783   5.477  20.188  0.00  0.00    +0.000 OA
ATOM     19  H   UNL     1       7.023   5.682  20.762  0.00  0.00    +0.000 HD
ENDBRANCH  17  18
ENDBRANCH  14  17
ENDBRANCH  13  14
ENDBRANCH  12  13
ENDBRANCH  11  12
ENDBRANCH   9  11
TORSDOF 7
ENDMDL
MODEL 6
REMARK VINA RESULT:      -6.1      1.207      2.360
REMARK  Name = 
REMARK  8 active torsions:
REMARK  status: ('A' for Active; 'I' for Inactive)
REMARK    1  A    between atoms: C_1  and  C_2
REMARK    2  A    between atoms: C_9  and  C_10
REMARK    3  A    between atoms: C_10  and  S_11
REMARK    4  A    between atoms: S_11  and  C_12
REMARK    5  A    between atoms: C_12  and  C_13
REMARK    6  A    between atoms: C_13  and  O_14
REMARK    7  A    between atoms: C_13  and  C_15
REMARK    8  A    between atoms: C_15  and  O_16
REMARK                            x       y       z     vdW  Elec       q    Type
REMARK                         _______ _______ _______ _____ _____    ______ ____
ROOT
ATOM      1  C   UNL     1       2.494   6.564  19.810  0.00  0.00    +0.000 C 
ATOM      2  C   UNL     1       2.140   5.113  19.711  0.00  0.00    +0.000 A 
ATOM      3  C   UNL     1       1.316   4.568  20.633  0.00  0.00    +0.000 A 
ATOM      4  C   UNL     1       0.952   3.167  20.557  0.00  0.00    +0.000 A 
ATOM      5  C   UNL     1       1.408   2.385  19.571  0.00  0.00    +0.000 A 
ATOM      6  C   UNL     1       2.262   2.926  18.571  0.00  0.00    +0.000 A 
ATOM      7  N   UNL     1       2.780   2.340  17.518  0.00  0.00    +0.000 NA
ATOM      8  C   UNL     1       3.506   3.305  16.897  0.00  0.00    +0.000 A 
ATOM      9  C   UNL     1       3.477   4.503  17.588  0.00  0.00    +0.000 A 
ATOM     10  N   UNL     1       2.628   4.280  18.671  0.00  0.00    +0.000 N 
ENDROOT
BRANCH   9  11
ATOM     11  C   UNL     1       4.185   5.763  17.248  0.00  0.00    +0.000 C 
BRANCH  11  12
ATOM     12  S   UNL     1       5.557   5.484  16.079  0.00  0.00    +0.000 S 
BRANCH  12  13
ATOM     13  C   UNL     1       6.774   4.629  17.152  0.00  0.00    +0.000 C 
BRANCH  13  14
ATOM     14  C   UNL     1       7.581   5.571  18.057  0.00  0.00    +0.000 C 
BRANCH  14  15
ATOM     15  O   UNL     1       7.585   6.909  17.550  0.00  0.00    +0.000 OA
ATOM     16  H   UNL     1       8.430   7.056  17.089  0.00  0.00    +0.000 HD
ENDBRANCH  14  15
BRANCH  14  17
ATOM     17  C   UNL     1       7.028   5.567  19.489  0.00  0.00    +0.000 C 
BRANCH  17  18
ATOM     18  O   UNL     1       8.074   5.444  20.451  0.00  0.00    +0.000 OA
ATOM     19  H   UNL     1       8.927   5.543  19.990  0.00  0.00    +0.000 HD
ENDBRANCH  17  18
ENDBRANCH  14  17
ENDBRANCH  13  14
ENDBRANCH  12  13
ENDBRANCH  11  12
ENDBRANCH   9  11
TORSDOF 7
ENDMDL
MODEL 7
REMARK VINA RESULT:      -6.0      2.031      2.584
REMARK  Name = 
REMARK  8 active torsions:
REMARK  status: ('A' for Active; 'I' for Inactive)
REMARK    1  A    between atoms: C_1  and  C_2
REMARK    2  A    between atoms: C_9  and  C_10
REMARK    3  A    between atoms: C_10  and  S_11
REMARK    4  A    between atoms: S_11  and  C_12
REMARK    5  A    between atoms: C_12  and  C_13
REMARK    6  A    between atoms: C_13  and  O_14
REMARK    7  A    between atoms: C_13  and  C_15
REMARK    8  A    between atoms: C_15  and  O_16
REMARK                            x       y       z     vdW  Elec       q    Type
REMARK                         _______ _______ _______ _____ _____    ______ ____
ROOT
ATOM      1  C   UNL     1       3.644   2.310  17.819  0.00  0.00    +0.000 C 
ATOM      2  C   UNL     1       2.745   3.040  18.767  0.00  0.00    +0.000 A 
ATOM      3  C   UNL     1       1.852   2.342  19.503  0.00  0.00    +0.000 A 
ATOM      4  C   UNL     1       0.973   3.022  20.434  0.00  0.00    +0.000 A 
ATOM      5  C   UNL     1       1.032   4.349  20.597  0.00  0.00    +0.000 A 
ATOM      6  C   UNL     1       1.970   5.117  19.854  0.00  0.00    +0.000 A 
ATOM      7  N   UNL     1       2.203   6.408  19.896  0.00  0.00    +0.000 NA
ATOM      8  C   UNL     1       3.199   6.616  18.997  0.00  0.00    +0.000 A 
ATOM      9  C   UNL     1       3.571   5.451  18.352  0.00  0.00    +0.000 A 
ATOM     10  N   UNL     1       2.799   4.448  18.937  0.00  0.00    +0.000 N 
ENDROOT
BRANCH   9  11
ATOM     11  C   UNL     1       4.583   5.292  17.279  0.00  0.00    +0.000 C 
BRANCH  11  12
ATOM     12  S   UNL     1       6.275   5.159  17.946  0.00  0.00    +0.000 S 
BRANCH  12  13
ATOM     13  C   UNL     1       7.182   4.499  16.496  0.00  0.00    +0.000 C 
BRANCH  13  14
ATOM     14  C   UNL     1       6.661   5.009  15.146  0.00  0.00    +0.000 C 
BRANCH  14  15
ATOM     15  O   UNL     1       7.730   5.448  14.303  0.00  0.00    +0.000 OA
ATOM     16  H   UNL     1       7.416   6.211  13.785  0.00  0.00    +0.000 HD
ENDBRANCH  14  15
BRANCH  14  17
ATOM     17  C   UNL     1       5.850   3.925  14.422  0.00  0.00    +0.000 C 
BRANCH  17  18
ATOM     18  O   UNL     1       6.538   3.444  13.267  0.00  0.00    +0.000 OA
ATOM     19  H   UNL     1       7.495   3.476  13.446  0.00  0.00    +0.000 HD
ENDBRANCH  17  18
ENDBRANCH  14  17
ENDBRANCH  13  14
ENDBRANCH  12  13
ENDBRANCH  11  12
ENDBRANCH   9  11
TORSDOF 7
ENDMDL
MODEL 8
REMARK VINA RESULT:      -6.0      1.630      2.475
REMARK  Name = 
REMARK  8 active torsions:
REMARK  status: ('A' for Active; 'I' for Inactive)
REMARK    1  A    between atoms: C_1  and  C_2
REMARK    2  A    between atoms: C_9  and  C_10
REMARK    3  A    between atoms: C_10  and  S_11
REMARK    4  A    between atoms: S_11  and  C_12
REMARK    5  A    between atoms: C_12  and  C_13
REMARK    6  A    between atoms: C_13  and  O_14
REMARK    7  A    between atoms: C_13  and  C_15
REMARK    8  A    between atoms: C_15  and  O_16
REMARK                            x       y       z     vdW  Elec       q    Type
REMARK                         _______ _______ _______ _____ _____    ______ ____
ROOT
ATOM      1  C   UNL     1       1.190   4.274  17.633  0.00  0.00    +0.000 C 
ATOM      2  C   UNL     1       1.651   3.710  18.941  0.00  0.00    +0.000 A 
ATOM      3  C   UNL     1       0.765   3.573  19.952  0.00  0.00    +0.000 A 
ATOM      4  C   UNL     1       1.182   3.023  21.227  0.00  0.00    +0.000 A 
ATOM      5  C   UNL     1       2.445   2.628  21.430  0.00  0.00    +0.000 A 
ATOM      6  C   UNL     1       3.403   2.740  20.385  0.00  0.00    +0.000 A 
ATOM      7  N   UNL     1       4.665   2.381  20.376  0.00  0.00    +0.000 NA
ATOM      8  C   UNL     1       5.114   2.700  19.135  0.00  0.00    +0.000 A 
ATOM      9  C   UNL     1       4.135   3.303  18.367  0.00  0.00    +0.000 A 
ATOM     10  N   UNL     1       2.991   3.298  19.163  0.00  0.00    +0.000 N 
ENDROOT
BRANCH   9  11
ATOM     11  C   UNL     1       4.264   3.831  16.986  0.00  0.00    +0.000 C 
BRANCH  11  12
ATOM     12  S   UNL     1       4.589   5.626  16.965  0.00  0.00    +0.000 S 
BRANCH  12  13
ATOM     13  C   UNL     1       6.230   5.685  16.150  0.00  0.00    +0.000 C 
BRANCH  13  14
ATOM     14  C   UNL     1       7.348   6.252  17.035  0.00  0.00    +0.000 C 
BRANCH  14  15
ATOM     15  O   UNL     1       7.005   7.541  17.552  0.00  0.00    +0.000 OA
ATOM     16  H   UNL     1       6.811   7.446  18.502  0.00  0.00    +0.000 HD
ENDBRANCH  14  15
BRANCH  14  17
ATOM     17  C   UNL     1       7.667   5.303  18.198  0.00  0.00    +0.000 C 
BRANCH  17  18
ATOM     18  O   UNL     1       8.195   4.062  17.730  0.00  0.00    +0.000 OA
ATOM     19  H   UNL     1       8.138   4.054  16.757  0.00  0.00    +0.000 HD
ENDBRANCH  17  18
ENDBRANCH  14  17
ENDBRANCH  13  14
ENDBRANCH  12  13
ENDBRANCH  11  12
ENDBRANCH   9  11
TORSDOF 7
ENDMDL
MODEL 9
REMARK VINA RESULT:      -6.0      1.688      2.698
REMARK  Name = 
REMARK  8 active torsions:
REMARK  status: ('A' for Active; 'I' for Inactive)
REMARK    1  A    between atoms: C_1  and  C_2
REMARK    2  A    between atoms: C_9  and  C_10
REMARK    3  A    between atoms: C_10  and  S_11
REMARK    4  A    between atoms: S_11  and  C_12
REMARK    5  A    between atoms: C_12  and  C_13
REMARK    6  A    between atoms: C_13  and  O_14
REMARK    7  A    between atoms: C_13  and  C_15
REMARK    8  A    between atoms: C_15  and  O_16
REMARK                            x       y       z     vdW  Elec       q    Type
REMARK                         _______ _______ _______ _____ _____    ______ ____
ROOT
ATOM      1  C   UNL     1       1.254   4.263  17.734  0.00  0.00    +0.000 C 
ATOM      2  C   UNL     1       1.677   3.703  19.057  0.00  0.00    +0.000 A 
ATOM      3  C   UNL     1       0.776   3.626  20.061  0.00  0.00    +0.000 A 
ATOM      4  C   UNL     1       1.156   3.082  21.350  0.00  0.00    +0.000 A 
ATOM      5  C   UNL     1       2.396   2.631  21.573  0.00  0.00    +0.000 A 
ATOM      6  C   UNL     1       3.368   2.679  20.536  0.00  0.00    +0.000 A 
ATOM      7  N   UNL     1       4.611   2.262  20.546  0.00  0.00    +0.000 NA
ATOM      8  C   UNL     1       5.086   2.536  19.304  0.00  0.00    +0.000 A 
ATOM      9  C   UNL     1       4.144   3.169  18.515  0.00  0.00    +0.000 A 
ATOM     10  N   UNL     1       2.993   3.232  19.299  0.00  0.00    +0.000 N 
ENDROOT
BRANCH   9  11
ATOM     11  C   UNL     1       4.310   3.665  17.125  0.00  0.00    +0.000 C 
BRANCH  11  12
ATOM     12  S   UNL     1       4.580   5.468  17.068  0.00  0.00    +0.000 S 
BRANCH  12  13
ATOM     13  C   UNL     1       6.152   5.625  18.000  0.00  0.00    +0.000 C 
BRANCH  13  14
ATOM     14  C   UNL     1       7.385   5.123  17.236  0.00  0.00    +0.000 C 
BRANCH  14  15
ATOM     15  O   UNL     1       7.977   3.992  17.882  0.00  0.00    +0.000 OA
ATOM     16  H   UNL     1       8.023   4.178  18.837  0.00  0.00    +0.000 HD
ENDBRANCH  14  15
BRANCH  14  17
ATOM     17  C   UNL     1       7.027   4.757  15.789  0.00  0.00    +0.000 C 
BRANCH  17  18
ATOM     18  O   UNL     1       7.604   5.674  14.861  0.00  0.00    +0.000 OA
ATOM     19  H   UNL     1       8.514   5.383  14.669  0.00  0.00    +0.000 HD
ENDBRANCH  17  18
ENDBRANCH  14  17
ENDBRANCH  13  14
ENDBRANCH  12  13
ENDBRANCH  11  12
ENDBRANCH   9  11
TORSDOF 7
ENDMDL
