MODEL 1
REMARK VINA RESULT:      -7.5      0.000      0.000
REMARK  Name = 
REMARK  8 active torsions:
REMARK  status: ('A' for Active; 'I' for Inactive)
REMARK    1  A    between atoms: C_2  and  C_3
REMARK    2  A    between atoms: C_3  and  O_4
REMARK    3  A    between atoms: O_4  and  C_5
REMARK    4  A    between atoms: C_8  and  C_9
REMARK    5  A    between atoms: C_17  and  C_18
REMARK    6  A    between atoms: C_18  and  C_19
REMARK    7  A    between atoms: C_24  and  O_25
REMARK    8  A    between atoms: O_25  and  C_26
REMARK                            x       y       z     vdW  Elec       q    Type
REMARK                         _______ _______ _______ _____ _____    ______ ____
ROOT
ATOM      1  C   UNL     1       0.993   8.775  20.631  0.00  0.00    +0.000 A 
ATOM      2  C   UNL     1       1.275   8.977  21.935  0.00  0.00    +0.000 A 
ATOM      3  C   UNL     1       0.339   9.748  22.713  0.00  0.00    +0.000 A 
ATOM      4  O   UNL     1       0.261   9.585  23.937  0.00  0.00    +0.000 OA
ATOM      5  C   UNL     1      -0.448  10.728  22.003  0.00  0.00    +0.000 A 
ATOM      6  C   UNL     1      -0.959  11.796  22.749  0.00  0.00    +0.000 A 
ATOM      7  C   UNL     1      -1.534  12.867  22.092  0.00  0.00    +0.000 A 
ATOM      8  C   UNL     1      -1.611  12.832  20.705  0.00  0.00    +0.000 A 
ATOM      9  C   UNL     1      -1.125  11.734  19.936  0.00  0.00    +0.000 A 
ATOM     10  C   UNL     1      -0.519  10.648  20.606  0.00  0.00    +0.000 A 
ATOM     11  O   UNL     1       0.034   9.548  19.937  0.00  0.00    +0.000 OA
ENDROOT
BRANCH   1  15
ATOM     12  C   UNL     1       3.111   5.616  18.444  0.00  0.00    +0.000 A 
ATOM     13  C   UNL     1       2.995   6.923  17.938  0.00  0.00    +0.000 A 
ATOM     14  C   UNL     1       2.375   7.953  18.664  0.00  0.00    +0.000 A 
ATOM     15  C   UNL     1       1.807   7.736  19.934  0.00  0.00    +0.000 A 
ATOM     16  C   UNL     1       2.035   6.480  20.478  0.00  0.00    +0.000 A 
ATOM     17  C   UNL     1       2.658   5.408  19.758  0.00  0.00    +0.000 A 
BRANCH  17  18
ATOM     18  O   UNL     1       2.665   4.342  20.605  0.00  0.00    +0.000 OA
ATOM     19  C   UNL     1       1.531   3.618  20.996  0.00  0.00    +0.000 C 
ENDBRANCH  17  18
BRANCH  12  20
ATOM     20  O   UNL     1       3.726   4.808  17.517  0.00  0.00    +0.000 OA
BRANCH  20  21
ATOM     21  C   UNL     1       5.142   4.724  17.490  0.00  0.00    +0.000 C 
BRANCH  21  23
ATOM     22  C   UNL     1       5.623   4.907  14.971  0.00  0.00    +0.000 C 
ATOM     23  C   UNL     1       5.747   4.323  16.168  0.00  0.00    +0.000 C 
ENDBRANCH  21  23
ENDBRANCH  20  21
ENDBRANCH  12  20
ENDBRANCH   1  15
BRANCH   9  24
ATOM     24  C   UNL     1      -1.263  11.884  18.438  0.00  0.00    +0.000 C 
BRANCH  24  25
ATOM     25  C   UNL     1      -2.304  11.022  17.765  0.00  0.00    +0.000 C 
ATOM     26  C   UNL     1      -2.110   9.902  17.055  0.00  0.00    +0.000 C 
ENDBRANCH  24  25
ENDBRANCH   9  24
TORSDOF 7
ENDMDL
MODEL 2
REMARK VINA RESULT:      -7.4      1.783      8.161
REMARK  Name = 
REMARK  8 active torsions:
REMARK  status: ('A' for Active; 'I' for Inactive)
REMARK    1  A    between atoms: C_2  and  C_3
REMARK    2  A    between atoms: C_3  and  O_4
REMARK    3  A    between atoms: O_4  and  C_5
REMARK    4  A    between atoms: C_8  and  C_9
REMARK    5  A    between atoms: C_17  and  C_18
REMARK    6  A    between atoms: C_18  and  C_19
REMARK    7  A    between atoms: C_24  and  O_25
REMARK    8  A    between atoms: O_25  and  C_26
REMARK                            x       y       z     vdW  Elec       q    Type
REMARK                         _______ _______ _______ _____ _____    ______ ____
ROOT
ATOM      1  C   UNL     1       2.465   6.995  18.366  0.00  0.00    +0.000 A 
ATOM      2  C   UNL     1       3.724   7.132  17.902  0.00  0.00    +0.000 A 
ATOM      3  C   UNL     1       4.264   6.064  17.100  0.00  0.00    +0.000 A 
ATOM      4  O   UNL     1       5.161   6.292  16.278  0.00  0.00    +0.000 OA
ATOM      5  C   UNL     1       3.743   4.739  17.340  0.00  0.00    +0.000 A 
ATOM      6  C   UNL     1       4.556   3.660  16.979  0.00  0.00    +0.000 A 
ATOM      7  C   UNL     1       4.203   2.384  17.376  0.00  0.00    +0.000 A 
ATOM      8  C   UNL     1       3.030   2.213  18.101  0.00  0.00    +0.000 A 
ATOM      9  C   UNL     1       2.176   3.303  18.445  0.00  0.00    +0.000 A 
ATOM     10  C   UNL     1       2.546   4.608  18.057  0.00  0.00    +0.000 A 
ATOM     11  O   UNL     1       1.800   5.747  18.390  0.00  0.00    +0.000 OA
ENDROOT
BRANCH   1  15
ATOM     12  C   UNL     1       0.899  10.718  20.080  0.00  0.00    +0.000 A 
ATOM     13  C   UNL     1       1.130  10.573  18.701  0.00  0.00    +0.000 A 
ATOM     14  C   UNL     1       1.570   9.361  18.140  0.00  0.00    +0.000 A 
ATOM     15  C   UNL     1       1.831   8.224  18.927  0.00  0.00    +0.000 A 
ATOM     16  C   UNL     1       1.482   8.337  20.265  0.00  0.00    +0.000 A 
ATOM     17  C   UNL     1       1.038   9.561  20.866  0.00  0.00    +0.000 A 
BRANCH  17  18
ATOM     18  O   UNL     1       0.835   9.280  22.183  0.00  0.00    +0.000 OA
ATOM     19  C   UNL     1      -0.267   9.708  22.935  0.00  0.00    +0.000 C 
ENDBRANCH  17  18
BRANCH  12  20
ATOM     20  O   UNL     1       0.511  12.008  20.356  0.00  0.00    +0.000 OA
BRANCH  20  21
ATOM     21  C   UNL     1      -0.427  12.654  19.509  0.00  0.00    +0.000 C 
BRANCH  21  23
ATOM     22  C   UNL     1      -2.388  12.510  21.165  0.00  0.00    +0.000 C 
ATOM     23  C   UNL     1      -1.870  12.546  19.933  0.00  0.00    +0.000 C 
ENDBRANCH  21  23
ENDBRANCH  20  21
ENDBRANCH  12  20
ENDBRANCH   1  15
BRANCH   9  24
ATOM     24  C   UNL     1       0.960   2.933  19.266  0.00  0.00    +0.000 C 
BRANCH  24  25
ATOM     25  C   UNL     1       1.029   3.225  20.746  0.00  0.00    +0.000 C 
ATOM     26  C   UNL     1       2.081   3.078  21.564  0.00  0.00    +0.000 C 
ENDBRANCH  24  25
ENDBRANCH   9  24
TORSDOF 7
ENDMDL
MODEL 3
REMARK VINA RESULT:      -7.4      1.994      7.791
REMARK  Name = 
REMARK  8 active torsions:
REMARK  status: ('A' for Active; 'I' for Inactive)
REMARK    1  A    between atoms: C_2  and  C_3
REMARK    2  A    between atoms: C_3  and  O_4
REMARK    3  A    between atoms: O_4  and  C_5
REMARK    4  A    between atoms: C_8  and  C_9
REMARK    5  A    between atoms: C_17  and  C_18
REMARK    6  A    between atoms: C_18  and  C_19
REMARK    7  A    between atoms: C_24  and  O_25
REMARK    8  A    between atoms: O_25  and  C_26
REMARK                            x       y       z     vdW  Elec       q    Type
REMARK                         _______ _______ _______ _____ _____    ______ ____
ROOT
ATOM      1  C   UNL     1       2.206   6.555  19.885  0.00  0.00    +0.000 A 
ATOM      2  C   UNL     1       1.595   5.640  20.665  0.00  0.00    +0.000 A 
ATOM      3  C   UNL     1       2.238   4.361  20.830  0.00  0.00    +0.000 A 
ATOM      4  O   UNL     1       2.026   3.681  21.842  0.00  0.00    +0.000 OA
ATOM      5  C   UNL     1       3.085   3.913  19.750  0.00  0.00    +0.000 A 
ATOM      6  C   UNL     1       3.299   2.535  19.639  0.00  0.00    +0.000 A 
ATOM      7  C   UNL     1       3.921   2.035  18.511  0.00  0.00    +0.000 A 
ATOM      8  C   UNL     1       4.341   2.928  17.532  0.00  0.00    +0.000 A 
ATOM      9  C   UNL     1       4.158   4.338  17.650  0.00  0.00    +0.000 A 
ATOM     10  C   UNL     1       3.505   4.847  18.794  0.00  0.00    +0.000 A 
ATOM     11  O   UNL     1       3.234   6.210  18.978  0.00  0.00    +0.000 OA
ENDROOT
BRANCH   1  15
ATOM     12  C   UNL     1       0.979  10.755  20.206  0.00  0.00    +0.000 A 
ATOM     13  C   UNL     1       1.284  10.161  18.969  0.00  0.00    +0.000 A 
ATOM     14  C   UNL     1       1.613   8.800  18.855  0.00  0.00    +0.000 A 
ATOM     15  C   UNL     1       1.685   7.951  19.975  0.00  0.00    +0.000 A 
ATOM     16  C   UNL     1       1.263   8.513  21.171  0.00  0.00    +0.000 A 
ATOM     17  C   UNL     1       0.927   9.899  21.319  0.00  0.00    +0.000 A 
BRANCH  17  18
ATOM     18  O   UNL     1       0.604  10.068  22.631  0.00  0.00    +0.000 OA
ATOM     19  C   UNL     1      -0.701  10.081  23.142  0.00  0.00    +0.000 C 
ENDBRANCH  17  18
BRANCH  12  20
ATOM     20  O   UNL     1       0.728  12.096  20.032  0.00  0.00    +0.000 OA
BRANCH  20  21
ATOM     21  C   UNL     1       1.642  13.052  20.548  0.00  0.00    +0.000 C 
BRANCH  21  23
ATOM     22  C   UNL     1       2.614  13.575  18.227  0.00  0.00    +0.000 C 
ATOM     23  C   UNL     1       2.649  13.589  19.564  0.00  0.00    +0.000 C 
ENDBRANCH  21  23
ENDBRANCH  20  21
ENDBRANCH  12  20
ENDBRANCH   1  15
BRANCH   9  24
ATOM     24  C   UNL     1       4.647   5.152  16.473  0.00  0.00    +0.000 C 
BRANCH  24  25
ATOM     25  C   UNL     1       5.352   4.394  15.374  0.00  0.00    +0.000 C 
ATOM     26  C   UNL     1       6.601   4.576  14.920  0.00  0.00    +0.000 C 
ENDBRANCH  24  25
ENDBRANCH   9  24
TORSDOF 7
ENDMDL
MODEL 4
REMARK VINA RESULT:      -7.4      1.872      8.346
REMARK  Name = 
REMARK  8 active torsions:
REMARK  status: ('A' for Active; 'I' for Inactive)
REMARK    1  A    between atoms: C_2  and  C_3
REMARK    2  A    between atoms: C_3  and  O_4
REMARK    3  A    between atoms: O_4  and  C_5
REMARK    4  A    between atoms: C_8  and  C_9
REMARK    5  A    between atoms: C_17  and  C_18
REMARK    6  A    between atoms: C_18  and  C_19
REMARK    7  A    between atoms: C_24  and  O_25
REMARK    8  A    between atoms: O_25  and  C_26
REMARK                            x       y       z     vdW  Elec       q    Type
REMARK                         _______ _______ _______ _____ _____    ______ ____
ROOT
ATOM      1  C   UNL     1       2.792   6.703  18.333  0.00  0.00    +0.000 A 
ATOM      2  C   UNL     1       2.037   5.711  17.818  0.00  0.00    +0.000 A 
ATOM      3  C   UNL     1       2.688   4.464  17.507  0.00  0.00    +0.000 A 
ATOM      4  O   UNL     1       2.042   3.408  17.495  0.00  0.00    +0.000 OA
ATOM      5  C   UNL     1       4.091   4.526  17.174  0.00  0.00    +0.000 A 
ATOM      6  C   UNL     1       4.609   3.480  16.403  0.00  0.00    +0.000 A 
ATOM      7  C   UNL     1       5.883   3.591  15.879  0.00  0.00    +0.000 A 
ATOM      8  C   UNL     1       6.621   4.735  16.163  0.00  0.00    +0.000 A 
ATOM      9  C   UNL     1       6.116   5.792  16.975  0.00  0.00    +0.000 A 
ATOM     10  C   UNL     1       4.807   5.687  17.494  0.00  0.00    +0.000 A 
ATOM     11  O   UNL     1       4.204   6.694  18.261  0.00  0.00    +0.000 OA
ENDROOT
BRANCH   1  15
ATOM     12  C   UNL     1       0.901  10.236  20.121  0.00  0.00    +0.000 A 
ATOM     13  C   UNL     1       1.114  10.126  18.735  0.00  0.00    +0.000 A 
ATOM     14  C   UNL     1       1.659   8.970  18.152  0.00  0.00    +0.000 A 
ATOM     15  C   UNL     1       2.051   7.858  18.921  0.00  0.00    +0.000 A 
ATOM     16  C   UNL     1       1.724   7.925  20.268  0.00  0.00    +0.000 A 
ATOM     17  C   UNL     1       1.174   9.093  20.891  0.00  0.00    +0.000 A 
BRANCH  17  18
ATOM     18  O   UNL     1       1.032   8.782  22.209  0.00  0.00    +0.000 OA
ATOM     19  C   UNL     1       0.119   9.387  23.083  0.00  0.00    +0.000 C 
ENDBRANCH  17  18
BRANCH  12  20
ATOM     20  O   UNL     1       0.393  11.479  20.419  0.00  0.00    +0.000 OA
BRANCH  20  21
ATOM     21  C   UNL     1      -0.970  11.762  20.146  0.00  0.00    +0.000 C 
BRANCH  21  23
ATOM     22  C   UNL     1      -0.354  13.663  18.529  0.00  0.00    +0.000 C 
ATOM     23  C   UNL     1      -1.219  12.817  19.097  0.00  0.00    +0.000 C 
ENDBRANCH  21  23
ENDBRANCH  20  21
ENDBRANCH  12  20
ENDBRANCH   1  15
BRANCH   9  24
ATOM     24  C   UNL     1       7.045   6.973  17.148  0.00  0.00    +0.000 C 
BRANCH  24  25
ATOM     25  C   UNL     1       7.924   6.966  18.377  0.00  0.00    +0.000 C 
ATOM     26  C   UNL     1       8.067   5.986  19.280  0.00  0.00    +0.000 C 
ENDBRANCH  24  25
ENDBRANCH   9  24
TORSDOF 7
ENDMDL
MODEL 5
REMARK VINA RESULT:      -7.4      0.952      1.228
REMARK  Name = 
REMARK  8 active torsions:
REMARK  status: ('A' for Active; 'I' for Inactive)
REMARK    1  A    between atoms: C_2  and  C_3
REMARK    2  A    between atoms: C_3  and  O_4
REMARK    3  A    between atoms: O_4  and  C_5
REMARK    4  A    between atoms: C_8  and  C_9
REMARK    5  A    between atoms: C_17  and  C_18
REMARK    6  A    between atoms: C_18  and  C_19
REMARK    7  A    between atoms: C_24  and  O_25
REMARK    8  A    between atoms: O_25  and  C_26
REMARK                            x       y       z     vdW  Elec       q    Type
REMARK                         _______ _______ _______ _____ _____    ______ ____
ROOT
ATOM      1  C   UNL     1       0.958   8.879  20.558  0.00  0.00    +0.000 A 
ATOM      2  C   UNL     1       1.227   9.090  21.862  0.00  0.00    +0.000 A 
ATOM      3  C   UNL     1       0.266   9.837  22.634  0.00  0.00    +0.000 A 
ATOM      4  O   UNL     1       0.187   9.674  23.859  0.00  0.00    +0.000 OA
ATOM      5  C   UNL     1      -0.544  10.793  21.919  0.00  0.00    +0.000 A 
ATOM      6  C   UNL     1      -1.088  11.847  22.660  0.00  0.00    +0.000 A 
ATOM      7  C   UNL     1      -1.691  12.900  21.999  0.00  0.00    +0.000 A 
ATOM      8  C   UNL     1      -1.761  12.861  20.611  0.00  0.00    +0.000 A 
ATOM      9  C   UNL     1      -1.239  11.776  19.847  0.00  0.00    +0.000 A 
ATOM     10  C   UNL     1      -0.607  10.709  20.521  0.00  0.00    +0.000 A 
ATOM     11  O   UNL     1      -0.020   9.623  19.857  0.00  0.00    +0.000 OA
ENDROOT
BRANCH   1  15
ATOM     12  C   UNL     1       3.173   5.774  18.389  0.00  0.00    +0.000 A 
ATOM     13  C   UNL     1       3.012   7.072  17.872  0.00  0.00    +0.000 A 
ATOM     14  C   UNL     1       2.360   8.087  18.593  0.00  0.00    +0.000 A 
ATOM     15  C   UNL     1       1.803   7.862  19.866  0.00  0.00    +0.000 A 
ATOM     16  C   UNL     1       2.075   6.619  20.419  0.00  0.00    +0.000 A 
ATOM     17  C   UNL     1       2.731   5.562  19.706  0.00  0.00    +0.000 A 
BRANCH  17  18
ATOM     18  O   UNL     1       2.777   4.505  20.562  0.00  0.00    +0.000 OA
ATOM     19  C   UNL     1       1.657   3.822  21.057  0.00  0.00    +0.000 C 
ENDBRANCH  17  18
BRANCH  12  20
ATOM     20  O   UNL     1       3.812   4.980  17.466  0.00  0.00    +0.000 OA
BRANCH  20  21
ATOM     21  C   UNL     1       4.457   3.790  17.893  0.00  0.00    +0.000 C 
BRANCH  21  23
ATOM     22  C   UNL     1       2.443   2.194  17.835  0.00  0.00    +0.000 C 
ATOM     23  C   UNL     1       3.721   2.507  17.598  0.00  0.00    +0.000 C 
ENDBRANCH  21  23
ENDBRANCH  20  21
ENDBRANCH  12  20
ENDBRANCH   1  15
BRANCH   9  24
ATOM     24  C   UNL     1      -1.375  11.920  18.347  0.00  0.00    +0.000 C 
BRANCH  24  25
ATOM     25  C   UNL     1      -2.207  10.877  17.641  0.00  0.00    +0.000 C 
ATOM     26  C   UNL     1      -2.788  10.967  16.436  0.00  0.00    +0.000 C 
ENDBRANCH  24  25
ENDBRANCH   9  24
TORSDOF 7
ENDMDL
MODEL 6
REMARK VINA RESULT:      -7.3      2.153      8.032
REMARK  Name = 
REMARK  8 active torsions:
REMARK  status: ('A' for Active; 'I' for Inactive)
REMARK    1  A    between atoms: C_2  and  C_3
REMARK    2  A    between atoms: C_3  and  O_4
REMARK    3  A    between atoms: O_4  and  C_5
REMARK    4  A    between atoms: C_8  and  C_9
REMARK    5  A    between atoms: C_17  and  C_18
REMARK    6  A    between atoms: C_18  and  C_19
REMARK    7  A    between atoms: C_24  and  O_25
REMARK    8  A    between atoms: O_25  and  C_26
REMARK                            x       y       z     vdW  Elec       q    Type
REMARK                         _______ _______ _______ _____ _____    ______ ____
ROOT
ATOM      1  C   UNL     1       2.446   6.925  18.449  0.00  0.00    +0.000 A 
ATOM      2  C   UNL     1       3.694   7.041  17.952  0.00  0.00    +0.000 A 
ATOM      3  C   UNL     1       4.204   5.953  17.156  0.00  0.00    +0.000 A 
ATOM      4  O   UNL     1       5.082   6.158  16.308  0.00  0.00    +0.000 OA
ATOM      5  C   UNL     1       3.677   4.638  17.434  0.00  0.00    +0.000 A 
ATOM      6  C   UNL     1       4.471   3.545  17.074  0.00  0.00    +0.000 A 
ATOM      7  C   UNL     1       4.116   2.280  17.504  0.00  0.00    +0.000 A 
ATOM      8  C   UNL     1       2.960   2.134  18.261  0.00  0.00    +0.000 A 
ATOM      9  C   UNL     1       2.125   3.238  18.606  0.00  0.00    +0.000 A 
ATOM     10  C   UNL     1       2.497   4.533  18.183  0.00  0.00    +0.000 A 
ATOM     11  O   UNL     1       1.770   5.684  18.513  0.00  0.00    +0.000 OA
ENDROOT
BRANCH   1  15
ATOM     12  C   UNL     1       0.957  10.693  20.133  0.00  0.00    +0.000 A 
ATOM     13  C   UNL     1       1.161  10.524  18.752  0.00  0.00    +0.000 A 
ATOM     14  C   UNL     1       1.575   9.299  18.203  0.00  0.00    +0.000 A 
ATOM     15  C   UNL     1       1.838   8.171  19.002  0.00  0.00    +0.000 A 
ATOM     16  C   UNL     1       1.515   8.309  20.345  0.00  0.00    +0.000 A 
ATOM     17  C   UNL     1       1.097   9.547  20.935  0.00  0.00    +0.000 A 
BRANCH  17  18
ATOM     18  O   UNL     1       0.915   9.289  22.259  0.00  0.00    +0.000 OA
ATOM     19  C   UNL     1      -0.245   9.591  22.985  0.00  0.00    +0.000 C 
ENDBRANCH  17  18
BRANCH  12  20
ATOM     20  O   UNL     1       0.590  11.992  20.396  0.00  0.00    +0.000 OA
BRANCH  20  21
ATOM     21  C   UNL     1       1.589  12.995  20.498  0.00  0.00    +0.000 C 
BRANCH  21  23
ATOM     22  C   UNL     1       1.988  14.850  18.764  0.00  0.00    +0.000 C 
ATOM     23  C   UNL     1       1.303  14.278  19.760  0.00  0.00    +0.000 C 
ENDBRANCH  21  23
ENDBRANCH  20  21
ENDBRANCH  12  20
ENDBRANCH   1  15
BRANCH   9  24
ATOM     24  C   UNL     1       0.927   2.896  19.463  0.00  0.00    +0.000 C 
BRANCH  24  25
ATOM     25  C   UNL     1       1.076   3.109  20.950  0.00  0.00    +0.000 C 
ATOM     26  C   UNL     1       2.161   3.532  21.614  0.00  0.00    +0.000 C 
ENDBRANCH  24  25
ENDBRANCH   9  24
TORSDOF 7
ENDMDL
MODEL 7
REMARK VINA RESULT:      -7.3      1.528      7.923
REMARK  Name = 
REMARK  8 active torsions:
REMARK  status: ('A' for Active; 'I' for Inactive)
REMARK    1  A    between atoms: C_2  and  C_3
REMARK    2  A    between atoms: C_3  and  O_4
REMARK    3  A    between atoms: O_4  and  C_5
REMARK    4  A    between atoms: C_8  and  C_9
REMARK    5  A    between atoms: C_17  and  C_18
REMARK    6  A    between atoms: C_18  and  C_19
REMARK    7  A    between atoms: C_24  and  O_25
REMARK    8  A    between atoms: O_25  and  C_26
REMARK                            x       y       z     vdW  Elec       q    Type
REMARK                         _______ _______ _______ _____ _____    ______ ____
ROOT
ATOM      1  C   UNL     1       2.209   6.703  19.802  0.00  0.00    +0.000 A 
ATOM      2  C   UNL     1       1.613   5.793  20.599  0.00  0.00    +0.000 A 
ATOM      3  C   UNL     1       2.274   4.527  20.784  0.00  0.00    +0.000 A 
ATOM      4  O   UNL     1       2.074   3.861  21.808  0.00  0.00    +0.000 OA
ATOM      5  C   UNL     1       3.126   4.072  19.710  0.00  0.00    +0.000 A 
ATOM      6  C   UNL     1       3.360   2.696  19.622  0.00  0.00    +0.000 A 
ATOM      7  C   UNL     1       3.986   2.186  18.501  0.00  0.00    +0.000 A 
ATOM      8  C   UNL     1       4.391   3.068  17.506  0.00  0.00    +0.000 A 
ATOM      9  C   UNL     1       4.188   4.477  17.601  0.00  0.00    +0.000 A 
ATOM     10  C   UNL     1       3.530   4.996  18.737  0.00  0.00    +0.000 A 
ATOM     11  O   UNL     1       3.240   6.357  18.898  0.00  0.00    +0.000 OA
ENDROOT
BRANCH   1  15
ATOM     12  C   UNL     1       0.919  10.889  20.067  0.00  0.00    +0.000 A 
ATOM     13  C   UNL     1       1.277  10.296  18.843  0.00  0.00    +0.000 A 
ATOM     14  C   UNL     1       1.627   8.939  18.745  0.00  0.00    +0.000 A 
ATOM     15  C   UNL     1       1.668   8.093  19.869  0.00  0.00    +0.000 A 
ATOM     16  C   UNL     1       1.195   8.652  21.047  0.00  0.00    +0.000 A 
ATOM     17  C   UNL     1       0.837  10.034  21.180  0.00  0.00    +0.000 A 
BRANCH  17  18
ATOM     18  O   UNL     1       0.464  10.202  22.478  0.00  0.00    +0.000 OA
ATOM     19  C   UNL     1      -0.775  10.703  22.900  0.00  0.00    +0.000 C 
ENDBRANCH  17  18
BRANCH  12  20
ATOM     20  O   UNL     1       0.659  12.226  19.880  0.00  0.00    +0.000 OA
BRANCH  20  21
ATOM     21  C   UNL     1      -0.437  12.621  19.069  0.00  0.00    +0.000 C 
BRANCH  21  23
ATOM     22  C   UNL     1      -2.740  11.566  18.632  0.00  0.00    +0.000 C 
ATOM     23  C   UNL     1      -1.769  12.016  19.434  0.00  0.00    +0.000 C 
ENDBRANCH  21  23
ENDBRANCH  20  21
ENDBRANCH  12  20
ENDBRANCH   1  15
BRANCH   9  24
ATOM     24  C   UNL     1       4.663   5.278  16.409  0.00  0.00    +0.000 C 
BRANCH  24  25
ATOM     25  C   UNL     1       5.404   4.517  15.335  0.00  0.00    +0.000 C 
ATOM     26  C   UNL     1       6.683   4.661  14.960  0.00  0.00    +0.000 C 
ENDBRANCH  24  25
ENDBRANCH   9  24
TORSDOF 7
ENDMDL
MODEL 8
REMARK VINA RESULT:      -7.3      2.008      8.485
REMARK  Name = 
REMARK  8 active torsions:
REMARK  status: ('A' for Active; 'I' for Inactive)
REMARK    1  A    between atoms: C_2  and  C_3
REMARK    2  A    between atoms: C_3  and  O_4
REMARK    3  A    between atoms: O_4  and  C_5
REMARK    4  A    between atoms: C_8  and  C_9
REMARK    5  A    between atoms: C_17  and  C_18
REMARK    6  A    between atoms: C_18  and  C_19
REMARK    7  A    between atoms: C_24  and  O_25
REMARK    8  A    between atoms: O_25  and  C_26
REMARK                            x       y       z     vdW  Elec       q    Type
REMARK                         _______ _______ _______ _____ _____    ______ ____
ROOT
ATOM      1  C   UNL     1       2.421   6.899  18.788  0.00  0.00    +0.000 A 
ATOM      2  C   UNL     1       3.633   7.028  18.211  0.00  0.00    +0.000 A 
ATOM      3  C   UNL     1       4.049   6.003  17.288  0.00  0.00    +0.000 A 
ATOM      4  O   UNL     1       4.870   6.260  16.397  0.00  0.00    +0.000 OA
ATOM      5  C   UNL     1       3.502   4.682  17.488  0.00  0.00    +0.000 A 
ATOM      6  C   UNL     1       4.233   3.606  16.975  0.00  0.00    +0.000 A 
ATOM      7  C   UNL     1       3.871   2.317  17.318  0.00  0.00    +0.000 A 
ATOM      8  C   UNL     1       2.768   2.133  18.144  0.00  0.00    +0.000 A 
ATOM      9  C   UNL     1       1.996   3.222  18.645  0.00  0.00    +0.000 A 
ATOM     10  C   UNL     1       2.377   4.540  18.311  0.00  0.00    +0.000 A 
ATOM     11  O   UNL     1       1.712   5.675  18.794  0.00  0.00    +0.000 OA
ENDROOT
BRANCH   1  15
ATOM     12  C   UNL     1       0.574  10.340  20.787  0.00  0.00    +0.000 A 
ATOM     13  C   UNL     1       0.939   9.179  21.490  0.00  0.00    +0.000 A 
ATOM     14  C   UNL     1       1.590   8.102  20.866  0.00  0.00    +0.000 A 
ATOM     15  C   UNL     1       1.894   8.105  19.492  0.00  0.00    +0.000 A 
ATOM     16  C   UNL     1       1.644   9.301  18.834  0.00  0.00    +0.000 A 
ATOM     17  C   UNL     1       0.975  10.414  19.442  0.00  0.00    +0.000 A 
BRANCH  17  18
ATOM     18  O   UNL     1       0.885  11.370  18.478  0.00  0.00    +0.000 OA
ATOM     19  C   UNL     1       1.199  12.724  18.655  0.00  0.00    +0.000 C 
ENDBRANCH  17  18
BRANCH  12  20
ATOM     20  O   UNL     1      -0.075  11.212  21.630  0.00  0.00    +0.000 OA
BRANCH  20  21
ATOM     21  C   UNL     1      -0.795  10.706  22.743  0.00  0.00    +0.000 C 
BRANCH  21  23
ATOM     22  C   UNL     1      -2.107  12.851  23.279  0.00  0.00    +0.000 C 
ATOM     23  C   UNL     1      -1.986  11.523  23.175  0.00  0.00    +0.000 C 
ENDBRANCH  21  23
ENDBRANCH  20  21
ENDBRANCH  12  20
ENDBRANCH   1  15
BRANCH   9  24
ATOM     24  C   UNL     1       0.852   2.835  19.556  0.00  0.00    +0.000 C 
BRANCH  24  25
ATOM     25  C   UNL     1       1.105   2.940  21.041  0.00  0.00    +0.000 C 
ATOM     26  C   UNL     1       2.277   2.839  21.684  0.00  0.00    +0.000 C 
ENDBRANCH  24  25
ENDBRANCH   9  24
TORSDOF 7
ENDMDL
MODEL 9
REMARK VINA RESULT:      -7.3      1.205      2.328
REMARK  Name = 
REMARK  8 active torsions:
REMARK  status: ('A' for Active; 'I' for Inactive)
REMARK    1  A    between atoms: C_2  and  C_3
REMARK    2  A    between atoms: C_3  and  O_4
REMARK    3  A    between atoms: O_4  and  C_5
REMARK    4  A    between atoms: C_8  and  C_9
REMARK    5  A    between atoms: C_17  and  C_18
REMARK    6  A    between atoms: C_18  and  C_19
REMARK    7  A    between atoms: C_24  and  O_25
REMARK    8  A    between atoms: O_25  and  C_26
REMARK                            x       y       z     vdW  Elec       q    Type
REMARK                         _______ _______ _______ _____ _____    ______ ____
ROOT
ATOM      1  C   UNL     1       0.920   8.559  20.750  0.00  0.00    +0.000 A 
ATOM      2  C   UNL     1       1.204   8.863  22.033  0.00  0.00    +0.000 A 
ATOM      3  C   UNL     1       0.303   9.748  22.728  0.00  0.00    +0.000 A 
ATOM      4  O   UNL     1       0.210   9.700  23.962  0.00  0.00    +0.000 OA
ATOM      5  C   UNL     1      -0.428  10.699  21.925  0.00  0.00    +0.000 A 
ATOM      6  C   UNL     1      -0.888  11.853  22.566  0.00  0.00    +0.000 A 
ATOM      7  C   UNL     1      -1.403  12.888  21.809  0.00  0.00    +0.000 A 
ATOM      8  C   UNL     1      -1.474  12.733  20.430  0.00  0.00    +0.000 A 
ATOM      9  C   UNL     1      -1.039  11.546  19.769  0.00  0.00    +0.000 A 
ATOM     10  C   UNL     1      -0.494  10.497  20.540  0.00  0.00    +0.000 A 
ATOM     11  O   UNL     1       0.006   9.314  19.978  0.00  0.00    +0.000 OA
ENDROOT
BRANCH   1  15
ATOM     12  C   UNL     1       3.420   5.314  19.177  0.00  0.00    +0.000 A 
ATOM     13  C   UNL     1       2.596   5.141  20.303  0.00  0.00    +0.000 A 
ATOM     14  C   UNL     1       1.746   6.157  20.771  0.00  0.00    +0.000 A 
ATOM     15  C   UNL     1       1.683   7.422  20.157  0.00  0.00    +0.000 A 
ATOM     16  C   UNL     1       2.402   7.543  18.976  0.00  0.00    +0.000 A 
ATOM     17  C   UNL     1       3.283   6.527  18.479  0.00  0.00    +0.000 A 
BRANCH  17  18
ATOM     18  O   UNL     1       3.827   7.028  17.336  0.00  0.00    +0.000 OA
ATOM     19  C   UNL     1       5.163   6.869  16.943  0.00  0.00    +0.000 C 
ENDBRANCH  17  18
BRANCH  12  20
ATOM     20  O   UNL     1       4.168   4.180  18.965  0.00  0.00    +0.000 OA
BRANCH  20  21
ATOM     21  C   UNL     1       3.988   3.435  17.771  0.00  0.00    +0.000 C 
BRANCH  21  23
ATOM     22  C   UNL     1       2.173   1.908  18.761  0.00  0.00    +0.000 C 
ATOM     23  C   UNL     1       2.787   2.524  17.745  0.00  0.00    +0.000 C 
ENDBRANCH  21  23
ENDBRANCH  20  21
ENDBRANCH  12  20
ENDBRANCH   1  15
BRANCH   9  24
ATOM     24  C   UNL     1      -1.160  11.568  18.261  0.00  0.00    +0.000 C 
BRANCH  24  25
ATOM     25  C   UNL     1      -2.435  11.008  17.678  0.00  0.00    +0.000 C 
ATOM     26  C   UNL     1      -2.753   9.720  17.482  0.00  0.00    +0.000 C 
ENDBRANCH  24  25
ENDBRANCH   9  24
TORSDOF 7
ENDMDL
