MODEL 1
REMARK VINA RESULT:      -5.7      0.000      0.000
REMARK  Name = 
REMARK  9 active torsions:
REMARK  status: ('A' for Active; 'I' for Inactive)
REMARK    1  A    between atoms: C_1  and  C_2
REMARK    2  A    between atoms: C_2  and  O_3
REMARK    3  A    between atoms: O_3  and  C_4
REMARK    4  A    between atoms: C_4  and  C_5
REMARK    5  A    between atoms: C_7  and  O_8
REMARK    6  A    between atoms: C_7  and  C_9
REMARK    7  A    between atoms: C_9  and  O_10
REMARK    8  A    between atoms: C_11  and  O_12
REMARK    9  A    between atoms: C_13  and  O_14
REMARK                            x       y       z     vdW  Elec       q    Type
REMARK                         _______ _______ _______ _____ _____    ______ ____
ROOT
ATOM      1  C   UNL     1       6.617   3.988  15.486  0.00  0.00    +0.000 C 
ATOM      2  O   UNL     1       7.654   4.735  16.155  0.00  0.00    +0.000 OA
ATOM      3  C   UNL     1       7.080   5.771  16.962  0.00  0.00    +0.000 C 
ATOM      4  C   UNL     1       5.563   5.788  16.693  0.00  0.00    +0.000 C 
ATOM      5  C   UNL     1       5.307   4.370  16.181  0.00  0.00    +0.000 C 
ENDROOT
BRANCH   3   6
ATOM      6  O   UNL     1       7.699   7.008  16.607  0.00  0.00    +0.000 OA
ATOM      7  H   UNL     1       7.135   7.704  16.991  0.00  0.00    +0.000 HD
ENDBRANCH   3   6
BRANCH   4   8
ATOM      8  O   UNL     1       5.221   6.811  15.744  0.00  0.00    +0.000 OA
ATOM      9  H   UNL     1       4.519   7.381  16.088  0.00  0.00    +0.000 HD
ENDBRANCH   4   8
BRANCH   5  10
ATOM     10  O   UNL     1       5.043   3.504  17.294  0.00  0.00    +0.000 OA
ATOM     11  H   UNL     1       4.554   4.000  17.979  0.00  0.00    +0.000 HD
ENDBRANCH   5  10
BRANCH   1  12
ATOM     12  C   UNL     1       6.622   4.318  13.985  0.00  0.00    +0.000 C 
BRANCH  12  13
ATOM     13  O   UNL     1       5.389   3.910  13.386  0.00  0.00    +0.000 OA
BRANCH  13  15
ATOM     14  C   UNL     1       4.296   3.201  11.382  0.00  0.00    +0.000 C 
ATOM     15  C   UNL     1       5.605   3.244  12.142  0.00  0.00    +0.000 C 
ENDBRANCH  13  15
ENDBRANCH  12  13
ENDBRANCH   1  12
BRANCH   3  16
ATOM     16  C   UNL     1       7.389   5.508  18.454  0.00  0.00    +0.000 C 
BRANCH  16  17
ATOM     17  O   UNL     1       6.190   5.472  19.235  0.00  0.00    +0.000 OA
ATOM     18  H   UNL     1       6.282   6.208  19.875  0.00  0.00    +0.000 HD
ENDBRANCH  16  17
ENDBRANCH   3  16
TORSDOF 8
ENDMDL
MODEL 2
REMARK VINA RESULT:      -5.5      2.662      4.315
REMARK  Name = 
REMARK  9 active torsions:
REMARK  status: ('A' for Active; 'I' for Inactive)
REMARK    1  A    between atoms: C_1  and  C_2
REMARK    2  A    between atoms: C_2  and  O_3
REMARK    3  A    between atoms: O_3  and  C_4
REMARK    4  A    between atoms: C_4  and  C_5
REMARK    5  A    between atoms: C_7  and  O_8
REMARK    6  A    between atoms: C_7  and  C_9
REMARK    7  A    between atoms: C_9  and  O_10
REMARK    8  A    between atoms: C_11  and  O_12
REMARK    9  A    between atoms: C_13  and  O_14
REMARK                            x       y       z     vdW  Elec       q    Type
REMARK                         _______ _______ _______ _____ _____    ______ ____
ROOT
ATOM      1  C   UNL     1       4.859   4.709  19.112  0.00  0.00    +0.000 C 
ATOM      2  O   UNL     1       6.282   4.836  19.305  0.00  0.00    +0.000 OA
ATOM      3  C   UNL     1       6.940   5.033  18.047  0.00  0.00    +0.000 C 
ATOM      4  C   UNL     1       5.881   4.889  16.936  0.00  0.00    +0.000 C 
ATOM      5  C   UNL     1       4.582   5.191  17.684  0.00  0.00    +0.000 C 
ENDROOT
BRANCH   3   6
ATOM      6  O   UNL     1       7.976   4.058  17.926  0.00  0.00    +0.000 OA
ATOM      7  H   UNL     1       7.522   3.206  17.797  0.00  0.00    +0.000 HD
ENDBRANCH   3   6
BRANCH   4   8
ATOM      8  O   UNL     1       5.918   3.573  16.361  0.00  0.00    +0.000 OA
ATOM      9  H   UNL     1       5.065   3.127  16.464  0.00  0.00    +0.000 HD
ENDBRANCH   4   8
BRANCH   5  10
ATOM     10  O   UNL     1       4.336   6.604  17.656  0.00  0.00    +0.000 OA
ATOM     11  H   UNL     1       5.153   7.079  17.908  0.00  0.00    +0.000 HD
ENDBRANCH   5  10
BRANCH   1  12
ATOM     12  C   UNL     1       4.427   3.254  19.351  0.00  0.00    +0.000 C 
BRANCH  12  13
ATOM     13  O   UNL     1       3.522   2.833  18.327  0.00  0.00    +0.000 OA
BRANCH  13  15
ATOM     14  C   UNL     1       1.171   2.559  18.663  0.00  0.00    +0.000 C 
ATOM     15  C   UNL     1       2.538   1.932  18.834  0.00  0.00    +0.000 C 
ENDBRANCH  13  15
ENDBRANCH  12  13
ENDBRANCH   1  12
BRANCH   3  16
ATOM     16  C   UNL     1       7.609   6.427  18.016  0.00  0.00    +0.000 C 
BRANCH  16  17
ATOM     17  O   UNL     1       7.282   7.134  16.814  0.00  0.00    +0.000 OA
ATOM     18  H   UNL     1       8.133   7.499  16.495  0.00  0.00    +0.000 HD
ENDBRANCH  16  17
ENDBRANCH   3  16
TORSDOF 8
ENDMDL
MODEL 3
REMARK VINA RESULT:      -5.5      3.357      5.612
REMARK  Name = 
REMARK  9 active torsions:
REMARK  status: ('A' for Active; 'I' for Inactive)
REMARK    1  A    between atoms: C_1  and  C_2
REMARK    2  A    between atoms: C_2  and  O_3
REMARK    3  A    between atoms: O_3  and  C_4
REMARK    4  A    between atoms: C_4  and  C_5
REMARK    5  A    between atoms: C_7  and  O_8
REMARK    6  A    between atoms: C_7  and  C_9
REMARK    7  A    between atoms: C_9  and  O_10
REMARK    8  A    between atoms: C_11  and  O_12
REMARK    9  A    between atoms: C_13  and  O_14
REMARK                            x       y       z     vdW  Elec       q    Type
REMARK                         _______ _______ _______ _____ _____    ______ ____
ROOT
ATOM      1  C   UNL     1       3.982   4.530  18.143  0.00  0.00    +0.000 C 
ATOM      2  O   UNL     1       3.052   3.510  17.728  0.00  0.00    +0.000 OA
ATOM      3  C   UNL     1       2.834   2.572  18.789  0.00  0.00    +0.000 C 
ATOM      4  C   UNL     1       3.797   2.930  19.937  0.00  0.00    +0.000 C 
ATOM      5  C   UNL     1       4.091   4.406  19.666  0.00  0.00    +0.000 C 
ENDROOT
BRANCH   3   6
ATOM      6  O   UNL     1       3.072   1.259  18.281  0.00  0.00    +0.000 OA
ATOM      7  H   UNL     1       4.002   1.254  17.991  0.00  0.00    +0.000 HD
ENDBRANCH   3   6
BRANCH   4   8
ATOM      8  O   UNL     1       4.968   2.097  19.902  0.00  0.00    +0.000 OA
ATOM      9  H   UNL     1       4.841   1.302  20.439  0.00  0.00    +0.000 HD
ENDBRANCH   4   8
BRANCH   5  10
ATOM     10  O   UNL     1       3.102   5.214  20.321  0.00  0.00    +0.000 OA
ATOM     11  H   UNL     1       3.463   5.541  21.168  0.00  0.00    +0.000 HD
ENDBRANCH   5  10
BRANCH   1  12
ATOM     12  C   UNL     1       5.326   4.335  17.425  0.00  0.00    +0.000 C 
BRANCH  12  13
ATOM     13  O   UNL     1       6.391   4.276  18.378  0.00  0.00    +0.000 OA
BRANCH  13  15
ATOM     14  C   UNL     1       7.458   6.379  17.982  0.00  0.00    +0.000 C 
ATOM     15  C   UNL     1       7.584   4.875  17.870  0.00  0.00    +0.000 C 
ENDBRANCH  13  15
ENDBRANCH  12  13
ENDBRANCH   1  12
BRANCH   3  16
ATOM     16  C   UNL     1       1.357   2.631  19.248  0.00  0.00    +0.000 C 
BRANCH  16  17
ATOM     17  O   UNL     1       1.260   2.748  20.671  0.00  0.00    +0.000 OA
ATOM     18  H   UNL     1       0.603   2.072  20.937  0.00  0.00    +0.000 HD
ENDBRANCH  16  17
ENDBRANCH   3  16
TORSDOF 8
ENDMDL
MODEL 4
REMARK VINA RESULT:      -5.5      1.672      4.759
REMARK  Name = 
REMARK  9 active torsions:
REMARK  status: ('A' for Active; 'I' for Inactive)
REMARK    1  A    between atoms: C_1  and  C_2
REMARK    2  A    between atoms: C_2  and  O_3
REMARK    3  A    between atoms: O_3  and  C_4
REMARK    4  A    between atoms: C_4  and  C_5
REMARK    5  A    between atoms: C_7  and  O_8
REMARK    6  A    between atoms: C_7  and  C_9
REMARK    7  A    between atoms: C_9  and  O_10
REMARK    8  A    between atoms: C_11  and  O_12
REMARK    9  A    between atoms: C_13  and  O_14
REMARK                            x       y       z     vdW  Elec       q    Type
REMARK                         _______ _______ _______ _____ _____    ______ ____
ROOT
ATOM      1  C   UNL     1       5.146   5.941  16.404  0.00  0.00    +0.000 C 
ATOM      2  O   UNL     1       5.714   6.006  15.080  0.00  0.00    +0.000 OA
ATOM      3  C   UNL     1       6.593   4.897  14.860  0.00  0.00    +0.000 C 
ATOM      4  C   UNL     1       6.713   4.122  16.187  0.00  0.00    +0.000 C 
ATOM      5  C   UNL     1       5.430   4.525  16.915  0.00  0.00    +0.000 C 
ENDROOT
BRANCH   3   6
ATOM      6  O   UNL     1       7.854   5.405  14.422  0.00  0.00    +0.000 OA
ATOM      7  H   UNL     1       8.173   4.775  13.752  0.00  0.00    +0.000 HD
ENDBRANCH   3   6
BRANCH   4   8
ATOM      8  O   UNL     1       7.911   4.491  16.889  0.00  0.00    +0.000 OA
ATOM      9  H   UNL     1       8.688   4.076  16.488  0.00  0.00    +0.000 HD
ENDBRANCH   4   8
BRANCH   5  10
ATOM     10  O   UNL     1       4.375   3.624  16.551  0.00  0.00    +0.000 OA
ATOM     11  H   UNL     1       4.762   2.809  16.175  0.00  0.00    +0.000 HD
ENDBRANCH   5  10
BRANCH   1  12
ATOM     12  C   UNL     1       5.759   7.036  17.290  0.00  0.00    +0.000 C 
BRANCH  12  13
ATOM     13  O   UNL     1       7.061   7.385  16.813  0.00  0.00    +0.000 OA
BRANCH  13  15
ATOM     14  C   UNL     1       8.170   9.195  17.914  0.00  0.00    +0.000 C 
ATOM     15  C   UNL     1       7.947   7.698  17.888  0.00  0.00    +0.000 C 
ENDBRANCH  13  15
ENDBRANCH  12  13
ENDBRANCH   1  12
BRANCH   3  16
ATOM     16  C   UNL     1       6.036   4.001  13.728  0.00  0.00    +0.000 C 
BRANCH  16  17
ATOM     17  O   UNL     1       6.865   4.060  12.562  0.00  0.00    +0.000 OA
ATOM     18  H   UNL     1       7.719   4.422  12.877  0.00  0.00    +0.000 HD
ENDBRANCH  16  17
ENDBRANCH   3  16
TORSDOF 8
ENDMDL
MODEL 5
REMARK VINA RESULT:      -5.5      3.834      5.945
REMARK  Name = 
REMARK  9 active torsions:
REMARK  status: ('A' for Active; 'I' for Inactive)
REMARK    1  A    between atoms: C_1  and  C_2
REMARK    2  A    between atoms: C_2  and  O_3
REMARK    3  A    between atoms: O_3  and  C_4
REMARK    4  A    between atoms: C_4  and  C_5
REMARK    5  A    between atoms: C_7  and  O_8
REMARK    6  A    between atoms: C_7  and  C_9
REMARK    7  A    between atoms: C_9  and  O_10
REMARK    8  A    between atoms: C_11  and  O_12
REMARK    9  A    between atoms: C_13  and  O_14
REMARK                            x       y       z     vdW  Elec       q    Type
REMARK                         _______ _______ _______ _____ _____    ______ ____
ROOT
ATOM      1  C   UNL     1       3.637   4.369  19.711  0.00  0.00    +0.000 C 
ATOM      2  O   UNL     1       2.458   4.392  18.882  0.00  0.00    +0.000 OA
ATOM      3  C   UNL     1       2.194   3.086  18.355  0.00  0.00    +0.000 C 
ATOM      4  C   UNL     1       3.365   2.170  18.762  0.00  0.00    +0.000 C 
ATOM      5  C   UNL     1       3.931   2.891  19.986  0.00  0.00    +0.000 C 
ENDROOT
BRANCH   3   6
ATOM      6  O   UNL     1       2.066   3.192  16.937  0.00  0.00    +0.000 OA
ATOM      7  H   UNL     1       2.602   3.965  16.682  0.00  0.00    +0.000 HD
ENDBRANCH   3   6
BRANCH   4   8
ATOM      8  O   UNL     1       4.309   2.038  17.687  0.00  0.00    +0.000 OA
ATOM      9  H   UNL     1       5.030   1.441  17.932  0.00  0.00    +0.000 HD
ENDBRANCH   4   8
BRANCH   5  10
ATOM     10  O   UNL     1       3.245   2.440  21.162  0.00  0.00    +0.000 OA
ATOM     11  H   UNL     1       2.290   2.622  21.068  0.00  0.00    +0.000 HD
ENDBRANCH   5  10
BRANCH   1  12
ATOM     12  C   UNL     1       4.791   5.091  18.997  0.00  0.00    +0.000 C 
BRANCH  12  13
ATOM     13  O   UNL     1       5.956   4.262  18.979  0.00  0.00    +0.000 OA
BRANCH  13  15
ATOM     14  C   UNL     1       7.709   5.886  18.902  0.00  0.00    +0.000 C 
ATOM     15  C   UNL     1       6.974   4.805  18.139  0.00  0.00    +0.000 C 
ENDBRANCH  13  15
ENDBRANCH  12  13
ENDBRANCH   1  12
BRANCH   3  16
ATOM     16  C   UNL     1       0.846   2.560  18.904  0.00  0.00    +0.000 C 
BRANCH  16  17
ATOM     17  O   UNL     1       0.483   3.228  20.117  0.00  0.00    +0.000 OA
ATOM     18  H   UNL     1      -0.467   3.026  20.243  0.00  0.00    +0.000 HD
ENDBRANCH  16  17
ENDBRANCH   3  16
TORSDOF 8
ENDMDL
MODEL 6
REMARK VINA RESULT:      -5.4      2.853      4.972
REMARK  Name = 
REMARK  9 active torsions:
REMARK  status: ('A' for Active; 'I' for Inactive)
REMARK    1  A    between atoms: C_1  and  C_2
REMARK    2  A    between atoms: C_2  and  O_3
REMARK    3  A    between atoms: O_3  and  C_4
REMARK    4  A    between atoms: C_4  and  C_5
REMARK    5  A    between atoms: C_7  and  O_8
REMARK    6  A    between atoms: C_7  and  C_9
REMARK    7  A    between atoms: C_9  and  O_10
REMARK    8  A    between atoms: C_11  and  O_12
REMARK    9  A    between atoms: C_13  and  O_14
REMARK                            x       y       z     vdW  Elec       q    Type
REMARK                         _______ _______ _______ _____ _____    ______ ____
ROOT
ATOM      1  C   UNL     1       4.882   4.667  19.121  0.00  0.00    +0.000 C 
ATOM      2  O   UNL     1       6.303   4.824  19.304  0.00  0.00    +0.000 OA
ATOM      3  C   UNL     1       6.950   5.020  18.040  0.00  0.00    +0.000 C 
ATOM      4  C   UNL     1       5.888   4.842  16.937  0.00  0.00    +0.000 C 
ATOM      5  C   UNL     1       4.587   5.127  17.690  0.00  0.00    +0.000 C 
ENDROOT
BRANCH   3   6
ATOM      6  O   UNL     1       8.004   4.065  17.924  0.00  0.00    +0.000 OA
ATOM      7  H   UNL     1       8.772   4.464  18.372  0.00  0.00    +0.000 HD
ENDBRANCH   3   6
BRANCH   4   8
ATOM      8  O   UNL     1       5.947   3.521  16.376  0.00  0.00    +0.000 OA
ATOM      9  H   UNL     1       5.186   2.993  16.656  0.00  0.00    +0.000 HD
ENDBRANCH   4   8
BRANCH   5  10
ATOM     10  O   UNL     1       4.313   6.535  17.647  0.00  0.00    +0.000 OA
ATOM     11  H   UNL     1       4.684   6.960  18.445  0.00  0.00    +0.000 HD
ENDBRANCH   5  10
BRANCH   1  12
ATOM     12  C   UNL     1       4.480   3.207  19.379  0.00  0.00    +0.000 C 
BRANCH  12  13
ATOM     13  O   UNL     1       3.058   3.095  19.476  0.00  0.00    +0.000 OA
BRANCH  13  15
ATOM     14  C   UNL     1       1.947   2.917  21.586  0.00  0.00    +0.000 C 
ATOM     15  C   UNL     1       2.544   3.863  20.564  0.00  0.00    +0.000 C 
ENDBRANCH  13  15
ENDBRANCH  12  13
ENDBRANCH   1  12
BRANCH   3  16
ATOM     16  C   UNL     1       7.590   6.427  17.989  0.00  0.00    +0.000 C 
BRANCH  16  17
ATOM     17  O   UNL     1       7.255   7.107  16.775  0.00  0.00    +0.000 OA
ATOM     18  H   UNL     1       7.130   6.397  16.113  0.00  0.00    +0.000 HD
ENDBRANCH  16  17
ENDBRANCH   3  16
TORSDOF 8
ENDMDL
MODEL 7
REMARK VINA RESULT:      -5.4      2.576      3.673
REMARK  Name = 
REMARK  9 active torsions:
REMARK  status: ('A' for Active; 'I' for Inactive)
REMARK    1  A    between atoms: C_1  and  C_2
REMARK    2  A    between atoms: C_2  and  O_3
REMARK    3  A    between atoms: O_3  and  C_4
REMARK    4  A    between atoms: C_4  and  C_5
REMARK    5  A    between atoms: C_7  and  O_8
REMARK    6  A    between atoms: C_7  and  C_9
REMARK    7  A    between atoms: C_9  and  O_10
REMARK    8  A    between atoms: C_11  and  O_12
REMARK    9  A    between atoms: C_13  and  O_14
REMARK                            x       y       z     vdW  Elec       q    Type
REMARK                         _______ _______ _______ _____ _____    ______ ____
ROOT
ATOM      1  C   UNL     1       5.108   4.738  17.670  0.00  0.00    +0.000 C 
ATOM      2  O   UNL     1       6.236   4.391  18.499  0.00  0.00    +0.000 OA
ATOM      3  C   UNL     1       7.428   5.013  18.003  0.00  0.00    +0.000 C 
ATOM      4  C   UNL     1       7.077   5.708  16.674  0.00  0.00    +0.000 C 
ATOM      5  C   UNL     1       5.568   5.915  16.804  0.00  0.00    +0.000 C 
ENDROOT
BRANCH   3   6
ATOM      6  O   UNL     1       8.421   4.002  17.832  0.00  0.00    +0.000 OA
ATOM      7  H   UNL     1       9.218   4.466  17.517  0.00  0.00    +0.000 HD
ENDBRANCH   3   6
BRANCH   4   8
ATOM      8  O   UNL     1       7.449   4.889  15.553  0.00  0.00    +0.000 OA
ATOM      9  H   UNL     1       7.401   3.949  15.782  0.00  0.00    +0.000 HD
ENDBRANCH   4   8
BRANCH   5  10
ATOM     10  O   UNL     1       5.314   7.166  17.458  0.00  0.00    +0.000 OA
ATOM     11  H   UNL     1       5.773   7.177  18.321  0.00  0.00    +0.000 HD
ENDBRANCH   5  10
BRANCH   1  12
ATOM     12  C   UNL     1       4.671   3.517  16.846  0.00  0.00    +0.000 C 
BRANCH  12  13
ATOM     13  O   UNL     1       3.428   3.009  17.337  0.00  0.00    +0.000 OA
BRANCH  13  15
ATOM     14  C   UNL     1       1.454   4.297  17.736  0.00  0.00    +0.000 C 
ATOM     15  C   UNL     1       2.820   3.911  18.261  0.00  0.00    +0.000 C 
ENDBRANCH  13  15
ENDBRANCH  12  13
ENDBRANCH   1  12
BRANCH   3  16
ATOM     16  C   UNL     1       7.967   6.021  19.046  0.00  0.00    +0.000 C 
BRANCH  16  17
ATOM     17  O   UNL     1       7.930   5.472  20.368  0.00  0.00    +0.000 OA
ATOM     18  H   UNL     1       7.675   6.220  20.945  0.00  0.00    +0.000 HD
ENDBRANCH  16  17
ENDBRANCH   3  16
TORSDOF 8
ENDMDL
MODEL 8
REMARK VINA RESULT:      -5.4      2.040      4.338
REMARK  Name = 
REMARK  9 active torsions:
REMARK  status: ('A' for Active; 'I' for Inactive)
REMARK    1  A    between atoms: C_1  and  C_2
REMARK    2  A    between atoms: C_2  and  O_3
REMARK    3  A    between atoms: O_3  and  C_4
REMARK    4  A    between atoms: C_4  and  C_5
REMARK    5  A    between atoms: C_7  and  O_8
REMARK    6  A    between atoms: C_7  and  C_9
REMARK    7  A    between atoms: C_9  and  O_10
REMARK    8  A    between atoms: C_11  and  O_12
REMARK    9  A    between atoms: C_13  and  O_14
REMARK                            x       y       z     vdW  Elec       q    Type
REMARK                         _______ _______ _______ _____ _____    ______ ____
ROOT
ATOM      1  C   UNL     1       5.797   4.534  17.986  0.00  0.00    +0.000 C 
ATOM      2  O   UNL     1       5.287   4.651  16.642  0.00  0.00    +0.000 OA
ATOM      3  C   UNL     1       6.120   5.521  15.867  0.00  0.00    +0.000 C 
ATOM      4  C   UNL     1       7.176   6.125  16.813  0.00  0.00    +0.000 C 
ATOM      5  C   UNL     1       7.219   5.101  17.947  0.00  0.00    +0.000 C 
ENDROOT
BRANCH   3   6
ATOM      6  O   UNL     1       5.293   6.526  15.279  0.00  0.00    +0.000 OA
ATOM      7  H   UNL     1       5.687   6.716  14.409  0.00  0.00    +0.000 HD
ENDBRANCH   3   6
BRANCH   4   8
ATOM      8  O   UNL     1       6.788   7.440  17.242  0.00  0.00    +0.000 OA
ATOM      9  H   UNL     1       5.972   7.719  16.803  0.00  0.00    +0.000 HD
ENDBRANCH   4   8
BRANCH   5  10
ATOM     10  O   UNL     1       8.173   4.078  17.628  0.00  0.00    +0.000 OA
ATOM     11  H   UNL     1       8.882   4.460  17.075  0.00  0.00    +0.000 HD
ENDBRANCH   5  10
BRANCH   1  12
ATOM     12  C   UNL     1       4.875   5.283  18.961  0.00  0.00    +0.000 C 
BRANCH  12  13
ATOM     13  O   UNL     1       3.669   4.542  19.169  0.00  0.00    +0.000 OA
BRANCH  13  15
ATOM     14  C   UNL     1       1.720   4.375  17.795  0.00  0.00    +0.000 C 
ATOM     15  C   UNL     1       2.524   5.265  18.718  0.00  0.00    +0.000 C 
ENDBRANCH  13  15
ENDBRANCH  12  13
ENDBRANCH   1  12
BRANCH   3  16
ATOM     16  C   UNL     1       6.778   4.729  14.713  0.00  0.00    +0.000 C 
BRANCH  16  17
ATOM     17  O   UNL     1       7.897   5.437  14.168  0.00  0.00    +0.000 OA
ATOM     18  H   UNL     1       8.357   5.819  14.943  0.00  0.00    +0.000 HD
ENDBRANCH  16  17
ENDBRANCH   3  16
TORSDOF 8
ENDMDL
MODEL 9
REMARK VINA RESULT:      -5.4      2.014      4.505
REMARK  Name = 
REMARK  9 active torsions:
REMARK  status: ('A' for Active; 'I' for Inactive)
REMARK    1  A    between atoms: C_1  and  C_2
REMARK    2  A    between atoms: C_2  and  O_3
REMARK    3  A    between atoms: O_3  and  C_4
REMARK    4  A    between atoms: C_4  and  C_5
REMARK    5  A    between atoms: C_7  and  O_8
REMARK    6  A    between atoms: C_7  and  C_9
REMARK    7  A    between atoms: C_9  and  O_10
REMARK    8  A    between atoms: C_11  and  O_12
REMARK    9  A    between atoms: C_13  and  O_14
REMARK                            x       y       z     vdW  Elec       q    Type
REMARK                         _______ _______ _______ _____ _____    ______ ____
ROOT
ATOM      1  C   UNL     1       5.766   4.543  17.965  0.00  0.00    +0.000 C 
ATOM      2  O   UNL     1       5.261   4.644  16.619  0.00  0.00    +0.000 OA
ATOM      3  C   UNL     1       6.101   5.500  15.834  0.00  0.00    +0.000 C 
ATOM      4  C   UNL     1       7.157   6.111  16.775  0.00  0.00    +0.000 C 
ATOM      5  C   UNL     1       7.192   5.103  17.923  0.00  0.00    +0.000 C 
ENDROOT
BRANCH   3   6
ATOM      6  O   UNL     1       5.281   6.501  15.230  0.00  0.00    +0.000 OA
ATOM      7  H   UNL     1       5.774   6.810  14.450  0.00  0.00    +0.000 HD
ENDBRANCH   3   6
BRANCH   4   8
ATOM      8  O   UNL     1       6.775   7.434  17.184  0.00  0.00    +0.000 OA
ATOM      9  H   UNL     1       7.544   7.938  17.486  0.00  0.00    +0.000 HD
ENDBRANCH   4   8
BRANCH   5  10
ATOM     10  O   UNL     1       8.141   4.071  17.621  0.00  0.00    +0.000 OA
ATOM     11  H   UNL     1       7.664   3.265  17.342  0.00  0.00    +0.000 HD
ENDBRANCH   5  10
BRANCH   1  12
ATOM     12  C   UNL     1       4.846   5.310  18.927  0.00  0.00    +0.000 C 
BRANCH  12  13
ATOM     13  O   UNL     1       4.204   6.389  18.242  0.00  0.00    +0.000 OA
BRANCH  13  15
ATOM     14  C   UNL     1       2.325   7.863  18.137  0.00  0.00    +0.000 C 
ATOM     15  C   UNL     1       2.846   6.539  18.654  0.00  0.00    +0.000 C 
ENDBRANCH  13  15
ENDBRANCH  12  13
ENDBRANCH   1  12
BRANCH   3  16
ATOM     16  C   UNL     1       6.759   4.688  14.693  0.00  0.00    +0.000 C 
BRANCH  16  17
ATOM     17  O   UNL     1       7.864   5.397  14.121  0.00  0.00    +0.000 OA
ATOM     18  H   UNL     1       8.197   4.814  13.408  0.00  0.00    +0.000 HD
ENDBRANCH  16  17
ENDBRANCH   3  16
TORSDOF 8
ENDMDL
