MODEL 1
REMARK VINA RESULT:      -7.9      0.000      0.000
REMARK  Name = 
REMARK  8 active torsions:
REMARK  status: ('A' for Active; 'I' for Inactive)
REMARK    1  A    between atoms: C_1  and  O_2
REMARK    2  A    between atoms: O_2  and  C_3
REMARK    3  A    between atoms: C_8  and  C_9
REMARK    4  A    between atoms: C_9  and  N_10
REMARK    5  A    between atoms: N_10  and  C_11
REMARK    6  A    between atoms: C_11  and  C_12
REMARK    7  A    between atoms: C_12  and  C_13
REMARK    8  A    between atoms: C_20  and  C_21
REMARK                            x       y       z     vdW  Elec       q    Type
REMARK                         _______ _______ _______ _____ _____    ______ ____
ROOT
ATOM      1  C   UNL     1       5.997   3.235  12.173  0.00  0.00    +0.000 A 
ATOM      2  C   UNL     1       7.165   3.979  12.045  0.00  0.00    +0.000 A 
ATOM      3  C   UNL     1       7.546   4.836  13.073  0.00  0.00    +0.000 A 
ATOM      4  C   UNL     1       6.761   4.940  14.231  0.00  0.00    +0.000 A 
ATOM      5  C   UNL     1       7.140   5.774  15.279  0.00  0.00    +0.000 A 
ATOM      6  C   UNL     1       6.405   5.837  16.475  0.00  0.00    +0.000 A 
ATOM      7  C   UNL     1       5.229   5.085  16.531  0.00  0.00    +0.000 A 
ATOM      8  N   UNL     1       4.825   4.290  15.495  0.00  0.00    +0.000 NA
ATOM      9  C   UNL     1       5.578   4.203  14.379  0.00  0.00    +0.000 A 
ATOM     10  C   UNL     1       5.210   3.372  13.325  0.00  0.00    +0.000 A 
ENDROOT
BRANCH   7  11
ATOM     11  C   UNL     1       4.282   5.121  17.659  0.00  0.00    +0.000 A 
ATOM     12  C   UNL     1       3.308   6.110  18.021  0.00  0.00    +0.000 A 
ATOM     13  C   UNL     1       2.550   5.758  19.118  0.00  0.00    +0.000 A 
ATOM     14  S   UNL     1       3.046   4.269  19.776  0.00  0.00    +0.000 S 
ATOM     15  C   UNL     1       4.252   4.084  18.578  0.00  0.00    +0.000 A 
ENDBRANCH   7  11
BRANCH   1  17
ATOM     16  C   UNL     1       6.144   1.099  11.169  0.00  0.00    +0.000 C 
ATOM     17  O   UNL     1       5.514   2.375  11.225  0.00  0.00    +0.000 OA
ENDBRANCH   1  17
BRANCH   6  18
ATOM     18  C   UNL     1       6.952   6.696  17.585  0.00  0.00    +0.000 C 
BRANCH  18  19
ATOM     19  N   UNL     1       7.929   7.707  17.154  0.00  0.00    +0.000 NA
ATOM     20  H   UNL     1       7.836   7.860  16.153  0.00  0.00    +0.000 HD
BRANCH  19  21
ATOM     21  C   UNL     1       7.812   9.022  17.791  0.00  0.00    +0.000 C 
BRANCH  21  22
ATOM     22  C   UNL     1       8.907   9.313  18.822  0.00  0.00    +0.000 C 
BRANCH  22  23
ATOM     23  C   UNL     1       9.347  10.758  18.810  0.00  0.00    +0.000 A 
ATOM     24  C   UNL     1       8.830  11.670  17.879  0.00  0.00    +0.000 A 
ATOM     25  C   UNL     1       9.237  13.005  17.897  0.00  0.00    +0.000 A 
ATOM     26  C   UNL     1      10.154  13.432  18.855  0.00  0.00    +0.000 A 
ATOM     27 BR   UNL     1      10.711  15.238  18.884  0.00  0.00    +0.000 Br
ATOM     28  C   UNL     1      10.663  12.538  19.793  0.00  0.00    +0.000 A 
ATOM     29  C   UNL     1      10.258  11.204  19.773  0.00  0.00    +0.000 A 
ENDBRANCH  22  23
ENDBRANCH  21  22
ENDBRANCH  19  21
ENDBRANCH  18  19
ENDBRANCH   6  18
TORSDOF 7
ENDMDL
MODEL 2
REMARK VINA RESULT:      -7.8      0.826      1.188
REMARK  Name = 
REMARK  8 active torsions:
REMARK  status: ('A' for Active; 'I' for Inactive)
REMARK    1  A    between atoms: C_1  and  O_2
REMARK    2  A    between atoms: O_2  and  C_3
REMARK    3  A    between atoms: C_8  and  C_9
REMARK    4  A    between atoms: C_9  and  N_10
REMARK    5  A    between atoms: N_10  and  C_11
REMARK    6  A    between atoms: C_11  and  C_12
REMARK    7  A    between atoms: C_12  and  C_13
REMARK    8  A    between atoms: C_20  and  C_21
REMARK                            x       y       z     vdW  Elec       q    Type
REMARK                         _______ _______ _______ _____ _____    ______ ____
ROOT
ATOM      1  C   UNL     1       5.706   3.278  12.233  0.00  0.00    +0.000 A 
ATOM      2  C   UNL     1       6.994   3.781  12.080  0.00  0.00    +0.000 A 
ATOM      3  C   UNL     1       7.540   4.575  13.083  0.00  0.00    +0.000 A 
ATOM      4  C   UNL     1       6.800   4.858  14.241  0.00  0.00    +0.000 A 
ATOM      5  C   UNL     1       7.340   5.632  15.264  0.00  0.00    +0.000 A 
ATOM      6  C   UNL     1       6.642   5.865  16.460  0.00  0.00    +0.000 A 
ATOM      7  C   UNL     1       5.344   5.353  16.542  0.00  0.00    +0.000 A 
ATOM      8  N   UNL     1       4.786   4.624  15.529  0.00  0.00    +0.000 NA
ATOM      9  C   UNL     1       5.499   4.365  14.413  0.00  0.00    +0.000 A 
ATOM     10  C   UNL     1       4.970   3.592  13.384  0.00  0.00    +0.000 A 
ENDROOT
BRANCH   7  11
ATOM     11  C   UNL     1       4.432   5.600  17.671  0.00  0.00    +0.000 A 
ATOM     12  C   UNL     1       3.549   6.701  17.928  0.00  0.00    +0.000 A 
ATOM     13  C   UNL     1       2.793   6.544  19.071  0.00  0.00    +0.000 A 
ATOM     14  S   UNL     1       3.184   5.106  19.893  0.00  0.00    +0.000 S 
ATOM     15  C   UNL     1       4.341   4.683  18.707  0.00  0.00    +0.000 A 
ENDBRANCH   7  11
BRANCH   1  17
ATOM     16  C   UNL     1       3.757   2.941  10.936  0.00  0.00    +0.000 C 
ATOM     17  O   UNL     1       5.059   2.501  11.311  0.00  0.00    +0.000 OA
ENDBRANCH   1  17
BRANCH   6  18
ATOM     18  C   UNL     1       7.352   6.633  17.545  0.00  0.00    +0.000 C 
BRANCH  18  19
ATOM     19  N   UNL     1       7.065   8.075  17.564  0.00  0.00    +0.000 NA
ATOM     20  H   UNL     1       6.510   8.297  18.387  0.00  0.00    +0.000 HD
BRANCH  19  21
ATOM     21  C   UNL     1       8.233   8.960  17.595  0.00  0.00    +0.000 C 
BRANCH  21  22
ATOM     22  C   UNL     1       8.809   9.179  18.997  0.00  0.00    +0.000 C 
BRANCH  22  23
ATOM     23  C   UNL     1       9.516  10.506  19.135  0.00  0.00    +0.000 A 
ATOM     24  C   UNL     1       9.757  11.077  20.393  0.00  0.00    +0.000 A 
ATOM     25  C   UNL     1      10.427  12.296  20.498  0.00  0.00    +0.000 A 
ATOM     26  C   UNL     1      10.868  12.941  19.345  0.00  0.00    +0.000 A 
ATOM     27 BR   UNL     1      11.775  14.594  19.480  0.00  0.00    +0.000 Br
ATOM     28  C   UNL     1      10.647  12.376  18.091  0.00  0.00    +0.000 A 
ATOM     29  C   UNL     1       9.975  11.160  17.987  0.00  0.00    +0.000 A 
ENDBRANCH  22  23
ENDBRANCH  21  22
ENDBRANCH  19  21
ENDBRANCH  18  19
ENDBRANCH   6  18
TORSDOF 7
ENDMDL
MODEL 3
REMARK VINA RESULT:      -7.8      0.688      1.202
REMARK  Name = 
REMARK  8 active torsions:
REMARK  status: ('A' for Active; 'I' for Inactive)
REMARK    1  A    between atoms: C_1  and  O_2
REMARK    2  A    between atoms: O_2  and  C_3
REMARK    3  A    between atoms: C_8  and  C_9
REMARK    4  A    between atoms: C_9  and  N_10
REMARK    5  A    between atoms: N_10  and  C_11
REMARK    6  A    between atoms: C_11  and  C_12
REMARK    7  A    between atoms: C_12  and  C_13
REMARK    8  A    between atoms: C_20  and  C_21
REMARK                            x       y       z     vdW  Elec       q    Type
REMARK                         _______ _______ _______ _____ _____    ______ ____
ROOT
ATOM      1  C   UNL     1       6.037   3.235  12.213  0.00  0.00    +0.000 A 
ATOM      2  C   UNL     1       7.174   4.017  12.038  0.00  0.00    +0.000 A 
ATOM      3  C   UNL     1       7.564   4.892  13.047  0.00  0.00    +0.000 A 
ATOM      4  C   UNL     1       6.819   4.977  14.233  0.00  0.00    +0.000 A 
ATOM      5  C   UNL     1       7.208   5.830  15.262  0.00  0.00    +0.000 A 
ATOM      6  C   UNL     1       6.516   5.875  16.484  0.00  0.00    +0.000 A 
ATOM      7  C   UNL     1       5.368   5.085  16.588  0.00  0.00    +0.000 A 
ATOM      8  N   UNL     1       4.953   4.271  15.571  0.00  0.00    +0.000 NA
ATOM      9  C   UNL     1       5.668   4.202  14.428  0.00  0.00    +0.000 A 
ATOM     10  C   UNL     1       5.289   3.352  13.393  0.00  0.00    +0.000 A 
ENDROOT
BRANCH   7  11
ATOM     11  C   UNL     1       4.464   5.097  17.749  0.00  0.00    +0.000 A 
ATOM     12  C   UNL     1       4.372   4.199  18.864  0.00  0.00    +0.000 A 
ATOM     13  C   UNL     1       3.434   4.578  19.801  0.00  0.00    +0.000 A 
ATOM     14  S   UNL     1       2.596   5.981  19.321  0.00  0.00    +0.000 S 
ATOM     15  C   UNL     1       3.507   6.092  17.878  0.00  0.00    +0.000 A 
ENDBRANCH   7  11
BRANCH   1  17
ATOM     16  C   UNL     1       6.071   1.030  11.359  0.00  0.00    +0.000 C 
ATOM     17  O   UNL     1       5.549   2.353  11.288  0.00  0.00    +0.000 OA
ENDBRANCH   1  17
BRANCH   6  18
ATOM     18  C   UNL     1       7.074   6.759  17.570  0.00  0.00    +0.000 C 
BRANCH  18  19
ATOM     19  N   UNL     1       7.869   7.898  17.085  0.00  0.00    +0.000 NA
ATOM     20  H   UNL     1       7.529   8.181  16.169  0.00  0.00    +0.000 HD
BRANCH  19  21
ATOM     21  C   UNL     1       7.848   9.097  17.927  0.00  0.00    +0.000 C 
BRANCH  21  22
ATOM     22  C   UNL     1       8.979   9.152  18.959  0.00  0.00    +0.000 C 
BRANCH  22  23
ATOM     23  C   UNL     1       9.487  10.555  19.191  0.00  0.00    +0.000 A 
ATOM     24  C   UNL     1       9.536  11.109  20.478  0.00  0.00    +0.000 A 
ATOM     25  C   UNL     1      10.026  12.401  20.672  0.00  0.00    +0.000 A 
ATOM     26  C   UNL     1      10.478  13.137  19.579  0.00  0.00    +0.000 A 
ATOM     27 BR   UNL     1      11.141  14.889  19.835  0.00  0.00    +0.000 Br
ATOM     28  C   UNL     1      10.447  12.591  18.299  0.00  0.00    +0.000 A 
ATOM     29  C   UNL     1       9.956  11.302  18.105  0.00  0.00    +0.000 A 
ENDBRANCH  22  23
ENDBRANCH  21  22
ENDBRANCH  19  21
ENDBRANCH  18  19
ENDBRANCH   6  18
TORSDOF 7
ENDMDL
MODEL 4
REMARK VINA RESULT:      -7.8      1.018      1.199
REMARK  Name = 
REMARK  8 active torsions:
REMARK  status: ('A' for Active; 'I' for Inactive)
REMARK    1  A    between atoms: C_1  and  O_2
REMARK    2  A    between atoms: O_2  and  C_3
REMARK    3  A    between atoms: C_8  and  C_9
REMARK    4  A    between atoms: C_9  and  N_10
REMARK    5  A    between atoms: N_10  and  C_11
REMARK    6  A    between atoms: C_11  and  C_12
REMARK    7  A    between atoms: C_12  and  C_13
REMARK    8  A    between atoms: C_20  and  C_21
REMARK                            x       y       z     vdW  Elec       q    Type
REMARK                         _______ _______ _______ _____ _____    ______ ____
ROOT
ATOM      1  C   UNL     1       5.854   3.495  12.555  0.00  0.00    +0.000 A 
ATOM      2  C   UNL     1       7.075   4.153  12.452  0.00  0.00    +0.000 A 
ATOM      3  C   UNL     1       7.515   4.947  13.506  0.00  0.00    +0.000 A 
ATOM      4  C   UNL     1       6.736   5.074  14.666  0.00  0.00    +0.000 A 
ATOM      5  C   UNL     1       7.172   5.845  15.739  0.00  0.00    +0.000 A 
ATOM      6  C   UNL     1       6.440   5.926  16.936  0.00  0.00    +0.000 A 
ATOM      7  C   UNL     1       5.211   5.263  16.968  0.00  0.00    +0.000 A 
ATOM      8  N   UNL     1       4.752   4.533  15.907  0.00  0.00    +0.000 NA
ATOM      9  C   UNL     1       5.501   4.423  14.790  0.00  0.00    +0.000 A 
ATOM     10  C   UNL     1       5.075   3.654  13.711  0.00  0.00    +0.000 A 
ENDROOT
BRANCH   7  11
ATOM     11  C   UNL     1       4.266   5.336  18.095  0.00  0.00    +0.000 A 
ATOM     12  C   UNL     1       4.095   4.464  19.220  0.00  0.00    +0.000 A 
ATOM     13  C   UNL     1       3.141   4.901  20.115  0.00  0.00    +0.000 A 
ATOM     14  S   UNL     1       2.384   6.329  19.581  0.00  0.00    +0.000 S 
ATOM     15  C   UNL     1       3.350   6.374  18.171  0.00  0.00    +0.000 A 
ENDBRANCH   7  11
BRANCH   1  17
ATOM     16  C   UNL     1       4.035   3.107  11.094  0.00  0.00    +0.000 C 
ATOM     17  O   UNL     1       5.311   2.702  11.581  0.00  0.00    +0.000 OA
ENDBRANCH   1  17
BRANCH   6  18
ATOM     18  C   UNL     1       7.045   6.708  18.073  0.00  0.00    +0.000 C 
BRANCH  18  19
ATOM     19  N   UNL     1       8.198   7.542  17.699  0.00  0.00    +0.000 NA
ATOM     20  H   UNL     1       8.427   7.381  16.721  0.00  0.00    +0.000 HD
BRANCH  19  21
ATOM     21  C   UNL     1       8.019   8.988  17.854  0.00  0.00    +0.000 C 
BRANCH  21  22
ATOM     22  C   UNL     1       8.939   9.620  18.903  0.00  0.00    +0.000 C 
BRANCH  22  23
ATOM     23  C   UNL     1       9.520  10.938  18.449  0.00  0.00    +0.000 A 
ATOM     24  C   UNL     1       8.710  11.935  17.886  0.00  0.00    +0.000 A 
ATOM     25  C   UNL     1       9.264  13.153  17.490  0.00  0.00    +0.000 A 
ATOM     26  C   UNL     1      10.627  13.379  17.666  0.00  0.00    +0.000 A 
ATOM     27 BR   UNL     1      11.384  15.026  17.129  0.00  0.00    +0.000 Br
ATOM     28  C   UNL     1      11.437  12.401  18.237  0.00  0.00    +0.000 A 
ATOM     29  C   UNL     1      10.884  11.184  18.630  0.00  0.00    +0.000 A 
ENDBRANCH  22  23
ENDBRANCH  21  22
ENDBRANCH  19  21
ENDBRANCH  18  19
ENDBRANCH   6  18
TORSDOF 7
ENDMDL
MODEL 5
REMARK VINA RESULT:      -7.4      1.078      1.400
REMARK  Name = 
REMARK  8 active torsions:
REMARK  status: ('A' for Active; 'I' for Inactive)
REMARK    1  A    between atoms: C_1  and  O_2
REMARK    2  A    between atoms: O_2  and  C_3
REMARK    3  A    between atoms: C_8  and  C_9
REMARK    4  A    between atoms: C_9  and  N_10
REMARK    5  A    between atoms: N_10  and  C_11
REMARK    6  A    between atoms: C_11  and  C_12
REMARK    7  A    between atoms: C_12  and  C_13
REMARK    8  A    between atoms: C_20  and  C_21
REMARK                            x       y       z     vdW  Elec       q    Type
REMARK                         _______ _______ _______ _____ _____    ______ ____
ROOT
ATOM      1  C   UNL     1       5.388   3.358  12.098  0.00  0.00    +0.000 A 
ATOM      2  C   UNL     1       6.710   3.768  11.967  0.00  0.00    +0.000 A 
ATOM      3  C   UNL     1       7.365   4.322  13.062  0.00  0.00    +0.000 A 
ATOM      4  C   UNL     1       6.698   4.456  14.289  0.00  0.00    +0.000 A 
ATOM      5  C   UNL     1       7.346   4.986  15.401  0.00  0.00    +0.000 A 
ATOM      6  C   UNL     1       6.717   5.061  16.655  0.00  0.00    +0.000 A 
ATOM      7  C   UNL     1       5.381   4.656  16.715  0.00  0.00    +0.000 A 
ATOM      8  N   UNL     1       4.721   4.169  15.622  0.00  0.00    +0.000 NA
ATOM      9  C   UNL     1       5.365   4.053  14.442  0.00  0.00    +0.000 A 
ATOM     10  C   UNL     1       4.727   3.523  13.324  0.00  0.00    +0.000 A 
ENDROOT
BRANCH   7  11
ATOM     11  C   UNL     1       4.539   4.774  17.917  0.00  0.00    +0.000 A 
ATOM     12  C   UNL     1       4.422   3.911  19.058  0.00  0.00    +0.000 A 
ATOM     13  C   UNL     1       3.569   4.394  20.027  0.00  0.00    +0.000 A 
ATOM     14  S   UNL     1       2.837   5.856  19.552  0.00  0.00    +0.000 S 
ATOM     15  C   UNL     1       3.683   5.854  18.065  0.00  0.00    +0.000 A 
ENDBRANCH   7  11
BRANCH   1  17
ATOM     16  C   UNL     1       3.657   3.676  10.518  0.00  0.00    +0.000 C 
ATOM     17  O   UNL     1       4.637   2.816  11.090  0.00  0.00    +0.000 OA
ENDBRANCH   1  17
BRANCH   6  18
ATOM     18  C   UNL     1       7.536   5.560  17.818  0.00  0.00    +0.000 C 
BRANCH  18  19
ATOM     19  N   UNL     1       7.185   6.912  18.280  0.00  0.00    +0.000 NA
ATOM     20  H   UNL     1       6.749   6.851  19.197  0.00  0.00    +0.000 HD
BRANCH  19  21
ATOM     21  C   UNL     1       8.300   7.854  18.408  0.00  0.00    +0.000 C 
BRANCH  21  22
ATOM     22  C   UNL     1       8.094   9.168  17.648  0.00  0.00    +0.000 C 
BRANCH  22  23
ATOM     23  C   UNL     1       8.734  10.347  18.342  0.00  0.00    +0.000 A 
ATOM     24  C   UNL     1       8.745  11.620  17.754  0.00  0.00    +0.000 A 
ATOM     25  C   UNL     1       9.326  12.700  18.420  0.00  0.00    +0.000 A 
ATOM     26  C   UNL     1       9.888  12.510  19.681  0.00  0.00    +0.000 A 
ATOM     27 BR   UNL     1      10.678  13.968  20.588  0.00  0.00    +0.000 Br
ATOM     28  C   UNL     1       9.869  11.253  20.280  0.00  0.00    +0.000 A 
ATOM     29  C   UNL     1       9.291  10.174  19.613  0.00  0.00    +0.000 A 
ENDBRANCH  22  23
ENDBRANCH  21  22
ENDBRANCH  19  21
ENDBRANCH  18  19
ENDBRANCH   6  18
TORSDOF 7
ENDMDL
MODEL 6
REMARK VINA RESULT:      -7.2      7.571     10.189
REMARK  Name = 
REMARK  8 active torsions:
REMARK  status: ('A' for Active; 'I' for Inactive)
REMARK    1  A    between atoms: C_1  and  O_2
REMARK    2  A    between atoms: O_2  and  C_3
REMARK    3  A    between atoms: C_8  and  C_9
REMARK    4  A    between atoms: C_9  and  N_10
REMARK    5  A    between atoms: N_10  and  C_11
REMARK    6  A    between atoms: C_11  and  C_12
REMARK    7  A    between atoms: C_12  and  C_13
REMARK    8  A    between atoms: C_20  and  C_21
REMARK                            x       y       z     vdW  Elec       q    Type
REMARK                         _______ _______ _______ _____ _____    ______ ____
ROOT
ATOM      1  C   UNL     1       4.014   5.857  17.865  0.00  0.00    +0.000 A 
ATOM      2  C   UNL     1       3.838   5.142  19.045  0.00  0.00    +0.000 A 
ATOM      3  C   UNL     1       3.009   5.653  20.037  0.00  0.00    +0.000 A 
ATOM      4  C   UNL     1       2.348   6.876  19.843  0.00  0.00    +0.000 A 
ATOM      5  C   UNL     1       1.495   7.390  20.816  0.00  0.00    +0.000 A 
ATOM      6  C   UNL     1       0.771   8.576  20.609  0.00  0.00    +0.000 A 
ATOM      7  C   UNL     1       1.010   9.260  19.415  0.00  0.00    +0.000 A 
ATOM      8  N   UNL     1       1.873   8.786  18.467  0.00  0.00    +0.000 NA
ATOM      9  C   UNL     1       2.514   7.615  18.664  0.00  0.00    +0.000 A 
ATOM     10  C   UNL     1       3.368   7.090  17.699  0.00  0.00    +0.000 A 
ENDROOT
BRANCH   7  11
ATOM     11  C   UNL     1       0.425  10.571  19.087  0.00  0.00    +0.000 A 
ATOM     12  C   UNL     1      -0.889  10.912  18.626  0.00  0.00    +0.000 A 
ATOM     13  C   UNL     1      -1.090  12.270  18.491  0.00  0.00    +0.000 A 
ATOM     14  S   UNL     1       0.321  13.154  18.847  0.00  0.00    +0.000 S 
ATOM     15  C   UNL     1       1.187  11.724  19.206  0.00  0.00    +0.000 A 
ENDBRANCH   7  11
BRANCH   1  17
ATOM     16  C   UNL     1       5.746   6.438  16.363  0.00  0.00    +0.000 C 
ATOM     17  O   UNL     1       4.815   5.464  16.828  0.00  0.00    +0.000 OA
ENDBRANCH   1  17
BRANCH   6  18
ATOM     18  C   UNL     1      -0.199   8.997  21.683  0.00  0.00    +0.000 C 
BRANCH  18  19
ATOM     19  N   UNL     1       0.198  10.200  22.431  0.00  0.00    +0.000 NA
ATOM     20  H   UNL     1       0.621  10.869  21.792  0.00  0.00    +0.000 HD
BRANCH  19  21
ATOM     21  C   UNL     1      -0.883  10.908  23.123  0.00  0.00    +0.000 C 
BRANCH  21  22
ATOM     22  C   UNL     1      -1.256  12.250  22.485  0.00  0.00    +0.000 C 
BRANCH  22  23
ATOM     23  C   UNL     1      -2.737  12.536  22.557  0.00  0.00    +0.000 A 
ATOM     24  C   UNL     1      -3.499  12.725  21.396  0.00  0.00    +0.000 A 
ATOM     25  C   UNL     1      -4.870  12.972  21.484  0.00  0.00    +0.000 A 
ATOM     26  C   UNL     1      -5.482  13.018  22.734  0.00  0.00    +0.000 A 
ATOM     27 BR   UNL     1      -7.338  13.354  22.861  0.00  0.00    +0.000 Br
ATOM     28  C   UNL     1      -4.736  12.817  23.893  0.00  0.00    +0.000 A 
ATOM     29  C   UNL     1      -3.367  12.574  23.804  0.00  0.00    +0.000 A 
ENDBRANCH  22  23
ENDBRANCH  21  22
ENDBRANCH  19  21
ENDBRANCH  18  19
ENDBRANCH   6  18
TORSDOF 7
ENDMDL
MODEL 7
REMARK VINA RESULT:      -7.2      1.024      1.108
REMARK  Name = 
REMARK  8 active torsions:
REMARK  status: ('A' for Active; 'I' for Inactive)
REMARK    1  A    between atoms: C_1  and  O_2
REMARK    2  A    between atoms: O_2  and  C_3
REMARK    3  A    between atoms: C_8  and  C_9
REMARK    4  A    between atoms: C_9  and  N_10
REMARK    5  A    between atoms: N_10  and  C_11
REMARK    6  A    between atoms: C_11  and  C_12
REMARK    7  A    between atoms: C_12  and  C_13
REMARK    8  A    between atoms: C_20  and  C_21
REMARK                            x       y       z     vdW  Elec       q    Type
REMARK                         _______ _______ _______ _____ _____    ______ ____
ROOT
ATOM      1  C   UNL     1       5.956   3.325  12.567  0.00  0.00    +0.000 A 
ATOM      2  C   UNL     1       7.178   3.975  12.425  0.00  0.00    +0.000 A 
ATOM      3  C   UNL     1       7.604   4.854  13.415  0.00  0.00    +0.000 A 
ATOM      4  C   UNL     1       6.810   5.075  14.551  0.00  0.00    +0.000 A 
ATOM      5  C   UNL     1       7.232   5.933  15.563  0.00  0.00    +0.000 A 
ATOM      6  C   UNL     1       6.485   6.110  16.739  0.00  0.00    +0.000 A 
ATOM      7  C   UNL     1       5.256   5.449  16.810  0.00  0.00    +0.000 A 
ATOM      8  N   UNL     1       4.811   4.634  15.808  0.00  0.00    +0.000 NA
ATOM      9  C   UNL     1       5.574   4.434  14.713  0.00  0.00    +0.000 A 
ATOM     10  C   UNL     1       5.163   3.578  13.695  0.00  0.00    +0.000 A 
ENDROOT
BRANCH   7  11
ATOM     11  C   UNL     1       4.297   5.613  17.915  0.00  0.00    +0.000 A 
ATOM     12  C   UNL     1       3.364   6.669  18.187  0.00  0.00    +0.000 A 
ATOM     13  C   UNL     1       2.576   6.435  19.294  0.00  0.00    +0.000 A 
ATOM     14  S   UNL     1       2.993   4.978  20.068  0.00  0.00    +0.000 S 
ATOM     15  C   UNL     1       4.205   4.649  18.908  0.00  0.00    +0.000 A 
ENDBRANCH   7  11
BRANCH   1  17
ATOM     16  C   UNL     1       6.345   1.534  11.072  0.00  0.00    +0.000 C 
ATOM     17  O   UNL     1       5.426   2.454  11.654  0.00  0.00    +0.000 OA
ENDBRANCH   1  17
BRANCH   6  18
ATOM     18  C   UNL     1       7.075   6.984  17.815  0.00  0.00    +0.000 C 
BRANCH  18  19
ATOM     19  N   UNL     1       7.653   8.248  17.331  0.00  0.00    +0.000 NA
ATOM     20  H   UNL     1       6.905   8.859  17.011  0.00  0.00    +0.000 HD
BRANCH  19  21
ATOM     21  C   UNL     1       8.428   9.013  18.311  0.00  0.00    +0.000 C 
BRANCH  21  22
ATOM     22  C   UNL     1       9.004  10.322  17.763  0.00  0.00    +0.000 C 
BRANCH  22  23
ATOM     23  C   UNL     1       9.142  11.387  18.825  0.00  0.00    +0.000 A 
ATOM     24  C   UNL     1       8.984  12.746  18.518  0.00  0.00    +0.000 A 
ATOM     25  C   UNL     1       9.099  13.713  19.519  0.00  0.00    +0.000 A 
ATOM     26  C   UNL     1       9.361  13.320  20.829  0.00  0.00    +0.000 A 
ATOM     27 BR   UNL     1       9.519  14.624  22.188  0.00  0.00    +0.000 Br
ATOM     28  C   UNL     1       9.505  11.972  21.146  0.00  0.00    +0.000 A 
ATOM     29  C   UNL     1       9.393  11.007  20.147  0.00  0.00    +0.000 A 
ENDBRANCH  22  23
ENDBRANCH  21  22
ENDBRANCH  19  21
ENDBRANCH  18  19
ENDBRANCH   6  18
TORSDOF 7
ENDMDL
MODEL 8
REMARK VINA RESULT:      -7.2      1.008      1.532
REMARK  Name = 
REMARK  8 active torsions:
REMARK  status: ('A' for Active; 'I' for Inactive)
REMARK    1  A    between atoms: C_1  and  O_2
REMARK    2  A    between atoms: O_2  and  C_3
REMARK    3  A    between atoms: C_8  and  C_9
REMARK    4  A    between atoms: C_9  and  N_10
REMARK    5  A    between atoms: N_10  and  C_11
REMARK    6  A    between atoms: C_11  and  C_12
REMARK    7  A    between atoms: C_12  and  C_13
REMARK    8  A    between atoms: C_20  and  C_21
REMARK                            x       y       z     vdW  Elec       q    Type
REMARK                         _______ _______ _______ _____ _____    ______ ____
ROOT
ATOM      1  C   UNL     1       5.989   3.675  12.491  0.00  0.00    +0.000 A 
ATOM      2  C   UNL     1       7.198   4.362  12.510  0.00  0.00    +0.000 A 
ATOM      3  C   UNL     1       7.610   4.988  13.682  0.00  0.00    +0.000 A 
ATOM      4  C   UNL     1       6.815   4.918  14.836  0.00  0.00    +0.000 A 
ATOM      5  C   UNL     1       7.223   5.518  16.024  0.00  0.00    +0.000 A 
ATOM      6  C   UNL     1       6.475   5.398  17.207  0.00  0.00    +0.000 A 
ATOM      7  C   UNL     1       5.259   4.717  17.116  0.00  0.00    +0.000 A 
ATOM      8  N   UNL     1       4.827   4.155  15.948  0.00  0.00    +0.000 NA
ATOM      9  C   UNL     1       5.591   4.235  14.838  0.00  0.00    +0.000 A 
ATOM     10  C   UNL     1       5.194   3.638  13.646  0.00  0.00    +0.000 A 
ENDROOT
BRANCH   7  11
ATOM     11  C   UNL     1       4.299   4.596  18.226  0.00  0.00    +0.000 A 
ATOM     12  C   UNL     1       4.118   3.545  19.186  0.00  0.00    +0.000 A 
ATOM     13  C   UNL     1       3.150   3.823  20.129  0.00  0.00    +0.000 A 
ATOM     14  S   UNL     1       2.393   5.318  19.833  0.00  0.00    +0.000 S 
ATOM     15  C   UNL     1       3.377   5.603  18.464  0.00  0.00    +0.000 A 
ENDBRANCH   7  11
BRANCH   1  17
ATOM     16  C   UNL     1       4.059   3.118  11.243  0.00  0.00    +0.000 C 
ATOM     17  O   UNL     1       5.473   3.036  11.397  0.00  0.00    +0.000 OA
ENDBRANCH   1  17
BRANCH   6  18
ATOM     18  C   UNL     1       7.052   6.001  18.462  0.00  0.00    +0.000 C 
BRANCH  18  19
ATOM     19  N   UNL     1       8.146   6.958  18.235  0.00  0.00    +0.000 NA
ATOM     20  H   UNL     1       8.358   6.998  17.241  0.00  0.00    +0.000 HD
BRANCH  19  21
ATOM     21  C   UNL     1       7.890   8.336  18.664  0.00  0.00    +0.000 C 
BRANCH  21  22
ATOM     22  C   UNL     1       8.459   9.398  17.718  0.00  0.00    +0.000 C 
BRANCH  22  23
ATOM     23  C   UNL     1       9.014  10.594  18.453  0.00  0.00    +0.000 A 
ATOM     24  C   UNL     1       9.455  10.493  19.780  0.00  0.00    +0.000 A 
ATOM     25  C   UNL     1       9.982  11.607  20.436  0.00  0.00    +0.000 A 
ATOM     26  C   UNL     1      10.078  12.822  19.760  0.00  0.00    +0.000 A 
ATOM     27 BR   UNL     1      10.788  14.335  20.642  0.00  0.00    +0.000 Br
ATOM     28  C   UNL     1       9.657  12.929  18.437  0.00  0.00    +0.000 A 
ATOM     29  C   UNL     1       9.129  11.817  17.784  0.00  0.00    +0.000 A 
ENDBRANCH  22  23
ENDBRANCH  21  22
ENDBRANCH  19  21
ENDBRANCH  18  19
ENDBRANCH   6  18
TORSDOF 7
ENDMDL
MODEL 9
REMARK VINA RESULT:      -7.1      2.665      4.973
REMARK  Name = 
REMARK  8 active torsions:
REMARK  status: ('A' for Active; 'I' for Inactive)
REMARK    1  A    between atoms: C_1  and  O_2
REMARK    2  A    between atoms: O_2  and  C_3
REMARK    3  A    between atoms: C_8  and  C_9
REMARK    4  A    between atoms: C_9  and  N_10
REMARK    5  A    between atoms: N_10  and  C_11
REMARK    6  A    between atoms: C_11  and  C_12
REMARK    7  A    between atoms: C_12  and  C_13
REMARK    8  A    between atoms: C_20  and  C_21
REMARK                            x       y       z     vdW  Elec       q    Type
REMARK                         _______ _______ _______ _____ _____    ______ ____
ROOT
ATOM      1  C   UNL     1       2.804   3.175  19.197  0.00  0.00    +0.000 A 
ATOM      2  C   UNL     1       3.167   4.152  20.118  0.00  0.00    +0.000 A 
ATOM      3  C   UNL     1       4.129   5.095  19.771  0.00  0.00    +0.000 A 
ATOM      4  C   UNL     1       4.721   5.063  18.498  0.00  0.00    +0.000 A 
ATOM      5  C   UNL     1       5.667   6.014  18.126  0.00  0.00    +0.000 A 
ATOM      6  C   UNL     1       6.216   6.041  16.833  0.00  0.00    +0.000 A 
ATOM      7  C   UNL     1       5.830   5.018  15.963  0.00  0.00    +0.000 A 
ATOM      8  N   UNL     1       4.930   4.056  16.328  0.00  0.00    +0.000 NA
ATOM      9  C   UNL     1       4.373   4.086  17.557  0.00  0.00    +0.000 A 
ATOM     10  C   UNL     1       3.425   3.141  17.940  0.00  0.00    +0.000 A 
ENDROOT
BRANCH   7  11
ATOM     11  C   UNL     1       6.392   4.829  14.616  0.00  0.00    +0.000 A 
ATOM     12  C   UNL     1       7.520   5.451  13.985  0.00  0.00    +0.000 A 
ATOM     13  C   UNL     1       7.784   4.961  12.723  0.00  0.00    +0.000 A 
ATOM     14  S   UNL     1       6.636   3.797  12.246  0.00  0.00    +0.000 S 
ATOM     15  C   UNL     1       5.807   3.931  13.736  0.00  0.00    +0.000 A 
ENDBRANCH   7  11
BRANCH   1  17
ATOM     16  C   UNL     1       0.519   2.581  19.339  0.00  0.00    +0.000 C 
ATOM     17  O   UNL     1       1.885   2.188  19.429  0.00  0.00    +0.000 OA
ENDBRANCH   1  17
BRANCH   6  18
ATOM     18  C   UNL     1       7.159   7.168  16.499  0.00  0.00    +0.000 C 
BRANCH  18  19
ATOM     19  N   UNL     1       7.951   7.663  17.636  0.00  0.00    +0.000 NA
ATOM     20  H   UNL     1       8.922   7.387  17.515  0.00  0.00    +0.000 HD
BRANCH  19  21
ATOM     21  C   UNL     1       7.949   9.115  17.834  0.00  0.00    +0.000 C 
BRANCH  21  22
ATOM     22  C   UNL     1       8.998   9.607  18.836  0.00  0.00    +0.000 C 
BRANCH  22  23
ATOM     23  C   UNL     1       9.621  10.921  18.427  0.00  0.00    +0.000 A 
ATOM     24  C   UNL     1      11.009  11.056  18.285  0.00  0.00    +0.000 A 
ATOM     25  C   UNL     1      11.563  12.274  17.890  0.00  0.00    +0.000 A 
ATOM     26  C   UNL     1      10.727  13.357  17.625  0.00  0.00    +0.000 A 
ATOM     27 BR   UNL     1      11.471  15.010  17.091  0.00  0.00    +0.000 Br
ATOM     28  C   UNL     1       9.346  13.229  17.749  0.00  0.00    +0.000 A 
ATOM     29  C   UNL     1       8.794  12.013  18.146  0.00  0.00    +0.000 A 
ENDBRANCH  22  23
ENDBRANCH  21  22
ENDBRANCH  19  21
ENDBRANCH  18  19
ENDBRANCH   6  18
TORSDOF 7
ENDMDL
