MODEL 1
REMARK VINA RESULT:      -8.6      0.000      0.000
REMARK  Name = 
REMARK  4 active torsions:
REMARK  status: ('A' for Active; 'I' for Inactive)
REMARK    1  A    between atoms: C_1  and  O_2
REMARK    2  A    between atoms: O_2  and  C_3
REMARK    3  A    between atoms: C_5  and  S_6
REMARK    4  A    between atoms: S_6  and  C_9
REMARK                            x       y       z     vdW  Elec       q    Type
REMARK                         _______ _______ _______ _____ _____    ______ ____
ROOT
ATOM      1  C   UNL     1       6.743   6.014  17.228  0.00  0.00    +0.000 A 
ATOM      2  C   UNL     1       5.645   5.853  18.085  0.00  0.00    +0.000 A 
ATOM      3  C   UNL     1       4.499   5.160  17.672  0.00  0.00    +0.000 A 
ATOM      4  C   UNL     1       4.403   4.583  16.401  0.00  0.00    +0.000 A 
ATOM      5  C   UNL     1       5.483   4.742  15.523  0.00  0.00    +0.000 A 
ATOM      6  C   UNL     1       5.750   4.320  14.199  0.00  0.00    +0.000 A 
ATOM      7  C   UNL     1       7.007   4.789  13.908  0.00  0.00    +0.000 A 
ATOM      8  O   UNL     1       7.548   5.478  14.941  0.00  0.00    +0.000 OA
ATOM      9  C   UNL     1       6.612   5.450  15.947  0.00  0.00    +0.000 A 
ATOM     10  C   UNL     1       7.721   4.597  12.629  0.00  0.00    +0.000 C 
ATOM     11  C   UNL     1       6.971   3.485  11.845  0.00  0.00    +0.000 C 
ATOM     12  N   UNL     1       5.499   3.639  11.885  0.00  0.00    +0.000 NA
ATOM     13  C   UNL     1       4.954   3.500  13.251  0.00  0.00    +0.000 C 
ATOM     14  H   UNL     1       5.069   2.929  11.295  0.00  0.00    +0.000 HD
ENDROOT
BRANCH   3  15
ATOM     15  S   UNL     1       3.137   4.940  18.794  0.00  0.00    +0.000 S 
ATOM     16  O   UNL     1       2.104   4.211  18.083  0.00  0.00    +0.000 OA
ATOM     17  O   UNL     1       3.674   4.420  20.037  0.00  0.00    +0.000 OA
BRANCH  15  18
ATOM     18  C   UNL     1       2.493   6.560  19.136  0.00  0.00    +0.000 A 
ATOM     19  C   UNL     1       2.401   7.500  18.105  0.00  0.00    +0.000 A 
ATOM     20  C   UNL     1       1.835   8.741  18.376  0.00  0.00    +0.000 A 
ATOM     21  F   UNL     1       1.742   9.648  17.396  0.00  0.00    +0.000 F 
ATOM     22  C   UNL     1       1.356   9.053  19.643  0.00  0.00    +0.000 A 
ATOM     23  C   UNL     1       1.451   8.102  20.650  0.00  0.00    +0.000 A 
ATOM     24  F   UNL     1       0.984   8.389  21.872  0.00  0.00    +0.000 F 
ATOM     25  C   UNL     1       2.013   6.853  20.414  0.00  0.00    +0.000 A 
ENDBRANCH  15  18
ENDBRANCH   3  15
BRANCH   1  27
ATOM     26  C   UNL     1       7.759   8.122  17.598  0.00  0.00    +0.000 C 
ATOM     27  O   UNL     1       7.883   6.706  17.539  0.00  0.00    +0.000 OA
ENDBRANCH   1  27
TORSDOF 3
ENDMDL
MODEL 2
REMARK VINA RESULT:      -8.6      0.107      1.616
REMARK  Name = 
REMARK  4 active torsions:
REMARK  status: ('A' for Active; 'I' for Inactive)
REMARK    1  A    between atoms: C_1  and  O_2
REMARK    2  A    between atoms: O_2  and  C_3
REMARK    3  A    between atoms: C_5  and  S_6
REMARK    4  A    between atoms: S_6  and  C_9
REMARK                            x       y       z     vdW  Elec       q    Type
REMARK                         _______ _______ _______ _____ _____    ______ ____
ROOT
ATOM      1  C   UNL     1       6.749   5.992  17.337  0.00  0.00    +0.000 A 
ATOM      2  C   UNL     1       5.647   5.800  18.184  0.00  0.00    +0.000 A 
ATOM      3  C   UNL     1       4.511   5.105  17.749  0.00  0.00    +0.000 A 
ATOM      4  C   UNL     1       4.428   4.556  16.464  0.00  0.00    +0.000 A 
ATOM      5  C   UNL     1       5.511   4.745  15.596  0.00  0.00    +0.000 A 
ATOM      6  C   UNL     1       5.790   4.356  14.265  0.00  0.00    +0.000 A 
ATOM      7  C   UNL     1       7.043   4.843  13.992  0.00  0.00    +0.000 A 
ATOM      8  O   UNL     1       7.572   5.514  15.043  0.00  0.00    +0.000 OA
ATOM      9  C   UNL     1       6.630   5.455  16.043  0.00  0.00    +0.000 A 
ATOM     10  C   UNL     1       7.768   4.687  12.713  0.00  0.00    +0.000 C 
ATOM     11  C   UNL     1       7.033   3.586  11.901  0.00  0.00    +0.000 C 
ATOM     12  N   UNL     1       5.559   3.725  11.935  0.00  0.00    +0.000 NA
ATOM     13  C   UNL     1       5.008   3.549  13.294  0.00  0.00    +0.000 C 
ATOM     14  H   UNL     1       5.139   3.023  11.327  0.00  0.00    +0.000 HD
ENDROOT
BRANCH   3  15
ATOM     15  S   UNL     1       3.144   4.848  18.857  0.00  0.00    +0.000 S 
ATOM     16  O   UNL     1       2.153   4.061  18.147  0.00  0.00    +0.000 OA
ATOM     17  O   UNL     1       3.687   4.374  20.116  0.00  0.00    +0.000 OA
BRANCH  15  18
ATOM     18  C   UNL     1       2.426   6.443  19.160  0.00  0.00    +0.000 A 
ATOM     19  C   UNL     1       1.980   6.769  20.444  0.00  0.00    +0.000 A 
ATOM     20  C   UNL     1       1.480   8.045  20.678  0.00  0.00    +0.000 A 
ATOM     21  F   UNL     1       1.052   8.367  21.905  0.00  0.00    +0.000 F 
ATOM     22  C   UNL     1       1.426   8.995  19.665  0.00  0.00    +0.000 A 
ATOM     23  C   UNL     1       1.881   8.653  18.399  0.00  0.00    +0.000 A 
ATOM     24  F   UNL     1       1.842   9.563  17.418  0.00  0.00    +0.000 F 
ATOM     25  C   UNL     1       2.384   7.385  18.130  0.00  0.00    +0.000 A 
ENDBRANCH  15  18
ENDBRANCH   3  15
BRANCH   1  27
ATOM     26  C   UNL     1       7.779   8.106  17.621  0.00  0.00    +0.000 C 
ATOM     27  O   UNL     1       7.880   6.687  17.670  0.00  0.00    +0.000 OA
ENDBRANCH   1  27
TORSDOF 3
ENDMDL
MODEL 3
REMARK VINA RESULT:      -8.4      3.938      7.325
REMARK  Name = 
REMARK  4 active torsions:
REMARK  status: ('A' for Active; 'I' for Inactive)
REMARK    1  A    between atoms: C_1  and  O_2
REMARK    2  A    between atoms: O_2  and  C_3
REMARK    3  A    between atoms: C_5  and  S_6
REMARK    4  A    between atoms: S_6  and  C_9
REMARK                            x       y       z     vdW  Elec       q    Type
REMARK                         _______ _______ _______ _____ _____    ______ ____
ROOT
ATOM      1  C   UNL     1       3.505   6.604  17.495  0.00  0.00    +0.000 A 
ATOM      2  C   UNL     1       4.785   6.523  16.926  0.00  0.00    +0.000 A 
ATOM      3  C   UNL     1       5.686   5.522  17.311  0.00  0.00    +0.000 A 
ATOM      4  C   UNL     1       5.349   4.551  18.261  0.00  0.00    +0.000 A 
ATOM      5  C   UNL     1       4.081   4.619  18.852  0.00  0.00    +0.000 A 
ATOM      6  C   UNL     1       3.399   3.845  19.820  0.00  0.00    +0.000 A 
ATOM      7  C   UNL     1       2.164   4.428  19.956  0.00  0.00    +0.000 A 
ATOM      8  O   UNL     1       2.019   5.512  19.157  0.00  0.00    +0.000 OA
ATOM      9  C   UNL     1       3.201   5.635  18.465  0.00  0.00    +0.000 A 
ATOM     10  C   UNL     1       1.091   3.969  20.863  0.00  0.00    +0.000 C 
ATOM     11  C   UNL     1       1.467   2.537  21.332  0.00  0.00    +0.000 C 
ATOM     12  N   UNL     1       2.895   2.404  21.704  0.00  0.00    +0.000 NA
ATOM     13  C   UNL     1       3.799   2.619  20.555  0.00  0.00    +0.000 C 
ATOM     14  H   UNL     1       3.062   1.468  22.071  0.00  0.00    +0.000 HD
ENDROOT
BRANCH   3  15
ATOM     15  S   UNL     1       7.289   5.422  16.547  0.00  0.00    +0.000 S 
ATOM     16  O   UNL     1       7.860   6.756  16.564  0.00  0.00    +0.000 OA
ATOM     17  O   UNL     1       7.998   4.316  17.163  0.00  0.00    +0.000 OA
BRANCH  15  18
ATOM     18  C   UNL     1       7.016   4.991  14.846  0.00  0.00    +0.000 A 
ATOM     19  C   UNL     1       7.706   5.674  13.840  0.00  0.00    +0.000 A 
ATOM     20  C   UNL     1       7.529   5.280  12.518  0.00  0.00    +0.000 A 
ATOM     21  F   UNL     1       8.186   5.927  11.547  0.00  0.00    +0.000 F 
ATOM     22  C   UNL     1       6.690   4.222  12.187  0.00  0.00    +0.000 A 
ATOM     23  C   UNL     1       6.021   3.553  13.203  0.00  0.00    +0.000 A 
ATOM     24  F   UNL     1       5.218   2.527  12.897  0.00  0.00    +0.000 F 
ATOM     25  C   UNL     1       6.173   3.923  14.534  0.00  0.00    +0.000 A 
ENDBRANCH  15  18
ENDBRANCH   3  15
BRANCH   1  27
ATOM     26  C   UNL     1       2.525   8.677  18.094  0.00  0.00    +0.000 C 
ATOM     27  O   UNL     1       2.579   7.569  17.201  0.00  0.00    +0.000 OA
ENDBRANCH   1  27
TORSDOF 3
ENDMDL
MODEL 4
REMARK VINA RESULT:      -8.3      3.922      7.405
REMARK  Name = 
REMARK  4 active torsions:
REMARK  status: ('A' for Active; 'I' for Inactive)
REMARK    1  A    between atoms: C_1  and  O_2
REMARK    2  A    between atoms: O_2  and  C_3
REMARK    3  A    between atoms: C_5  and  S_6
REMARK    4  A    between atoms: S_6  and  C_9
REMARK                            x       y       z     vdW  Elec       q    Type
REMARK                         _______ _______ _______ _____ _____    ______ ____
ROOT
ATOM      1  C   UNL     1       3.540   6.535  17.459  0.00  0.00    +0.000 A 
ATOM      2  C   UNL     1       4.829   6.449  16.911  0.00  0.00    +0.000 A 
ATOM      3  C   UNL     1       5.727   5.457  17.326  0.00  0.00    +0.000 A 
ATOM      4  C   UNL     1       5.379   4.500  18.285  0.00  0.00    +0.000 A 
ATOM      5  C   UNL     1       4.101   4.573  18.855  0.00  0.00    +0.000 A 
ATOM      6  C   UNL     1       3.407   3.811  19.824  0.00  0.00    +0.000 A 
ATOM      7  C   UNL     1       2.168   4.392  19.932  0.00  0.00    +0.000 A 
ATOM      8  O   UNL     1       2.031   5.463  19.114  0.00  0.00    +0.000 OA
ATOM      9  C   UNL     1       3.224   5.579  18.439  0.00  0.00    +0.000 A 
ATOM     10  C   UNL     1       1.082   3.943  20.829  0.00  0.00    +0.000 C 
ATOM     11  C   UNL     1       1.456   2.519  21.325  0.00  0.00    +0.000 C 
ATOM     12  N   UNL     1       2.878   2.396  21.721  0.00  0.00    +0.000 NA
ATOM     13  C   UNL     1       3.798   2.597  20.584  0.00  0.00    +0.000 C 
ATOM     14  H   UNL     1       3.042   1.467  22.105  0.00  0.00    +0.000 HD
ENDROOT
BRANCH   3  15
ATOM     15  S   UNL     1       7.342   5.352  16.589  0.00  0.00    +0.000 S 
ATOM     16  O   UNL     1       7.909   6.687  16.594  0.00  0.00    +0.000 OA
ATOM     17  O   UNL     1       8.044   4.257  17.232  0.00  0.00    +0.000 OA
BRANCH  15  18
ATOM     18  C   UNL     1       7.097   4.894  14.890  0.00  0.00    +0.000 A 
ATOM     19  C   UNL     1       6.179   3.890  14.569  0.00  0.00    +0.000 A 
ATOM     20  C   UNL     1       5.953   3.589  13.231  0.00  0.00    +0.000 A 
ATOM     21  F   UNL     1       5.075   2.629  12.913  0.00  0.00    +0.000 F 
ATOM     22  C   UNL     1       6.614   4.272  12.217  0.00  0.00    +0.000 A 
ATOM     23  C   UNL     1       7.517   5.271  12.558  0.00  0.00    +0.000 A 
ATOM     24  F   UNL     1       8.152   5.942  11.589  0.00  0.00    +0.000 F 
ATOM     25  C   UNL     1       7.768   5.595  13.886  0.00  0.00    +0.000 A 
ENDBRANCH  15  18
ENDBRANCH   3  15
BRANCH   1  27
ATOM     26  C   UNL     1       2.541   8.611  18.013  0.00  0.00    +0.000 C 
ATOM     27  O   UNL     1       2.616   7.492  17.136  0.00  0.00    +0.000 OA
ENDBRANCH   1  27
TORSDOF 3
ENDMDL
MODEL 5
REMARK VINA RESULT:      -8.0      3.866      7.070
REMARK  Name = 
REMARK  4 active torsions:
REMARK  status: ('A' for Active; 'I' for Inactive)
REMARK    1  A    between atoms: C_1  and  O_2
REMARK    2  A    between atoms: O_2  and  C_3
REMARK    3  A    between atoms: C_5  and  S_6
REMARK    4  A    between atoms: S_6  and  C_9
REMARK                            x       y       z     vdW  Elec       q    Type
REMARK                         _______ _______ _______ _____ _____    ______ ____
ROOT
ATOM      1  C   UNL     1       3.882   6.757  17.907  0.00  0.00    +0.000 A 
ATOM      2  C   UNL     1       5.155   6.670  17.323  0.00  0.00    +0.000 A 
ATOM      3  C   UNL     1       5.735   5.429  17.032  0.00  0.00    +0.000 A 
ATOM      4  C   UNL     1       5.070   4.225  17.290  0.00  0.00    +0.000 A 
ATOM      5  C   UNL     1       3.803   4.286  17.884  0.00  0.00    +0.000 A 
ATOM      6  C   UNL     1       2.853   3.318  18.286  0.00  0.00    +0.000 A 
ATOM      7  C   UNL     1       1.793   4.029  18.791  0.00  0.00    +0.000 A 
ATOM      8  O   UNL     1       2.005   5.366  18.747  0.00  0.00    +0.000 OA
ATOM      9  C   UNL     1       3.247   5.534  18.181  0.00  0.00    +0.000 A 
ATOM     10  C   UNL     1       0.550   3.446  19.340  0.00  0.00    +0.000 C 
ATOM     11  C   UNL     1       0.509   1.956  18.903  0.00  0.00    +0.000 C 
ATOM     12  N   UNL     1       1.812   1.269  19.060  0.00  0.00    +0.000 NA
ATOM     13  C   UNL     1       2.857   1.837  18.184  0.00  0.00    +0.000 C 
ATOM     14  H   UNL     1       1.703   0.283  18.830  0.00  0.00    +0.000 HD
ENDROOT
BRANCH   3  15
ATOM     15  S   UNL     1       7.335   5.351  16.259  0.00  0.00    +0.000 S 
ATOM     16  O   UNL     1       7.898   6.688  16.293  0.00  0.00    +0.000 OA
ATOM     17  O   UNL     1       8.054   4.241  16.855  0.00  0.00    +0.000 OA
BRANCH  15  18
ATOM     18  C   UNL     1       7.057   4.943  14.553  0.00  0.00    +0.000 A 
ATOM     19  C   UNL     1       7.691   5.685  13.552  0.00  0.00    +0.000 A 
ATOM     20  C   UNL     1       7.514   5.311  12.225  0.00  0.00    +0.000 A 
ATOM     21  F   UNL     1       8.118   6.014  11.259  0.00  0.00    +0.000 F 
ATOM     22  C   UNL     1       6.728   4.217  11.883  0.00  0.00    +0.000 A 
ATOM     23  C   UNL     1       6.113   3.490  12.894  0.00  0.00    +0.000 A 
ATOM     24  F   UNL     1       5.362   2.428  12.576  0.00  0.00    +0.000 F 
ATOM     25  C   UNL     1       6.268   3.837  14.230  0.00  0.00    +0.000 A 
ENDBRANCH  15  18
ENDBRANCH   3  15
BRANCH   1  27
ATOM     26  C   UNL     1       2.114   8.277  17.488  0.00  0.00    +0.000 C 
ATOM     27  O   UNL     1       3.260   7.926  18.256  0.00  0.00    +0.000 OA
ENDBRANCH   1  27
TORSDOF 3
ENDMDL
MODEL 6
REMARK VINA RESULT:      -8.0      2.777      3.497
REMARK  Name = 
REMARK  4 active torsions:
REMARK  status: ('A' for Active; 'I' for Inactive)
REMARK    1  A    between atoms: C_1  and  O_2
REMARK    2  A    between atoms: O_2  and  C_3
REMARK    3  A    between atoms: C_5  and  S_6
REMARK    4  A    between atoms: S_6  and  C_9
REMARK                            x       y       z     vdW  Elec       q    Type
REMARK                         _______ _______ _______ _____ _____    ______ ____
ROOT
ATOM      1  C   UNL     1       6.586   6.252  17.277  0.00  0.00    +0.000 A 
ATOM      2  C   UNL     1       5.414   6.238  18.048  0.00  0.00    +0.000 A 
ATOM      3  C   UNL     1       4.248   5.616  17.582  0.00  0.00    +0.000 A 
ATOM      4  C   UNL     1       4.202   4.968  16.342  0.00  0.00    +0.000 A 
ATOM      5  C   UNL     1       5.356   4.980  15.549  0.00  0.00    +0.000 A 
ATOM      6  C   UNL     1       5.688   4.454  14.279  0.00  0.00    +0.000 A 
ATOM      7  C   UNL     1       6.999   4.797  14.067  0.00  0.00    +0.000 A 
ATOM      8  O   UNL     1       7.516   5.505  15.099  0.00  0.00    +0.000 OA
ATOM      9  C   UNL     1       6.506   5.619  16.024  0.00  0.00    +0.000 A 
ATOM     10  C   UNL     1       7.792   4.464  12.864  0.00  0.00    +0.000 C 
ATOM     11  C   UNL     1       7.011   3.370  12.087  0.00  0.00    +0.000 C 
ATOM     12  N   UNL     1       5.559   3.647  11.995  0.00  0.00    +0.000 NA
ATOM     13  C   UNL     1       4.900   3.642  13.317  0.00  0.00    +0.000 C 
ATOM     14  H   UNL     1       5.116   2.938  11.414  0.00  0.00    +0.000 HD
ENDROOT
BRANCH   3  15
ATOM     15  S   UNL     1       2.789   5.583  18.597  0.00  0.00    +0.000 S 
ATOM     16  O   UNL     1       2.840   6.743  19.467  0.00  0.00    +0.000 OA
ATOM     17  O   UNL     1       1.652   5.378  17.719  0.00  0.00    +0.000 OA
BRANCH  15  18
ATOM     18  C   UNL     1       2.921   4.146  19.632  0.00  0.00    +0.000 A 
ATOM     19  C   UNL     1       4.051   3.329  19.541  0.00  0.00    +0.000 A 
ATOM     20  C   UNL     1       4.168   2.245  20.404  0.00  0.00    +0.000 A 
ATOM     21  F   UNL     1       5.247   1.457  20.325  0.00  0.00    +0.000 F 
ATOM     22  C   UNL     1       3.189   1.969  21.351  0.00  0.00    +0.000 A 
ATOM     23  C   UNL     1       2.078   2.798  21.429  0.00  0.00    +0.000 A 
ATOM     24  F   UNL     1       1.134   2.548  22.345  0.00  0.00    +0.000 F 
ATOM     25  C   UNL     1       1.929   3.889  20.580  0.00  0.00    +0.000 A 
ENDBRANCH  15  18
ENDBRANCH   3  15
BRANCH   1  27
ATOM     26  C   UNL     1       7.742   8.289  17.633  0.00  0.00    +0.000 C 
ATOM     27  O   UNL     1       7.754   6.866  17.641  0.00  0.00    +0.000 OA
ENDBRANCH   1  27
TORSDOF 3
ENDMDL
MODEL 7
REMARK VINA RESULT:      -7.9      3.848      7.196
REMARK  Name = 
REMARK  4 active torsions:
REMARK  status: ('A' for Active; 'I' for Inactive)
REMARK    1  A    between atoms: C_1  and  O_2
REMARK    2  A    between atoms: O_2  and  C_3
REMARK    3  A    between atoms: C_5  and  S_6
REMARK    4  A    between atoms: S_6  and  C_9
REMARK                            x       y       z     vdW  Elec       q    Type
REMARK                         _______ _______ _______ _____ _____    ______ ____
ROOT
ATOM      1  C   UNL     1       3.730   6.728  17.532  0.00  0.00    +0.000 A 
ATOM      2  C   UNL     1       5.037   6.643  17.027  0.00  0.00    +0.000 A 
ATOM      3  C   UNL     1       5.697   5.412  16.927  0.00  0.00    +0.000 A 
ATOM      4  C   UNL     1       5.082   4.212  17.305  0.00  0.00    +0.000 A 
ATOM      5  C   UNL     1       3.782   4.273  17.823  0.00  0.00    +0.000 A 
ATOM      6  C   UNL     1       2.863   3.308  18.299  0.00  0.00    +0.000 A 
ATOM      7  C   UNL     1       1.741   4.013  18.656  0.00  0.00    +0.000 A 
ATOM      8  O   UNL     1       1.884   5.344  18.450  0.00  0.00    +0.000 OA
ATOM      9  C   UNL     1       3.146   5.513  17.930  0.00  0.00    +0.000 A 
ATOM     10  C   UNL     1       0.501   3.431  19.213  0.00  0.00    +0.000 C 
ATOM     11  C   UNL     1       0.563   1.899  18.970  0.00  0.00    +0.000 C 
ATOM     12  N   UNL     1       1.889   1.315  19.278  0.00  0.00    +0.000 NA
ATOM     13  C   UNL     1       2.950   1.829  18.388  0.00  0.00    +0.000 C 
ATOM     14  H   UNL     1       1.845   0.303  19.171  0.00  0.00    +0.000 HD
ENDROOT
BRANCH   3  15
ATOM     15  S   UNL     1       7.339   5.332  16.251  0.00  0.00    +0.000 S 
ATOM     16  O   UNL     1       7.889   6.674  16.291  0.00  0.00    +0.000 OA
ATOM     17  O   UNL     1       8.030   4.240  16.910  0.00  0.00    +0.000 OA
BRANCH  15  18
ATOM     18  C   UNL     1       7.164   4.889  14.540  0.00  0.00    +0.000 A 
ATOM     19  C   UNL     1       6.353   3.807  14.185  0.00  0.00    +0.000 A 
ATOM     20  C   UNL     1       6.176   3.514  12.837  0.00  0.00    +0.000 A 
ATOM     21  F   UNL     1       5.401   2.480  12.487  0.00  0.00    +0.000 F 
ATOM     22  C   UNL     1       6.783   4.278  11.847  0.00  0.00    +0.000 A 
ATOM     23  C   UNL     1       7.579   5.353  12.223  0.00  0.00    +0.000 A 
ATOM     24  F   UNL     1       8.160   6.102  11.278  0.00  0.00    +0.000 F 
ATOM     25  C   UNL     1       7.778   5.672  13.560  0.00  0.00    +0.000 A 
ENDBRANCH  15  18
ENDBRANCH   3  15
BRANCH   1  27
ATOM     26  C   UNL     1       2.322   8.028  18.924  0.00  0.00    +0.000 C 
ATOM     27  O   UNL     1       3.029   7.892  17.696  0.00  0.00    +0.000 OA
ENDBRANCH   1  27
TORSDOF 3
ENDMDL
MODEL 8
REMARK VINA RESULT:      -7.9      2.756      3.652
REMARK  Name = 
REMARK  4 active torsions:
REMARK  status: ('A' for Active; 'I' for Inactive)
REMARK    1  A    between atoms: C_1  and  O_2
REMARK    2  A    between atoms: O_2  and  C_3
REMARK    3  A    between atoms: C_5  and  S_6
REMARK    4  A    between atoms: S_6  and  C_9
REMARK                            x       y       z     vdW  Elec       q    Type
REMARK                         _______ _______ _______ _____ _____    ______ ____
ROOT
ATOM      1  C   UNL     1       6.680   6.251  17.061  0.00  0.00    +0.000 A 
ATOM      2  C   UNL     1       5.537   6.281  17.875  0.00  0.00    +0.000 A 
ATOM      3  C   UNL     1       4.348   5.658  17.476  0.00  0.00    +0.000 A 
ATOM      4  C   UNL     1       4.247   4.965  16.265  0.00  0.00    +0.000 A 
ATOM      5  C   UNL     1       5.372   4.932  15.430  0.00  0.00    +0.000 A 
ATOM      6  C   UNL     1       5.649   4.353  14.169  0.00  0.00    +0.000 A 
ATOM      7  C   UNL     1       6.956   4.671  13.896  0.00  0.00    +0.000 A 
ATOM      8  O   UNL     1       7.519   5.410  14.881  0.00  0.00    +0.000 OA
ATOM      9  C   UNL     1       6.546   5.573  15.838  0.00  0.00    +0.000 A 
ATOM     10  C   UNL     1       7.699   4.283  12.679  0.00  0.00    +0.000 C 
ATOM     11  C   UNL     1       6.877   3.171  11.973  0.00  0.00    +0.000 C 
ATOM     12  N   UNL     1       5.426   3.464  11.924  0.00  0.00    +0.000 NA
ATOM     13  C   UNL     1       4.816   3.517  13.268  0.00  0.00    +0.000 C 
ATOM     14  H   UNL     1       4.953   2.739  11.387  0.00  0.00    +0.000 HD
ENDROOT
BRANCH   3  15
ATOM     15  S   UNL     1       2.927   5.683  18.545  0.00  0.00    +0.000 S 
ATOM     16  O   UNL     1       3.026   6.872  19.370  0.00  0.00    +0.000 OA
ATOM     17  O   UNL     1       1.755   5.464  17.718  0.00  0.00    +0.000 OA
BRANCH  15  18
ATOM     18  C   UNL     1       3.078   4.282  19.626  0.00  0.00    +0.000 A 
ATOM     19  C   UNL     1       2.078   4.023  20.567  0.00  0.00    +0.000 A 
ATOM     20  C   UNL     1       2.180   2.886  21.361  0.00  0.00    +0.000 A 
ATOM     21  F   UNL     1       1.227   2.629  22.265  0.00  0.00    +0.000 F 
ATOM     22  C   UNL     1       3.249   2.007  21.227  0.00  0.00    +0.000 A 
ATOM     23  C   UNL     1       4.227   2.280  20.281  0.00  0.00    +0.000 A 
ATOM     24  F   UNL     1       5.256   1.436  20.137  0.00  0.00    +0.000 F 
ATOM     25  C   UNL     1       4.157   3.409  19.473  0.00  0.00    +0.000 A 
ENDBRANCH  15  18
ENDBRANCH   3  15
BRANCH   1  27
ATOM     26  C   UNL     1       7.797   8.248  17.677  0.00  0.00    +0.000 C 
ATOM     27  O   UNL     1       7.868   6.863  17.359  0.00  0.00    +0.000 OA
ENDBRANCH   1  27
TORSDOF 3
ENDMDL
MODEL 9
REMARK VINA RESULT:      -7.9      4.283      8.248
REMARK  Name = 
REMARK  4 active torsions:
REMARK  status: ('A' for Active; 'I' for Inactive)
REMARK    1  A    between atoms: C_1  and  O_2
REMARK    2  A    between atoms: O_2  and  C_3
REMARK    3  A    between atoms: C_5  and  S_6
REMARK    4  A    between atoms: S_6  and  C_9
REMARK                            x       y       z     vdW  Elec       q    Type
REMARK                         _______ _______ _______ _____ _____    ______ ____
ROOT
ATOM      1  C   UNL     1       1.931   9.275  18.258  0.00  0.00    +0.000 A 
ATOM      2  C   UNL     1       2.452   7.979  18.130  0.00  0.00    +0.000 A 
ATOM      3  C   UNL     1       2.342   7.048  19.171  0.00  0.00    +0.000 A 
ATOM      4  C   UNL     1       1.696   7.358  20.373  0.00  0.00    +0.000 A 
ATOM      5  C   UNL     1       1.178   8.650  20.529  0.00  0.00    +0.000 A 
ATOM      6  C   UNL     1       0.482   9.317  21.565  0.00  0.00    +0.000 A 
ATOM      7  C   UNL     1       0.237  10.581  21.090  0.00  0.00    +0.000 A 
ATOM      8  O   UNL     1       0.729  10.764  19.841  0.00  0.00    +0.000 OA
ATOM      9  C   UNL     1       1.310   9.570  19.485  0.00  0.00    +0.000 A 
ATOM     10  C   UNL     1      -0.470  11.653  21.823  0.00  0.00    +0.000 C 
ATOM     11  C   UNL     1      -1.188  10.989  23.029  0.00  0.00    +0.000 C 
ATOM     12  N   UNL     1      -0.339  10.005  23.740  0.00  0.00    +0.000 NA
ATOM     13  C   UNL     1       0.012   8.848  22.892  0.00  0.00    +0.000 C 
ATOM     14  H   UNL     1      -0.836   9.662  24.560  0.00  0.00    +0.000 HD
ENDROOT
BRANCH   3  15
ATOM     15  S   UNL     1       2.981   5.402  18.967  0.00  0.00    +0.000 S 
ATOM     16  O   UNL     1       3.205   4.856  20.292  0.00  0.00    +0.000 OA
ATOM     17  O   UNL     1       2.115   4.711  18.029  0.00  0.00    +0.000 OA
BRANCH  15  18
ATOM     18  C   UNL     1       4.571   5.565  18.192  0.00  0.00    +0.000 A 
ATOM     19  C   UNL     1       5.723   5.619  18.982  0.00  0.00    +0.000 A 
ATOM     20  C   UNL     1       6.964   5.681  18.357  0.00  0.00    +0.000 A 
ATOM     21  F   UNL     1       8.074   5.732  19.105  0.00  0.00    +0.000 F 
ATOM     22  C   UNL     1       7.074   5.684  16.972  0.00  0.00    +0.000 A 
ATOM     23  C   UNL     1       5.917   5.623  16.206  0.00  0.00    +0.000 A 
ATOM     24  F   UNL     1       6.011   5.615  14.871  0.00  0.00    +0.000 F 
ATOM     25  C   UNL     1       4.661   5.562  16.799  0.00  0.00    +0.000 A 
ENDBRANCH  15  18
ENDBRANCH   3  15
BRANCH   1  27
ATOM     26  C   UNL     1       2.589  11.490  17.733  0.00  0.00    +0.000 C 
ATOM     27  O   UNL     1       2.026  10.254  17.306  0.00  0.00    +0.000 OA
ENDBRANCH   1  27
TORSDOF 3
ENDMDL
