MODEL 1
REMARK VINA RESULT:      -7.4      0.000      0.000
REMARK  Name = 
REMARK  8 active torsions:
REMARK  status: ('A' for Active; 'I' for Inactive)
REMARK    1  A    between atoms: C_1  and  O_2
REMARK    2  A    between atoms: O_2  and  C_3
REMARK    3  A    between atoms: C_6  and  C_7
REMARK    4  A    between atoms: C_10  and  S_11
REMARK    5  A    between atoms: S_11  and  C_12
REMARK    6  A    between atoms: C_12  and  C_13
REMARK    7  A    between atoms: C_14  and  C_15
REMARK    8  A    between atoms: C_18  and  C_19
REMARK                            x       y       z     vdW  Elec       q    Type
REMARK                         _______ _______ _______ _____ _____    ______ ____
ROOT
ATOM      1  C   UNL     1       2.628   6.141  19.528  0.00  0.00    +0.000 A 
ATOM      2  N   UNL     1       2.637   5.231  20.484  0.00  0.00    +0.000 NA
ATOM      3  N   UNL     1       3.309   4.137  19.982  0.00  0.00    +0.000 NA
ATOM      4  C   UNL     1       3.679   4.449  18.757  0.00  0.00    +0.000 A 
ATOM      5  O   UNL     1       3.273   5.711  18.396  0.00  0.00    +0.000 OA
ENDROOT
BRANCH   1   9
ATOM      6  C   UNL     1       1.001  10.110  19.464  0.00  0.00    +0.000 A 
ATOM      7  C   UNL     1       1.598   9.558  18.332  0.00  0.00    +0.000 A 
ATOM      8  C   UNL     1       2.117   8.259  18.363  0.00  0.00    +0.000 A 
ATOM      9  C   UNL     1       2.064   7.488  19.533  0.00  0.00    +0.000 A 
ATOM     10  C   UNL     1       1.475   8.059  20.672  0.00  0.00    +0.000 A 
ATOM     11  C   UNL     1       0.950   9.361  20.639  0.00  0.00    +0.000 A 
BRANCH   6  13
ATOM     12  C   UNL     1       1.109  12.359  20.203  0.00  0.00    +0.000 C 
ATOM     13  O   UNL     1       0.554  11.394  19.318  0.00  0.00    +0.000 OA
ENDBRANCH   6  13
ENDBRANCH   1   9
BRANCH   4  14
ATOM     14  S   UNL     1       4.604   3.414  17.710  0.00  0.00    +0.000 S 
BRANCH  14  15
ATOM     15  C   UNL     1       4.461   4.313  16.134  0.00  0.00    +0.000 C 
BRANCH  15  16
ATOM     16  C   UNL     1       5.781   4.848  15.697  0.00  0.00    +0.000 A 
ATOM     17  C   UNL     1       6.495   4.596  14.486  0.00  0.00    +0.000 A 
ATOM     18  C   UNL     1       6.138   3.732  13.337  0.00  0.00    +0.000 C 
ATOM     19  N   UNL     1       7.647   5.275  14.445  0.00  0.00    +0.000 NA
ATOM     20  O   UNL     1       7.705   5.994  15.619  0.00  0.00    +0.000 OA
ATOM     21  C   UNL     1       6.595   5.747  16.359  0.00  0.00    +0.000 A 
ATOM     22  C   UNL     1       6.506   6.464  17.645  0.00  0.00    +0.000 C 
ENDBRANCH  15  16
ENDBRANCH  14  15
ENDBRANCH   4  14
TORSDOF 5
ENDMDL
MODEL 2
REMARK VINA RESULT:      -7.3      0.617      1.196
REMARK  Name = 
REMARK  8 active torsions:
REMARK  status: ('A' for Active; 'I' for Inactive)
REMARK    1  A    between atoms: C_1  and  O_2
REMARK    2  A    between atoms: O_2  and  C_3
REMARK    3  A    between atoms: C_6  and  C_7
REMARK    4  A    between atoms: C_10  and  S_11
REMARK    5  A    between atoms: S_11  and  C_12
REMARK    6  A    between atoms: C_12  and  C_13
REMARK    7  A    between atoms: C_14  and  C_15
REMARK    8  A    between atoms: C_18  and  C_19
REMARK                            x       y       z     vdW  Elec       q    Type
REMARK                         _______ _______ _______ _____ _____    ______ ____
ROOT
ATOM      1  C   UNL     1       2.457   6.270  19.711  0.00  0.00    +0.000 A 
ATOM      2  N   UNL     1       2.304   5.296  20.588  0.00  0.00    +0.000 NA
ATOM      3  N   UNL     1       3.040   4.226  20.123  0.00  0.00    +0.000 NA
ATOM      4  C   UNL     1       3.606   4.616  18.998  0.00  0.00    +0.000 A 
ATOM      5  O   UNL     1       3.273   5.907  18.669  0.00  0.00    +0.000 OA
ENDROOT
BRANCH   1   9
ATOM      6  C   UNL     1       0.824  10.235  19.825  0.00  0.00    +0.000 A 
ATOM      7  C   UNL     1       0.802   9.414  20.951  0.00  0.00    +0.000 A 
ATOM      8  C   UNL     1       1.346   8.126  20.904  0.00  0.00    +0.000 A 
ATOM      9  C   UNL     1       1.911   7.624  19.723  0.00  0.00    +0.000 A 
ATOM     10  C   UNL     1       1.914   8.452  18.589  0.00  0.00    +0.000 A 
ATOM     11  C   UNL     1       1.372   9.747  18.639  0.00  0.00    +0.000 A 
BRANCH   6  13
ATOM     12  C   UNL     1      -1.135  11.556  19.637  0.00  0.00    +0.000 C 
ATOM     13  O   UNL     1       0.241  11.461  19.988  0.00  0.00    +0.000 OA
ENDBRANCH   6  13
ENDBRANCH   1   9
BRANCH   4  14
ATOM     14  S   UNL     1       4.679   3.638  18.041  0.00  0.00    +0.000 S 
BRANCH  14  15
ATOM     15  C   UNL     1       4.487   4.423  16.411  0.00  0.00    +0.000 C 
BRANCH  15  16
ATOM     16  C   UNL     1       5.788   4.947  15.908  0.00  0.00    +0.000 A 
ATOM     17  C   UNL     1       6.463   4.649  14.686  0.00  0.00    +0.000 A 
ATOM     18  C   UNL     1       6.075   3.734  13.587  0.00  0.00    +0.000 C 
ATOM     19  N   UNL     1       7.609   5.332  14.579  0.00  0.00    +0.000 NA
ATOM     20  O   UNL     1       7.700   6.100  15.719  0.00  0.00    +0.000 OA
ATOM     21  C   UNL     1       6.617   5.878  16.505  0.00  0.00    +0.000 A 
ATOM     22  C   UNL     1       6.565   6.648  17.762  0.00  0.00    +0.000 C 
ENDBRANCH  15  16
ENDBRANCH  14  15
ENDBRANCH   4  14
TORSDOF 5
ENDMDL
MODEL 3
REMARK VINA RESULT:      -7.2      4.977      7.024
REMARK  Name = 
REMARK  8 active torsions:
REMARK  status: ('A' for Active; 'I' for Inactive)
REMARK    1  A    between atoms: C_1  and  O_2
REMARK    2  A    between atoms: O_2  and  C_3
REMARK    3  A    between atoms: C_6  and  C_7
REMARK    4  A    between atoms: C_10  and  S_11
REMARK    5  A    between atoms: S_11  and  C_12
REMARK    6  A    between atoms: C_12  and  C_13
REMARK    7  A    between atoms: C_14  and  C_15
REMARK    8  A    between atoms: C_18  and  C_19
REMARK                            x       y       z     vdW  Elec       q    Type
REMARK                         _______ _______ _______ _____ _____    ______ ____
ROOT
ATOM      1  C   UNL     1       8.525   9.132  18.323  0.00  0.00    +0.000 A 
ATOM      2  N   UNL     1       7.674   9.067  17.316  0.00  0.00    +0.000 NA
ATOM      3  N   UNL     1       7.253   7.756  17.240  0.00  0.00    +0.000 NA
ATOM      4  C   UNL     1       7.862   7.105  18.209  0.00  0.00    +0.000 A 
ATOM      5  O   UNL     1       8.696   7.918  18.938  0.00  0.00    +0.000 OA
ENDROOT
BRANCH   1   9
ATOM      6  C   UNL     1      10.694  12.531  19.791  0.00  0.00    +0.000 A 
ATOM      7  C   UNL     1      10.625  12.254  18.426  0.00  0.00    +0.000 A 
ATOM      8  C   UNL     1       9.907  11.148  17.959  0.00  0.00    +0.000 A 
ATOM      9  C   UNL     1       9.254  10.283  18.849  0.00  0.00    +0.000 A 
ATOM     10  C   UNL     1       9.342  10.561  20.222  0.00  0.00    +0.000 A 
ATOM     11  C   UNL     1      10.059  11.674  20.690  0.00  0.00    +0.000 A 
BRANCH   6  13
ATOM     12  C   UNL     1      12.103  14.287  19.053  0.00  0.00    +0.000 C 
ATOM     13  O   UNL     1      11.444  13.623  20.125  0.00  0.00    +0.000 OA
ENDBRANCH   6  13
ENDBRANCH   1   9
BRANCH   4  14
ATOM     14  S   UNL     1       7.630   5.419  18.566  0.00  0.00    +0.000 S 
BRANCH  14  15
ATOM     15  C   UNL     1       5.904   5.432  19.143  0.00  0.00    +0.000 C 
BRANCH  15  16
ATOM     16  C   UNL     1       5.049   4.543  18.305  0.00  0.00    +0.000 A 
ATOM     17  C   UNL     1       4.345   3.360  18.683  0.00  0.00    +0.000 A 
ATOM     18  C   UNL     1       4.273   2.677  19.996  0.00  0.00    +0.000 C 
ATOM     19  N   UNL     1       3.667   2.842  17.652  0.00  0.00    +0.000 NA
ATOM     20  O   UNL     1       3.902   3.681  16.585  0.00  0.00    +0.000 OA
ATOM     21  C   UNL     1       4.715   4.695  16.973  0.00  0.00    +0.000 A 
ATOM     22  C   UNL     1       5.044   5.690  15.935  0.00  0.00    +0.000 C 
ENDBRANCH  15  16
ENDBRANCH  14  15
ENDBRANCH   4  14
TORSDOF 5
ENDMDL
MODEL 4
REMARK VINA RESULT:      -7.1      0.739      1.834
REMARK  Name = 
REMARK  8 active torsions:
REMARK  status: ('A' for Active; 'I' for Inactive)
REMARK    1  A    between atoms: C_1  and  O_2
REMARK    2  A    between atoms: O_2  and  C_3
REMARK    3  A    between atoms: C_6  and  C_7
REMARK    4  A    between atoms: C_10  and  S_11
REMARK    5  A    between atoms: S_11  and  C_12
REMARK    6  A    between atoms: C_12  and  C_13
REMARK    7  A    between atoms: C_14  and  C_15
REMARK    8  A    between atoms: C_18  and  C_19
REMARK                            x       y       z     vdW  Elec       q    Type
REMARK                         _______ _______ _______ _____ _____    ______ ____
ROOT
ATOM      1  C   UNL     1       2.461   6.265  19.633  0.00  0.00    +0.000 A 
ATOM      2  N   UNL     1       2.265   5.337  20.550  0.00  0.00    +0.000 NA
ATOM      3  N   UNL     1       3.002   4.237  20.163  0.00  0.00    +0.000 NA
ATOM      4  C   UNL     1       3.610   4.565  19.041  0.00  0.00    +0.000 A 
ATOM      5  O   UNL     1       3.307   5.843  18.638  0.00  0.00    +0.000 OA
ENDROOT
BRANCH   1   9
ATOM      6  C   UNL     1       0.941  10.267  19.341  0.00  0.00    +0.000 A 
ATOM      7  C   UNL     1       1.549   9.644  18.251  0.00  0.00    +0.000 A 
ATOM      8  C   UNL     1       2.032   8.336  18.356  0.00  0.00    +0.000 A 
ATOM      9  C   UNL     1       1.933   7.625  19.560  0.00  0.00    +0.000 A 
ATOM     10  C   UNL     1       1.335   8.265  20.657  0.00  0.00    +0.000 A 
ATOM     11  C   UNL     1       0.846   9.577  20.549  0.00  0.00    +0.000 A 
BRANCH   6  13
ATOM     12  C   UNL     1      -0.794  11.717  18.634  0.00  0.00    +0.000 C 
ATOM     13  O   UNL     1       0.532  11.553  19.122  0.00  0.00    +0.000 OA
ENDBRANCH   6  13
ENDBRANCH   1   9
BRANCH   4  14
ATOM     14  S   UNL     1       4.703   3.529  18.170  0.00  0.00    +0.000 S 
BRANCH  14  15
ATOM     15  C   UNL     1       4.474   4.148  16.475  0.00  0.00    +0.000 C 
BRANCH  15  16
ATOM     16  C   UNL     1       5.721   4.780  15.959  0.00  0.00    +0.000 A 
ATOM     17  C   UNL     1       6.592   5.708  16.608  0.00  0.00    +0.000 A 
ATOM     18  C   UNL     1       6.499   6.310  17.958  0.00  0.00    +0.000 C 
ATOM     19  N   UNL     1       7.626   6.039  15.827  0.00  0.00    +0.000 NA
ATOM     20  O   UNL     1       7.462   5.327  14.659  0.00  0.00    +0.000 OA
ATOM     21  C   UNL     1       6.336   4.574  14.739  0.00  0.00    +0.000 A 
ATOM     22  C   UNL     1       6.036   3.737  13.562  0.00  0.00    +0.000 C 
ENDBRANCH  15  16
ENDBRANCH  14  15
ENDBRANCH   4  14
TORSDOF 5
ENDMDL
MODEL 5
REMARK VINA RESULT:      -7.1      0.696      2.086
REMARK  Name = 
REMARK  8 active torsions:
REMARK  status: ('A' for Active; 'I' for Inactive)
REMARK    1  A    between atoms: C_1  and  O_2
REMARK    2  A    between atoms: O_2  and  C_3
REMARK    3  A    between atoms: C_6  and  C_7
REMARK    4  A    between atoms: C_10  and  S_11
REMARK    5  A    between atoms: S_11  and  C_12
REMARK    6  A    between atoms: C_12  and  C_13
REMARK    7  A    between atoms: C_14  and  C_15
REMARK    8  A    between atoms: C_18  and  C_19
REMARK                            x       y       z     vdW  Elec       q    Type
REMARK                         _______ _______ _______ _____ _____    ______ ____
ROOT
ATOM      1  C   UNL     1       2.508   6.190  19.651  0.00  0.00    +0.000 A 
ATOM      2  N   UNL     1       2.445   5.267  20.591  0.00  0.00    +0.000 NA
ATOM      3  N   UNL     1       3.123   4.166  20.111  0.00  0.00    +0.000 NA
ATOM      4  C   UNL     1       3.568   4.489  18.913  0.00  0.00    +0.000 A 
ATOM      5  O   UNL     1       3.208   5.763  18.550  0.00  0.00    +0.000 OA
ENDROOT
BRANCH   1   9
ATOM      6  C   UNL     1       0.902  10.168  19.714  0.00  0.00    +0.000 A 
ATOM      7  C   UNL     1       0.874   9.361  20.850  0.00  0.00    +0.000 A 
ATOM      8  C   UNL     1       1.410   8.069  20.820  0.00  0.00    +0.000 A 
ATOM      9  C   UNL     1       1.971   7.548  19.645  0.00  0.00    +0.000 A 
ATOM     10  C   UNL     1       1.980   8.362  18.501  0.00  0.00    +0.000 A 
ATOM     11  C   UNL     1       1.447   9.660  18.535  0.00  0.00    +0.000 A 
BRANCH   6  13
ATOM     12  C   UNL     1      -0.891  11.614  19.160  0.00  0.00    +0.000 C 
ATOM     13  O   UNL     1       0.328  11.400  19.861  0.00  0.00    +0.000 OA
ENDBRANCH   6  13
ENDBRANCH   1   9
BRANCH   4  14
ATOM     14  S   UNL     1       4.531   3.450  17.904  0.00  0.00    +0.000 S 
BRANCH  14  15
ATOM     15  C   UNL     1       4.353   4.283  16.296  0.00  0.00    +0.000 C 
BRANCH  15  16
ATOM     16  C   UNL     1       5.654   4.842  15.831  0.00  0.00    +0.000 A 
ATOM     17  C   UNL     1       6.530   5.751  16.498  0.00  0.00    +0.000 A 
ATOM     18  C   UNL     1       6.391   6.403  17.821  0.00  0.00    +0.000 C 
ATOM     19  N   UNL     1       7.619   6.009  15.766  0.00  0.00    +0.000 NA
ATOM     20  O   UNL     1       7.487   5.265  14.614  0.00  0.00    +0.000 OA
ATOM     21  C   UNL     1       6.324   4.566  14.655  0.00  0.00    +0.000 A 
ATOM     22  C   UNL     1       6.050   3.704  13.490  0.00  0.00    +0.000 C 
ENDBRANCH  15  16
ENDBRANCH  14  15
ENDBRANCH   4  14
TORSDOF 5
ENDMDL
MODEL 6
REMARK VINA RESULT:      -7.1      4.957      6.952
REMARK  Name = 
REMARK  8 active torsions:
REMARK  status: ('A' for Active; 'I' for Inactive)
REMARK    1  A    between atoms: C_1  and  O_2
REMARK    2  A    between atoms: O_2  and  C_3
REMARK    3  A    between atoms: C_6  and  C_7
REMARK    4  A    between atoms: C_10  and  S_11
REMARK    5  A    between atoms: S_11  and  C_12
REMARK    6  A    between atoms: C_12  and  C_13
REMARK    7  A    between atoms: C_14  and  C_15
REMARK    8  A    between atoms: C_18  and  C_19
REMARK                            x       y       z     vdW  Elec       q    Type
REMARK                         _______ _______ _______ _____ _____    ______ ____
ROOT
ATOM      1  C   UNL     1       8.494   9.121  18.273  0.00  0.00    +0.000 A 
ATOM      2  N   UNL     1       7.634   9.027  17.276  0.00  0.00    +0.000 NA
ATOM      3  N   UNL     1       7.224   7.711  17.232  0.00  0.00    +0.000 NA
ATOM      4  C   UNL     1       7.847   7.086  18.210  0.00  0.00    +0.000 A 
ATOM      5  O   UNL     1       8.681   7.922  18.913  0.00  0.00    +0.000 OA
ENDROOT
BRANCH   1   9
ATOM      6  C   UNL     1      10.599  12.532  19.805  0.00  0.00    +0.000 A 
ATOM      7  C   UNL     1      10.013  11.601  20.662  0.00  0.00    +0.000 A 
ATOM      8  C   UNL     1       9.338  10.488  20.150  0.00  0.00    +0.000 A 
ATOM      9  C   UNL     1       9.218  10.289  18.767  0.00  0.00    +0.000 A 
ATOM     10  C   UNL     1       9.797  11.240  17.912  0.00  0.00    +0.000 A 
ATOM     11  C   UNL     1      10.479  12.354  18.427  0.00  0.00    +0.000 A 
BRANCH   6  13
ATOM     12  C   UNL     1      10.471  14.803  20.469  0.00  0.00    +0.000 C 
ATOM     13  O   UNL     1      11.209  13.587  20.423  0.00  0.00    +0.000 OA
ENDBRANCH   6  13
ENDBRANCH   1   9
BRANCH   4  14
ATOM     14  S   UNL     1       7.632   5.407  18.606  0.00  0.00    +0.000 S 
BRANCH  14  15
ATOM     15  C   UNL     1       5.902   5.413  19.171  0.00  0.00    +0.000 C 
BRANCH  15  16
ATOM     16  C   UNL     1       5.058   4.516  18.331  0.00  0.00    +0.000 A 
ATOM     17  C   UNL     1       4.376   3.318  18.704  0.00  0.00    +0.000 A 
ATOM     18  C   UNL     1       4.323   2.625  20.012  0.00  0.00    +0.000 C 
ATOM     19  N   UNL     1       3.702   2.797  17.673  0.00  0.00    +0.000 NA
ATOM     20  O   UNL     1       3.916   3.647  16.610  0.00  0.00    +0.000 OA
ATOM     21  C   UNL     1       4.715   4.671  17.002  0.00  0.00    +0.000 A 
ATOM     22  C   UNL     1       5.021   5.680  15.969  0.00  0.00    +0.000 C 
ENDBRANCH  15  16
ENDBRANCH  14  15
ENDBRANCH   4  14
TORSDOF 5
ENDMDL
MODEL 7
REMARK VINA RESULT:      -7.0      1.048      1.052
REMARK  Name = 
REMARK  8 active torsions:
REMARK  status: ('A' for Active; 'I' for Inactive)
REMARK    1  A    between atoms: C_1  and  O_2
REMARK    2  A    between atoms: O_2  and  C_3
REMARK    3  A    between atoms: C_6  and  C_7
REMARK    4  A    between atoms: C_10  and  S_11
REMARK    5  A    between atoms: S_11  and  C_12
REMARK    6  A    between atoms: C_12  and  C_13
REMARK    7  A    between atoms: C_14  and  C_15
REMARK    8  A    between atoms: C_18  and  C_19
REMARK                            x       y       z     vdW  Elec       q    Type
REMARK                         _______ _______ _______ _____ _____    ______ ____
ROOT
ATOM      1  C   UNL     1       2.190   5.833  20.092  0.00  0.00    +0.000 A 
ATOM      2  N   UNL     1       2.169   4.909  21.034  0.00  0.00    +0.000 NA
ATOM      3  N   UNL     1       2.721   3.772  20.483  0.00  0.00    +0.000 NA
ATOM      4  C   UNL     1       3.055   4.074  19.245  0.00  0.00    +0.000 A 
ATOM      5  O   UNL     1       2.739   5.372  18.923  0.00  0.00    +0.000 OA
ENDROOT
BRANCH   1   9
ATOM      6  C   UNL     1       0.908   9.928  20.170  0.00  0.00    +0.000 A 
ATOM      7  C   UNL     1       1.506   9.380  19.035  0.00  0.00    +0.000 A 
ATOM      8  C   UNL     1       1.911   8.041  19.019  0.00  0.00    +0.000 A 
ATOM      9  C   UNL     1       1.742   7.223  20.145  0.00  0.00    +0.000 A 
ATOM     10  C   UNL     1       1.154   7.787  21.288  0.00  0.00    +0.000 A 
ATOM     11  C   UNL     1       0.744   9.129  21.302  0.00  0.00    +0.000 A 
BRANCH   6  13
ATOM     12  C   UNL     1       0.496  11.784  18.757  0.00  0.00    +0.000 C 
ATOM     13  O   UNL     1       0.579  11.251  20.073  0.00  0.00    +0.000 OA
ENDBRANCH   6  13
ENDBRANCH   1   9
BRANCH   4  14
ATOM     14  S   UNL     1       3.836   2.984  18.137  0.00  0.00    +0.000 S 
BRANCH  14  15
ATOM     15  C   UNL     1       4.150   4.099  16.734  0.00  0.00    +0.000 C 
BRANCH  15  16
ATOM     16  C   UNL     1       5.604   4.404  16.603  0.00  0.00    +0.000 A 
ATOM     17  C   UNL     1       6.446   4.284  15.457  0.00  0.00    +0.000 A 
ATOM     18  C   UNL     1       6.125   3.815  14.089  0.00  0.00    +0.000 C 
ATOM     19  N   UNL     1       7.698   4.671  15.725  0.00  0.00    +0.000 NA
ATOM     20  O   UNL     1       7.698   5.065  17.045  0.00  0.00    +0.000 OA
ATOM     21  C   UNL     1       6.454   4.914  17.565  0.00  0.00    +0.000 A 
ATOM     22  C   UNL     1       6.293   5.314  18.976  0.00  0.00    +0.000 C 
ENDBRANCH  15  16
ENDBRANCH  14  15
ENDBRANCH   4  14
TORSDOF 5
ENDMDL
MODEL 8
REMARK VINA RESULT:      -7.0      4.776      7.050
REMARK  Name = 
REMARK  8 active torsions:
REMARK  status: ('A' for Active; 'I' for Inactive)
REMARK    1  A    between atoms: C_1  and  O_2
REMARK    2  A    between atoms: O_2  and  C_3
REMARK    3  A    between atoms: C_6  and  C_7
REMARK    4  A    between atoms: C_10  and  S_11
REMARK    5  A    between atoms: S_11  and  C_12
REMARK    6  A    between atoms: C_12  and  C_13
REMARK    7  A    between atoms: C_14  and  C_15
REMARK    8  A    between atoms: C_18  and  C_19
REMARK                            x       y       z     vdW  Elec       q    Type
REMARK                         _______ _______ _______ _____ _____    ______ ____
ROOT
ATOM      1  C   UNL     1       8.372   9.012  18.185  0.00  0.00    +0.000 A 
ATOM      2  N   UNL     1       7.504   8.967  17.192  0.00  0.00    +0.000 NA
ATOM      3  N   UNL     1       7.034   7.672  17.136  0.00  0.00    +0.000 NA
ATOM      4  C   UNL     1       7.633   7.010  18.104  0.00  0.00    +0.000 A 
ATOM      5  O   UNL     1       8.507   7.799  18.812  0.00  0.00    +0.000 OA
ENDROOT
BRANCH   1   9
ATOM      6  C   UNL     1      10.633  12.310  19.741  0.00  0.00    +0.000 A 
ATOM      7  C   UNL     1       9.961  11.431  20.590  0.00  0.00    +0.000 A 
ATOM      8  C   UNL     1       9.235  10.354  20.071  0.00  0.00    +0.000 A 
ATOM      9  C   UNL     1       9.151  10.141  18.688  0.00  0.00    +0.000 A 
ATOM     10  C   UNL     1       9.817  11.039  17.840  0.00  0.00    +0.000 A 
ATOM     11  C   UNL     1      10.550  12.117  18.362  0.00  0.00    +0.000 A 
BRANCH   6  13
ATOM     12  C   UNL     1      10.474  14.395  20.855  0.00  0.00    +0.000 C 
ATOM     13  O   UNL     1      11.287  13.335  20.365  0.00  0.00    +0.000 OA
ENDBRANCH   6  13
ENDBRANCH   1   9
BRANCH   4  14
ATOM     14  S   UNL     1       7.344   5.337  18.484  0.00  0.00    +0.000 S 
BRANCH  14  15
ATOM     15  C   UNL     1       5.847   5.023  17.499  0.00  0.00    +0.000 C 
BRANCH  15  16
ATOM     16  C   UNL     1       4.619   5.108  18.341  0.00  0.00    +0.000 A 
ATOM     17  C   UNL     1       3.640   6.145  18.397  0.00  0.00    +0.000 A 
ATOM     18  C   UNL     1       3.570   7.424  17.654  0.00  0.00    +0.000 C 
ATOM     19  N   UNL     1       2.668   5.854  19.269  0.00  0.00    +0.000 NA
ATOM     20  O   UNL     1       2.982   4.618  19.789  0.00  0.00    +0.000 OA
ATOM     21  C   UNL     1       4.136   4.171  19.234  0.00  0.00    +0.000 A 
ATOM     22  C   UNL     1       4.594   2.843  19.684  0.00  0.00    +0.000 C 
ENDBRANCH  15  16
ENDBRANCH  14  15
ENDBRANCH   4  14
TORSDOF 5
ENDMDL
MODEL 9
REMARK VINA RESULT:      -6.9      5.014      6.905
REMARK  Name = 
REMARK  8 active torsions:
REMARK  status: ('A' for Active; 'I' for Inactive)
REMARK    1  A    between atoms: C_1  and  O_2
REMARK    2  A    between atoms: O_2  and  C_3
REMARK    3  A    between atoms: C_6  and  C_7
REMARK    4  A    between atoms: C_10  and  S_11
REMARK    5  A    between atoms: S_11  and  C_12
REMARK    6  A    between atoms: C_12  and  C_13
REMARK    7  A    between atoms: C_14  and  C_15
REMARK    8  A    between atoms: C_18  and  C_19
REMARK                            x       y       z     vdW  Elec       q    Type
REMARK                         _______ _______ _______ _____ _____    ______ ____
ROOT
ATOM      1  C   UNL     1       8.484   9.181  18.260  0.00  0.00    +0.000 A 
ATOM      2  N   UNL     1       7.662   9.074  17.233  0.00  0.00    +0.000 NA
ATOM      3  N   UNL     1       7.263   7.755  17.183  0.00  0.00    +0.000 NA
ATOM      4  C   UNL     1       7.855   7.141  18.187  0.00  0.00    +0.000 A 
ATOM      5  O   UNL     1       8.656   7.987  18.915  0.00  0.00    +0.000 OA
ENDROOT
BRANCH   1   9
ATOM      6  C   UNL     1      10.513  12.612  19.847  0.00  0.00    +0.000 A 
ATOM      7  C   UNL     1       9.998  11.626  20.687  0.00  0.00    +0.000 A 
ATOM      8  C   UNL     1       9.347  10.507  20.157  0.00  0.00    +0.000 A 
ATOM      9  C   UNL     1       9.181  10.357  18.773  0.00  0.00    +0.000 A 
ATOM     10  C   UNL     1       9.689  11.363  17.935  0.00  0.00    +0.000 A 
ATOM     11  C   UNL     1      10.346  12.483  18.468  0.00  0.00    +0.000 A 
BRANCH   6  13
ATOM     12  C   UNL     1      10.918  14.946  19.889  0.00  0.00    +0.000 C 
ATOM     13  O   UNL     1      11.106  13.667  20.483  0.00  0.00    +0.000 OA
ENDBRANCH   6  13
ENDBRANCH   1   9
BRANCH   4  14
ATOM     14  S   UNL     1       7.638   5.462  18.585  0.00  0.00    +0.000 S 
BRANCH  14  15
ATOM     15  C   UNL     1       5.931   5.484  19.217  0.00  0.00    +0.000 C 
BRANCH  15  16
ATOM     16  C   UNL     1       5.047   4.595  18.411  0.00  0.00    +0.000 A 
ATOM     17  C   UNL     1       4.663   4.715  17.041  0.00  0.00    +0.000 A 
ATOM     18  C   UNL     1       5.019   5.750  16.043  0.00  0.00    +0.000 C 
ATOM     19  N   UNL     1       3.866   3.708  16.666  0.00  0.00    +0.000 NA
ATOM     20  O   UNL     1       3.722   2.904  17.775  0.00  0.00    +0.000 OA
ATOM     21  C   UNL     1       4.429   3.425  18.810  0.00  0.00    +0.000 A 
ATOM     22  C   UNL     1       4.386   2.660  20.070  0.00  0.00    +0.000 C 
ENDBRANCH  15  16
ENDBRANCH  14  15
ENDBRANCH   4  14
TORSDOF 5
ENDMDL
