MODEL 1
REMARK VINA RESULT:      -7.8      0.000      0.000
REMARK  Name = 
REMARK  7 active torsions:
REMARK  status: ('A' for Active; 'I' for Inactive)
REMARK    1  A    between atoms: N_3  and  C_4
REMARK    2  A    between atoms: C_4  and  C_5
REMARK    3  A    between atoms: C_5  and  C_6
REMARK    4  A    between atoms: C_6  and  C_7
REMARK    5  A    between atoms: N_13  and  C_14
REMARK    6  A    between atoms: C_14  and  C_15
REMARK    7  A    between atoms: C_15  and  C_16
REMARK                            x       y       z     vdW  Elec       q    Type
REMARK                         _______ _______ _______ _____ _____    ______ ____
ROOT
ATOM      1  O   UNL     1       7.537   5.965  18.618  0.00  0.00    +0.000 OA
ATOM      2  C   UNL     1       7.211   6.534  17.580  0.00  0.00    +0.000 C 
ATOM      3  N   UNL     1       6.496   5.946  16.571  0.00  0.00    +0.000 N 
ATOM      4  N   UNL     1       7.523   7.834  17.290  0.00  0.00    +0.000 N 
ATOM      5  H   UNL     1       6.235   6.503  15.773  0.00  0.00    +0.000 HD
ATOM      6  H   UNL     1       7.425   8.129  16.330  0.00  0.00    +0.000 HD
ENDROOT
BRANCH   3   7
ATOM      7  C   UNL     1       6.015   4.580  16.642  0.00  0.00    +0.000 C 
BRANCH   7   8
ATOM      8  C   UNL     1       4.499   4.535  16.820  0.00  0.00    +0.000 C 
BRANCH   8   9
ATOM      9  C   UNL     1       4.061   4.761  18.274  0.00  0.00    +0.000 C 
BRANCH   9  10
ATOM     10  C   UNL     1       2.613   5.281  18.404  0.00  0.00    +0.000 C 
ATOM     11  C   UNL     1       1.568   4.423  17.669  0.00  0.00    +0.000 C 
ATOM     12  C   UNL     1       1.301   3.076  18.338  0.00  0.00    +0.000 C 
ATOM     13  C   UNL     1       0.974   3.214  19.821  0.00  0.00    +0.000 C 
ATOM     14  C   UNL     1       1.980   4.081  20.573  0.00  0.00    +0.000 C 
ATOM     15  C   UNL     1       2.206   5.425  19.881  0.00  0.00    +0.000 C 
ENDBRANCH   9  10
ENDBRANCH   8   9
ENDBRANCH   7   8
ENDBRANCH   3   7
BRANCH   4  16
ATOM     16  C   UNL     1       8.395   8.599  18.165  0.00  0.00    +0.000 C 
BRANCH  16  17
ATOM     17  C   UNL     1       8.409  10.082  17.788  0.00  0.00    +0.000 C 
BRANCH  17  18
ATOM     18  C   UNL     1       9.490  10.858  18.496  0.00  0.00    +0.000 A 
ATOM     19  C   UNL     1      10.504  11.498  17.766  0.00  0.00    +0.000 A 
ATOM     20  C   UNL     1      11.501  12.218  18.424  0.00  0.00    +0.000 A 
ATOM     21  C   UNL     1      11.501  12.302  19.814  0.00  0.00    +0.000 A 
ATOM     22  C   UNL     1      10.505  11.663  20.549  0.00  0.00    +0.000 A 
ATOM     23  C   UNL     1       9.505  10.941  19.893  0.00  0.00    +0.000 A 
ENDBRANCH  17  18
ENDBRANCH  16  17
ENDBRANCH   4  16
TORSDOF 7
ENDMDL
MODEL 2
REMARK VINA RESULT:      -7.8      0.811      1.186
REMARK  Name = 
REMARK  7 active torsions:
REMARK  status: ('A' for Active; 'I' for Inactive)
REMARK    1  A    between atoms: N_3  and  C_4
REMARK    2  A    between atoms: C_4  and  C_5
REMARK    3  A    between atoms: C_5  and  C_6
REMARK    4  A    between atoms: C_6  and  C_7
REMARK    5  A    between atoms: N_13  and  C_14
REMARK    6  A    between atoms: C_14  and  C_15
REMARK    7  A    between atoms: C_15  and  C_16
REMARK                            x       y       z     vdW  Elec       q    Type
REMARK                         _______ _______ _______ _____ _____    ______ ____
ROOT
ATOM      1  O   UNL     1       7.525   6.372  18.661  0.00  0.00    +0.000 OA
ATOM      2  C   UNL     1       7.514   6.846  17.529  0.00  0.00    +0.000 C 
ATOM      3  N   UNL     1       7.197   6.139  16.399  0.00  0.00    +0.000 N 
ATOM      4  N   UNL     1       7.819   8.149  17.243  0.00  0.00    +0.000 N 
ATOM      5  H   UNL     1       7.171   6.623  15.516  0.00  0.00    +0.000 HD
ATOM      6  H   UNL     1       8.016   8.377  16.280  0.00  0.00    +0.000 HD
ENDROOT
BRANCH   3   7
ATOM      7  C   UNL     1       6.806   4.744  16.431  0.00  0.00    +0.000 C 
BRANCH   7   8
ATOM      8  C   UNL     1       5.450   4.534  15.760  0.00  0.00    +0.000 C 
BRANCH   8   9
ATOM      9  C   UNL     1       4.474   3.725  16.627  0.00  0.00    +0.000 C 
BRANCH   9  10
ATOM     10  C   UNL     1       4.057   4.456  17.921  0.00  0.00    +0.000 C 
ATOM     11  C   UNL     1       2.668   5.116  17.852  0.00  0.00    +0.000 C 
ATOM     12  C   UNL     1       1.513   4.118  17.867  0.00  0.00    +0.000 C 
ATOM     13  C   UNL     1       1.609   3.129  19.026  0.00  0.00    +0.000 C 
ATOM     14  C   UNL     1       2.983   2.475  19.136  0.00  0.00    +0.000 C 
ATOM     15  C   UNL     1       4.109   3.509  19.134  0.00  0.00    +0.000 C 
ENDBRANCH   9  10
ENDBRANCH   8   9
ENDBRANCH   7   8
ENDBRANCH   3   7
BRANCH   4  16
ATOM     16  C   UNL     1       8.316   9.038  18.280  0.00  0.00    +0.000 C 
BRANCH  16  17
ATOM     17  C   UNL     1       8.691  10.409  17.713  0.00  0.00    +0.000 C 
BRANCH  17  18
ATOM     18  C   UNL     1       9.772  11.097  18.507  0.00  0.00    +0.000 A 
ATOM     19  C   UNL     1      10.863  11.696  17.859  0.00  0.00    +0.000 A 
ATOM     20  C   UNL     1      11.859  12.335  18.596  0.00  0.00    +0.000 A 
ATOM     21  C   UNL     1      11.781  12.378  19.987  0.00  0.00    +0.000 A 
ATOM     22  C   UNL     1      10.708  11.778  20.641  0.00  0.00    +0.000 A 
ATOM     23  C   UNL     1       9.709  11.137  19.905  0.00  0.00    +0.000 A 
ENDBRANCH  17  18
ENDBRANCH  16  17
ENDBRANCH   4  16
TORSDOF 7
ENDMDL
MODEL 3
REMARK VINA RESULT:      -7.6      0.918      9.599
REMARK  Name = 
REMARK  7 active torsions:
REMARK  status: ('A' for Active; 'I' for Inactive)
REMARK    1  A    between atoms: N_3  and  C_4
REMARK    2  A    between atoms: C_4  and  C_5
REMARK    3  A    between atoms: C_5  and  C_6
REMARK    4  A    between atoms: C_6  and  C_7
REMARK    5  A    between atoms: N_13  and  C_14
REMARK    6  A    between atoms: C_14  and  C_15
REMARK    7  A    between atoms: C_15  and  C_16
REMARK                            x       y       z     vdW  Elec       q    Type
REMARK                         _______ _______ _______ _____ _____    ______ ____
ROOT
ATOM      1  O   UNL     1       6.285   5.969  18.671  0.00  0.00    +0.000 OA
ATOM      2  C   UNL     1       6.251   6.449  17.542  0.00  0.00    +0.000 C 
ATOM      3  N   UNL     1       7.107   7.419  17.091  0.00  0.00    +0.000 N 
ATOM      4  N   UNL     1       5.350   6.081  16.581  0.00  0.00    +0.000 N 
ATOM      5  H   UNL     1       7.034   7.722  16.133  0.00  0.00    +0.000 HD
ATOM      6  H   UNL     1       5.248   6.692  15.785  0.00  0.00    +0.000 HD
ENDROOT
BRANCH   3   7
ATOM      7  C   UNL     1       8.177   7.961  17.904  0.00  0.00    +0.000 C 
BRANCH   7   8
ATOM      8  C   UNL     1       8.054   9.477  18.041  0.00  0.00    +0.000 C 
BRANCH   8   9
ATOM      9  C   UNL     1       9.210  10.101  18.836  0.00  0.00    +0.000 C 
BRANCH   9  10
ATOM     10  C   UNL     1       9.511  11.561  18.435  0.00  0.00    +0.000 C 
ATOM     11  C   UNL     1       9.365  12.574  19.585  0.00  0.00    +0.000 C 
ATOM     12  C   UNL     1      10.474  12.477  20.630  0.00  0.00    +0.000 C 
ATOM     13  C   UNL     1      11.868  12.525  20.011  0.00  0.00    +0.000 C 
ATOM     14  C   UNL     1      12.035  11.549  18.850  0.00  0.00    +0.000 C 
ATOM     15  C   UNL     1      10.916  11.689  17.819  0.00  0.00    +0.000 C 
ENDBRANCH   9  10
ENDBRANCH   8   9
ENDBRANCH   7   8
ENDBRANCH   3   7
BRANCH   4  16
ATOM     16  C   UNL     1       4.266   5.165  16.894  0.00  0.00    +0.000 C 
BRANCH  16  17
ATOM     17  C   UNL     1       3.190   5.840  17.748  0.00  0.00    +0.000 C 
BRANCH  17  18
ATOM     18  C   UNL     1       2.345   4.854  18.514  0.00  0.00    +0.000 A 
ATOM     19  C   UNL     1       1.863   3.692  17.892  0.00  0.00    +0.000 A 
ATOM     20  C   UNL     1       1.084   2.780  18.604  0.00  0.00    +0.000 A 
ATOM     21  C   UNL     1       0.774   3.020  19.941  0.00  0.00    +0.000 A 
ATOM     22  C   UNL     1       1.239   4.175  20.566  0.00  0.00    +0.000 A 
ATOM     23  C   UNL     1       2.018   5.090  19.855  0.00  0.00    +0.000 A 
ENDBRANCH  17  18
ENDBRANCH  16  17
ENDBRANCH   4  16
TORSDOF 7
ENDMDL
MODEL 4
REMARK VINA RESULT:      -7.5      1.595      2.102
REMARK  Name = 
REMARK  7 active torsions:
REMARK  status: ('A' for Active; 'I' for Inactive)
REMARK    1  A    between atoms: N_3  and  C_4
REMARK    2  A    between atoms: C_4  and  C_5
REMARK    3  A    between atoms: C_5  and  C_6
REMARK    4  A    between atoms: C_6  and  C_7
REMARK    5  A    between atoms: N_13  and  C_14
REMARK    6  A    between atoms: C_14  and  C_15
REMARK    7  A    between atoms: C_15  and  C_16
REMARK                            x       y       z     vdW  Elec       q    Type
REMARK                         _______ _______ _______ _____ _____    ______ ____
ROOT
ATOM      1  O   UNL     1       6.725   7.467  16.970  0.00  0.00    +0.000 OA
ATOM      2  C   UNL     1       7.465   7.175  17.904  0.00  0.00    +0.000 C 
ATOM      3  N   UNL     1       7.472   5.957  18.531  0.00  0.00    +0.000 N 
ATOM      4  N   UNL     1       8.384   8.030  18.448  0.00  0.00    +0.000 N 
ATOM      5  H   UNL     1       8.146   5.791  19.261  0.00  0.00    +0.000 HD
ATOM      6  H   UNL     1       8.765   7.786  19.350  0.00  0.00    +0.000 HD
ENDROOT
BRANCH   3   7
ATOM      7  C   UNL     1       6.613   4.861  18.127  0.00  0.00    +0.000 C 
BRANCH   7   8
ATOM      8  C   UNL     1       5.243   4.956  18.795  0.00  0.00    +0.000 C 
BRANCH   8   9
ATOM      9  C   UNL     1       4.665   3.583  19.168  0.00  0.00    +0.000 C 
BRANCH   9  10
ATOM     10  C   UNL     1       3.900   2.906  18.010  0.00  0.00    +0.000 C 
ATOM     11  C   UNL     1       3.126   1.641  18.421  0.00  0.00    +0.000 C 
ATOM     12  C   UNL     1       1.888   1.927  19.267  0.00  0.00    +0.000 C 
ATOM     13  C   UNL     1       0.971   2.966  18.629  0.00  0.00    +0.000 C 
ATOM     14  C   UNL     1       1.714   4.224  18.188  0.00  0.00    +0.000 C 
ATOM     15  C   UNL     1       2.935   3.895  17.331  0.00  0.00    +0.000 C 
ENDBRANCH   9  10
ENDBRANCH   8   9
ENDBRANCH   7   8
ENDBRANCH   3   7
BRANCH   4  16
ATOM     16  C   UNL     1       8.447   9.418  18.022  0.00  0.00    +0.000 C 
BRANCH  16  17
ATOM     17  C   UNL     1       9.156  10.292  19.059  0.00  0.00    +0.000 C 
BRANCH  17  18
ATOM     18  C   UNL     1       9.709  11.566  18.472  0.00  0.00    +0.000 A 
ATOM     19  C   UNL     1      10.968  11.579  17.852  0.00  0.00    +0.000 A 
ATOM     20  C   UNL     1      11.475  12.759  17.307  0.00  0.00    +0.000 A 
ATOM     21  C   UNL     1      10.736  13.937  17.380  0.00  0.00    +0.000 A 
ATOM     22  C   UNL     1       9.489  13.938  18.002  0.00  0.00    +0.000 A 
ATOM     23  C   UNL     1       8.979  12.758  18.549  0.00  0.00    +0.000 A 
ENDBRANCH  17  18
ENDBRANCH  16  17
ENDBRANCH   4  16
TORSDOF 7
ENDMDL
MODEL 5
REMARK VINA RESULT:      -7.5      1.226      1.596
REMARK  Name = 
REMARK  7 active torsions:
REMARK  status: ('A' for Active; 'I' for Inactive)
REMARK    1  A    between atoms: N_3  and  C_4
REMARK    2  A    between atoms: C_4  and  C_5
REMARK    3  A    between atoms: C_5  and  C_6
REMARK    4  A    between atoms: C_6  and  C_7
REMARK    5  A    between atoms: N_13  and  C_14
REMARK    6  A    between atoms: C_14  and  C_15
REMARK    7  A    between atoms: C_15  and  C_16
REMARK                            x       y       z     vdW  Elec       q    Type
REMARK                         _______ _______ _______ _____ _____    ______ ____
ROOT
ATOM      1  O   UNL     1       6.463   7.404  17.240  0.00  0.00    +0.000 OA
ATOM      2  C   UNL     1       7.370   7.020  17.972  0.00  0.00    +0.000 C 
ATOM      3  N   UNL     1       7.485   5.741  18.452  0.00  0.00    +0.000 N 
ATOM      4  N   UNL     1       8.390   7.819  18.411  0.00  0.00    +0.000 N 
ATOM      5  H   UNL     1       8.288   5.504  19.011  0.00  0.00    +0.000 HD
ATOM      6  H   UNL     1       8.939   7.483  19.188  0.00  0.00    +0.000 HD
ENDROOT
BRANCH   3   7
ATOM      7  C   UNL     1       6.549   4.689  18.111  0.00  0.00    +0.000 C 
BRANCH   7   8
ATOM      8  C   UNL     1       5.212   4.886  18.823  0.00  0.00    +0.000 C 
BRANCH   8   9
ATOM      9  C   UNL     1       4.081   4.046  18.211  0.00  0.00    +0.000 C 
BRANCH   9  10
ATOM     10  C   UNL     1       2.741   4.806  18.111  0.00  0.00    +0.000 C 
ATOM     11  C   UNL     1       1.531   3.910  17.788  0.00  0.00    +0.000 C 
ATOM     12  C   UNL     1       1.106   3.013  18.948  0.00  0.00    +0.000 C 
ATOM     13  C   UNL     1       0.900   3.791  20.244  0.00  0.00    +0.000 C 
ATOM     14  C   UNL     1       2.072   4.707  20.579  0.00  0.00    +0.000 C 
ATOM     15  C   UNL     1       2.456   5.600  19.399  0.00  0.00    +0.000 C 
ENDBRANCH   9  10
ENDBRANCH   8   9
ENDBRANCH   7   8
ENDBRANCH   3   7
BRANCH   4  16
ATOM     16  C   UNL     1       8.386   9.245  18.132  0.00  0.00    +0.000 C 
BRANCH  16  17
ATOM     17  C   UNL     1       9.248  10.017  19.133  0.00  0.00    +0.000 C 
BRANCH  17  18
ATOM     18  C   UNL     1       9.890  11.241  18.533  0.00  0.00    +0.000 A 
ATOM     19  C   UNL     1      11.284  11.403  18.562  0.00  0.00    +0.000 A 
ATOM     20  C   UNL     1      11.876  12.536  18.003  0.00  0.00    +0.000 A 
ATOM     21  C   UNL     1      11.084  13.520  17.415  0.00  0.00    +0.000 A 
ATOM     22  C   UNL     1       9.699  13.375  17.390  0.00  0.00    +0.000 A 
ATOM     23  C   UNL     1       9.104  12.242  17.949  0.00  0.00    +0.000 A 
ENDBRANCH  17  18
ENDBRANCH  16  17
ENDBRANCH   4  16
TORSDOF 7
ENDMDL
MODEL 6
REMARK VINA RESULT:      -7.4      0.793      1.311
REMARK  Name = 
REMARK  7 active torsions:
REMARK  status: ('A' for Active; 'I' for Inactive)
REMARK    1  A    between atoms: N_3  and  C_4
REMARK    2  A    between atoms: C_4  and  C_5
REMARK    3  A    between atoms: C_5  and  C_6
REMARK    4  A    between atoms: C_6  and  C_7
REMARK    5  A    between atoms: N_13  and  C_14
REMARK    6  A    between atoms: C_14  and  C_15
REMARK    7  A    between atoms: C_15  and  C_16
REMARK                            x       y       z     vdW  Elec       q    Type
REMARK                         _______ _______ _______ _____ _____    ______ ____
ROOT
ATOM      1  O   UNL     1       7.788   6.309  16.043  0.00  0.00    +0.000 OA
ATOM      2  C   UNL     1       7.109   6.547  17.037  0.00  0.00    +0.000 C 
ATOM      3  N   UNL     1       6.028   5.801  17.429  0.00  0.00    +0.000 N 
ATOM      4  N   UNL     1       7.340   7.592  17.890  0.00  0.00    +0.000 N 
ATOM      5  H   UNL     1       5.557   6.044  18.285  0.00  0.00    +0.000 HD
ATOM      6  H   UNL     1       6.597   7.842  18.526  0.00  0.00    +0.000 HD
ENDROOT
BRANCH   3   7
ATOM      7  C   UNL     1       5.590   4.619  16.715  0.00  0.00    +0.000 C 
BRANCH   7   8
ATOM      8  C   UNL     1       4.152   4.255  17.076  0.00  0.00    +0.000 C 
BRANCH   8   9
ATOM      9  C   UNL     1       3.793   4.607  18.527  0.00  0.00    +0.000 C 
BRANCH   9  10
ATOM     10  C   UNL     1       2.313   5.005  18.713  0.00  0.00    +0.000 C 
ATOM     11  C   UNL     1       1.310   3.951  18.209  0.00  0.00    +0.000 C 
ATOM     12  C   UNL     1       1.238   2.704  19.088  0.00  0.00    +0.000 C 
ATOM     13  C   UNL     1       1.013   3.038  20.559  0.00  0.00    +0.000 C 
ATOM     14  C   UNL     1       1.977   4.098  21.082  0.00  0.00    +0.000 C 
ATOM     15  C   UNL     1       2.007   5.335  20.185  0.00  0.00    +0.000 C 
ENDBRANCH   9  10
ENDBRANCH   8   9
ENDBRANCH   7   8
ENDBRANCH   3   7
BRANCH   4  16
ATOM     16  C   UNL     1       8.353   8.587  17.584  0.00  0.00    +0.000 C 
BRANCH  16  17
ATOM     17  C   UNL     1       8.025   9.939  18.221  0.00  0.00    +0.000 C 
BRANCH  17  18
ATOM     18  C   UNL     1       9.245  10.656  18.738  0.00  0.00    +0.000 A 
ATOM     19  C   UNL     1       9.388  10.927  20.108  0.00  0.00    +0.000 A 
ATOM     20  C   UNL     1      10.520  11.587  20.584  0.00  0.00    +0.000 A 
ATOM     21  C   UNL     1      11.519  11.989  19.699  0.00  0.00    +0.000 A 
ATOM     22  C   UNL     1      11.384  11.734  18.337  0.00  0.00    +0.000 A 
ATOM     23  C   UNL     1      10.250  11.073  17.857  0.00  0.00    +0.000 A 
ENDBRANCH  17  18
ENDBRANCH  16  17
ENDBRANCH   4  16
TORSDOF 7
ENDMDL
MODEL 7
REMARK VINA RESULT:      -7.4      1.279      1.684
REMARK  Name = 
REMARK  7 active torsions:
REMARK  status: ('A' for Active; 'I' for Inactive)
REMARK    1  A    between atoms: N_3  and  C_4
REMARK    2  A    between atoms: C_4  and  C_5
REMARK    3  A    between atoms: C_5  and  C_6
REMARK    4  A    between atoms: C_6  and  C_7
REMARK    5  A    between atoms: N_13  and  C_14
REMARK    6  A    between atoms: C_14  and  C_15
REMARK    7  A    between atoms: C_15  and  C_16
REMARK                            x       y       z     vdW  Elec       q    Type
REMARK                         _______ _______ _______ _____ _____    ______ ____
ROOT
ATOM      1  O   UNL     1       6.667   7.406  17.089  0.00  0.00    +0.000 OA
ATOM      2  C   UNL     1       7.375   7.093  18.041  0.00  0.00    +0.000 C 
ATOM      3  N   UNL     1       7.273   5.909  18.723  0.00  0.00    +0.000 N 
ATOM      4  N   UNL     1       8.365   7.889  18.551  0.00  0.00    +0.000 N 
ATOM      5  H   UNL     1       7.928   5.719  19.464  0.00  0.00    +0.000 HD
ATOM      6  H   UNL     1       8.720   7.655  19.466  0.00  0.00    +0.000 HD
ENDROOT
BRANCH   3   7
ATOM      7  C   UNL     1       6.323   4.876  18.363  0.00  0.00    +0.000 C 
BRANCH   7   8
ATOM      8  C   UNL     1       4.905   5.258  18.780  0.00  0.00    +0.000 C 
BRANCH   8   9
ATOM      9  C   UNL     1       3.831   4.386  18.114  0.00  0.00    +0.000 C 
BRANCH   9  10
ATOM     10  C   UNL     1       2.391   4.869  18.393  0.00  0.00    +0.000 C 
ATOM     11  C   UNL     1       1.302   3.844  18.030  0.00  0.00    +0.000 C 
ATOM     12  C   UNL     1       1.243   2.649  18.980  0.00  0.00    +0.000 C 
ATOM     13  C   UNL     1       1.155   3.070  20.444  0.00  0.00    +0.000 C 
ATOM     14  C   UNL     1       2.208   4.105  20.828  0.00  0.00    +0.000 C 
ATOM     15  C   UNL     1       2.223   5.290  19.864  0.00  0.00    +0.000 C 
ENDBRANCH   9  10
ENDBRANCH   8   9
ENDBRANCH   7   8
ENDBRANCH   3   7
BRANCH   4  16
ATOM     16  C   UNL     1       8.550   9.245  18.063  0.00  0.00    +0.000 C 
BRANCH  16  17
ATOM     17  C   UNL     1       9.242  10.127  19.105  0.00  0.00    +0.000 C 
BRANCH  17  18
ATOM     18  C   UNL     1       9.855  11.368  18.508  0.00  0.00    +0.000 A 
ATOM     19  C   UNL     1       9.046  12.437  18.095  0.00  0.00    +0.000 A 
ATOM     20  C   UNL     1       9.617  13.585  17.546  0.00  0.00    +0.000 A 
ATOM     21  C   UNL     1      11.000  13.677  17.399  0.00  0.00    +0.000 A 
ATOM     22  C   UNL     1      11.812  12.618  17.797  0.00  0.00    +0.000 A 
ATOM     23  C   UNL     1      11.243  11.467  18.346  0.00  0.00    +0.000 A 
ENDBRANCH  17  18
ENDBRANCH  16  17
ENDBRANCH   4  16
TORSDOF 7
ENDMDL
MODEL 8
REMARK VINA RESULT:      -7.4      0.991      1.966
REMARK  Name = 
REMARK  7 active torsions:
REMARK  status: ('A' for Active; 'I' for Inactive)
REMARK    1  A    between atoms: N_3  and  C_4
REMARK    2  A    between atoms: C_4  and  C_5
REMARK    3  A    between atoms: C_5  and  C_6
REMARK    4  A    between atoms: C_6  and  C_7
REMARK    5  A    between atoms: N_13  and  C_14
REMARK    6  A    between atoms: C_14  and  C_15
REMARK    7  A    between atoms: C_15  and  C_16
REMARK                            x       y       z     vdW  Elec       q    Type
REMARK                         _______ _______ _______ _____ _____    ______ ____
ROOT
ATOM      1  O   UNL     1       7.899   5.911  19.068  0.00  0.00    +0.000 OA
ATOM      2  C   UNL     1       7.483   6.432  18.038  0.00  0.00    +0.000 C 
ATOM      3  N   UNL     1       6.752   5.775  17.083  0.00  0.00    +0.000 N 
ATOM      4  N   UNL     1       7.696   7.741  17.701  0.00  0.00    +0.000 N 
ATOM      5  H   UNL     1       6.413   6.294  16.289  0.00  0.00    +0.000 HD
ATOM      6  H   UNL     1       7.529   8.004  16.742  0.00  0.00    +0.000 HD
ENDROOT
BRANCH   3   7
ATOM      7  C   UNL     1       6.362   4.385  17.211  0.00  0.00    +0.000 C 
BRANCH   7   8
ATOM      8  C   UNL     1       4.861   4.252  17.458  0.00  0.00    +0.000 C 
BRANCH   8   9
ATOM      9  C   UNL     1       4.505   4.176  18.950  0.00  0.00    +0.000 C 
BRANCH   9  10
ATOM     10  C   UNL     1       4.074   2.766  19.405  0.00  0.00    +0.000 C 
ATOM     11  C   UNL     1       3.117   2.758  20.611  0.00  0.00    +0.000 C 
ATOM     12  C   UNL     1       1.707   3.243  20.278  0.00  0.00    +0.000 C 
ATOM     13  C   UNL     1       1.107   2.515  19.078  0.00  0.00    +0.000 C 
ATOM     14  C   UNL     1       2.043   2.485  17.874  0.00  0.00    +0.000 C 
ATOM     15  C   UNL     1       3.436   1.979  18.246  0.00  0.00    +0.000 C 
ENDBRANCH   9  10
ENDBRANCH   8   9
ENDBRANCH   7   8
ENDBRANCH   3   7
BRANCH   4  16
ATOM     16  C   UNL     1       8.565   8.580  18.508  0.00  0.00    +0.000 C 
BRANCH  16  17
ATOM     17  C   UNL     1       8.505  10.043  18.064  0.00  0.00    +0.000 C 
BRANCH  17  18
ATOM     18  C   UNL     1       9.591  10.888  18.679  0.00  0.00    +0.000 A 
ATOM     19  C   UNL     1       9.664  11.055  20.070  0.00  0.00    +0.000 A 
ATOM     20  C   UNL     1      10.672  11.835  20.636  0.00  0.00    +0.000 A 
ATOM     21  C   UNL     1      11.613  12.461  19.822  0.00  0.00    +0.000 A 
ATOM     22  C   UNL     1      11.544  12.311  18.439  0.00  0.00    +0.000 A 
ATOM     23  C   UNL     1      10.536  11.531  17.869  0.00  0.00    +0.000 A 
ENDBRANCH  17  18
ENDBRANCH  16  17
ENDBRANCH   4  16
TORSDOF 7
ENDMDL
MODEL 9
REMARK VINA RESULT:      -7.3      1.054      9.660
REMARK  Name = 
REMARK  7 active torsions:
REMARK  status: ('A' for Active; 'I' for Inactive)
REMARK    1  A    between atoms: N_3  and  C_4
REMARK    2  A    between atoms: C_4  and  C_5
REMARK    3  A    between atoms: C_5  and  C_6
REMARK    4  A    between atoms: C_6  and  C_7
REMARK    5  A    between atoms: N_13  and  C_14
REMARK    6  A    between atoms: C_14  and  C_15
REMARK    7  A    between atoms: C_15  and  C_16
REMARK                            x       y       z     vdW  Elec       q    Type
REMARK                         _______ _______ _______ _____ _____    ______ ____
ROOT
ATOM      1  O   UNL     1       6.923   6.000  18.482  0.00  0.00    +0.000 OA
ATOM      2  C   UNL     1       6.545   6.819  17.651  0.00  0.00    +0.000 C 
ATOM      3  N   UNL     1       7.183   8.003  17.389  0.00  0.00    +0.000 N 
ATOM      4  N   UNL     1       5.430   6.662  16.874  0.00  0.00    +0.000 N 
ATOM      5  H   UNL     1       6.825   8.595  16.657  0.00  0.00    +0.000 HD
ATOM      6  H   UNL     1       5.073   7.481  16.406  0.00  0.00    +0.000 HD
ENDROOT
BRANCH   3   7
ATOM      7  C   UNL     1       8.408   8.398  18.056  0.00  0.00    +0.000 C 
BRANCH   7   8
ATOM      8  C   UNL     1       8.542   9.919  18.111  0.00  0.00    +0.000 C 
BRANCH   8   9
ATOM      9  C   UNL     1       9.315  10.406  19.345  0.00  0.00    +0.000 C 
BRANCH   9  10
ATOM     10  C   UNL     1      10.642  11.114  18.995  0.00  0.00    +0.000 C 
ATOM     11  C   UNL     1      10.558  12.040  17.769  0.00  0.00    +0.000 C 
ATOM     12  C   UNL     1       9.769  13.322  18.022  0.00  0.00    +0.000 C 
ATOM     13  C   UNL     1      10.252  14.071  19.261  0.00  0.00    +0.000 C 
ATOM     14  C   UNL     1      10.370  13.173  20.489  0.00  0.00    +0.000 C 
ATOM     15  C   UNL     1      11.179  11.910  20.198  0.00  0.00    +0.000 C 
ENDBRANCH   9  10
ENDBRANCH   8   9
ENDBRANCH   7   8
ENDBRANCH   3   7
BRANCH   4  16
ATOM     16  C   UNL     1       4.531   5.540  17.087  0.00  0.00    +0.000 C 
BRANCH  16  17
ATOM     17  C   UNL     1       3.279   5.962  17.859  0.00  0.00    +0.000 C 
BRANCH  17  18
ATOM     18  C   UNL     1       2.494   4.790  18.390  0.00  0.00    +0.000 A 
ATOM     19  C   UNL     1       2.454   3.579  17.683  0.00  0.00    +0.000 A 
ATOM     20  C   UNL     1       1.729   2.495  18.179  0.00  0.00    +0.000 A 
ATOM     21  C   UNL     1       1.035   2.609  19.382  0.00  0.00    +0.000 A 
ATOM     22  C   UNL     1       1.060   3.810  20.087  0.00  0.00    +0.000 A 
ATOM     23  C   UNL     1       1.784   4.897  19.592  0.00  0.00    +0.000 A 
ENDBRANCH  17  18
ENDBRANCH  16  17
ENDBRANCH   4  16
TORSDOF 7
ENDMDL
