MODEL 1
REMARK VINA RESULT:      -8.0      0.000      0.000
REMARK  Name = 
REMARK  6 active torsions:
REMARK  status: ('A' for Active; 'I' for Inactive)
REMARK    1  A    between atoms: C_1  and  C_2
REMARK    2  A    between atoms: C_5  and  O_6
REMARK    3  A    between atoms: O_6  and  C_7
REMARK    4  A    between atoms: C_7  and  C_8
REMARK    5  A    between atoms: C_13  and  C_15
REMARK    6  A    between atoms: C_15  and  N_16
REMARK                            x       y       z     vdW  Elec       q    Type
REMARK                         _______ _______ _______ _____ _____    ______ ____
ROOT
ATOM      1  C   UNL     1       1.216   4.705  19.680  0.00  0.00    +0.000 C 
ATOM      2  C   UNL     1       0.598   3.520  20.443  0.00  0.00    +0.000 C 
ATOM      3  C   UNL     1       1.651   2.737  21.228  0.00  0.00    +0.000 C 
ATOM      4  C   UNL     1       2.851   2.352  20.360  0.00  0.00    +0.000 C 
ATOM      5  N   UNL     1       3.370   3.483  19.581  0.00  0.00    +0.000 N 
ATOM      6  C   UNL     1       4.743   3.526  19.333  0.00  0.00    +0.000 C 
ATOM      7  O   UNL     1       5.505   2.666  19.793  0.00  0.00    +0.000 OA
ATOM      8  C   UNL     1       2.365   4.199  18.792  0.00  0.00    +0.000 C 
ENDROOT
BRANCH   1   9
ATOM      9  C   UNL     1       1.714   5.815  20.625  0.00  0.00    +0.000 C 
BRANCH   9  10
ATOM     10  O   UNL     1       2.540   6.725  19.891  0.00  0.00    +0.000 OA
BRANCH  10  15
ATOM     11  C   UNL     1       0.011  11.686  18.757  0.00  0.00    +0.000 C 
ATOM     12  C   UNL     1       0.679  10.373  19.041  0.00  0.00    +0.000 A 
ATOM     13  C   UNL     1       0.566   9.755  20.290  0.00  0.00    +0.000 A 
ATOM     14  C   UNL     1       1.205   8.535  20.534  0.00  0.00    +0.000 A 
ATOM     15  C   UNL     1       1.948   7.909  19.534  0.00  0.00    +0.000 A 
ATOM     16  C   UNL     1       2.077   8.530  18.292  0.00  0.00    +0.000 A 
ATOM     17  C   UNL     1       1.444   9.753  18.047  0.00  0.00    +0.000 A 
ENDBRANCH  10  15
ENDBRANCH   9  10
ENDBRANCH   1   9
BRANCH   6  18
ATOM     18  C   UNL     1       5.334   4.719  18.552  0.00  0.00    +0.000 C 
BRANCH  18  19
ATOM     19  N   UNL     1       6.788   4.567  18.316  0.00  0.00    +0.000 NA
ATOM     20  C   UNL     1       7.546   5.794  18.684  0.00  0.00    +0.000 C 
ATOM     21  C   UNL     1       7.310   6.986  17.737  0.00  0.00    +0.000 C 
ATOM     22  O   UNL     1       7.630   6.639  16.383  0.00  0.00    +0.000 OA
ATOM     23  C   UNL     1       6.871   5.505  15.953  0.00  0.00    +0.000 C 
ATOM     24  C   UNL     1       7.074   4.296  16.886  0.00  0.00    +0.000 C 
ENDBRANCH  18  19
ENDBRANCH   6  18
TORSDOF 5
ENDMDL
MODEL 2
REMARK VINA RESULT:      -7.7      0.818      1.326
REMARK  Name = 
REMARK  6 active torsions:
REMARK  status: ('A' for Active; 'I' for Inactive)
REMARK    1  A    between atoms: C_1  and  C_2
REMARK    2  A    between atoms: C_5  and  O_6
REMARK    3  A    between atoms: O_6  and  C_7
REMARK    4  A    between atoms: C_7  and  C_8
REMARK    5  A    between atoms: C_13  and  C_15
REMARK    6  A    between atoms: C_15  and  N_16
REMARK                            x       y       z     vdW  Elec       q    Type
REMARK                         _______ _______ _______ _____ _____    ______ ____
ROOT
ATOM      1  C   UNL     1       1.613   4.682  18.211  0.00  0.00    +0.000 C 
ATOM      2  C   UNL     1       0.873   3.336  18.299  0.00  0.00    +0.000 C 
ATOM      3  C   UNL     1       1.552   2.376  19.277  0.00  0.00    +0.000 C 
ATOM      4  C   UNL     1       3.051   2.238  19.005  0.00  0.00    +0.000 C 
ATOM      5  N   UNL     1       3.717   3.537  18.846  0.00  0.00    +0.000 N 
ATOM      6  C   UNL     1       5.038   3.648  19.283  0.00  0.00    +0.000 C 
ATOM      7  O   UNL     1       5.615   2.699  19.830  0.00  0.00    +0.000 OA
ATOM      8  C   UNL     1       3.092   4.433  17.871  0.00  0.00    +0.000 C 
ENDROOT
BRANCH   1   9
ATOM      9  C   UNL     1       1.491   5.504  19.508  0.00  0.00    +0.000 C 
BRANCH   9  10
ATOM     10  O   UNL     1       2.475   6.543  19.504  0.00  0.00    +0.000 OA
BRANCH  10  15
ATOM     11  C   UNL     1       0.512  11.832  18.826  0.00  0.00    +0.000 C 
ATOM     12  C   UNL     1       1.031  10.439  19.021  0.00  0.00    +0.000 A 
ATOM     13  C   UNL     1       1.696   9.761  17.995  0.00  0.00    +0.000 A 
ATOM     14  C   UNL     1       2.162   8.458  18.197  0.00  0.00    +0.000 A 
ATOM     15  C   UNL     1       1.988   7.823  19.427  0.00  0.00    +0.000 A 
ATOM     16  C   UNL     1       1.311   8.489  20.447  0.00  0.00    +0.000 A 
ATOM     17  C   UNL     1       0.837   9.790  20.246  0.00  0.00    +0.000 A 
ENDBRANCH  10  15
ENDBRANCH   9  10
ENDBRANCH   1   9
BRANCH   6  18
ATOM     18  C   UNL     1       5.761   5.007  19.169  0.00  0.00    +0.000 C 
BRANCH  18  19
ATOM     19  N   UNL     1       7.165   4.857  18.721  0.00  0.00    +0.000 NA
ATOM     20  C   UNL     1       7.931   6.127  18.845  0.00  0.00    +0.000 C 
ATOM     21  C   UNL     1       7.511   7.215  17.839  0.00  0.00    +0.000 C 
ATOM     22  O   UNL     1       7.626   6.742  16.491  0.00  0.00    +0.000 OA
ATOM     23  C   UNL     1       6.846   5.557  16.296  0.00  0.00    +0.000 C 
ATOM     24  C   UNL     1       7.232   4.451  17.296  0.00  0.00    +0.000 C 
ENDBRANCH  18  19
ENDBRANCH   6  18
TORSDOF 5
ENDMDL
MODEL 3
REMARK VINA RESULT:      -7.6      1.245      1.803
REMARK  Name = 
REMARK  6 active torsions:
REMARK  status: ('A' for Active; 'I' for Inactive)
REMARK    1  A    between atoms: C_1  and  C_2
REMARK    2  A    between atoms: C_5  and  O_6
REMARK    3  A    between atoms: O_6  and  C_7
REMARK    4  A    between atoms: C_7  and  C_8
REMARK    5  A    between atoms: C_13  and  C_15
REMARK    6  A    between atoms: C_15  and  N_16
REMARK                            x       y       z     vdW  Elec       q    Type
REMARK                         _______ _______ _______ _____ _____    ______ ____
ROOT
ATOM      1  C   UNL     1       1.425   4.922  19.465  0.00  0.00    +0.000 C 
ATOM      2  C   UNL     1       0.667   3.971  20.408  0.00  0.00    +0.000 C 
ATOM      3  C   UNL     1       1.475   2.710  20.714  0.00  0.00    +0.000 C 
ATOM      4  C   UNL     1       1.994   2.033  19.445  0.00  0.00    +0.000 C 
ATOM      5  N   UNL     1       2.641   2.978  18.526  0.00  0.00    +0.000 N 
ATOM      6  C   UNL     1       3.709   2.510  17.758  0.00  0.00    +0.000 C 
ATOM      7  O   UNL     1       4.128   1.352  17.880  0.00  0.00    +0.000 OA
ATOM      8  C   UNL     1       1.842   4.160  18.196  0.00  0.00    +0.000 C 
ENDROOT
BRANCH   1   9
ATOM      9  C   UNL     1       2.655   5.559  20.139  0.00  0.00    +0.000 C 
BRANCH   9  10
ATOM     10  O   UNL     1       3.085   6.686  19.369  0.00  0.00    +0.000 OA
BRANCH  10  15
ATOM     11  C   UNL     1      -0.468  11.098  18.922  0.00  0.00    +0.000 C 
ATOM     12  C   UNL     1       0.473   9.936  19.056  0.00  0.00    +0.000 A 
ATOM     13  C   UNL     1       1.154   9.422  17.948  0.00  0.00    +0.000 A 
ATOM     14  C   UNL     1       2.019   8.333  18.096  0.00  0.00    +0.000 A 
ATOM     15  C   UNL     1       2.228   7.755  19.348  0.00  0.00    +0.000 A 
ATOM     16  C   UNL     1       1.537   8.254  20.451  0.00  0.00    +0.000 A 
ATOM     17  C   UNL     1       0.667   9.340  20.306  0.00  0.00    +0.000 A 
ENDBRANCH  10  15
ENDBRANCH   9  10
ENDBRANCH   1   9
BRANCH   6  18
ATOM     18  C   UNL     1       4.442   3.482  16.810  0.00  0.00    +0.000 C 
BRANCH  18  19
ATOM     19  N   UNL     1       4.834   4.738  17.490  0.00  0.00    +0.000 NA
ATOM     20  C   UNL     1       5.003   5.865  16.532  0.00  0.00    +0.000 C 
ATOM     21  C   UNL     1       6.236   5.734  15.619  0.00  0.00    +0.000 C 
ATOM     22  O   UNL     1       7.437   5.607  16.391  0.00  0.00    +0.000 OA
ATOM     23  C   UNL     1       7.357   4.489  17.281  0.00  0.00    +0.000 C 
ATOM     24  C   UNL     1       6.126   4.581  18.202  0.00  0.00    +0.000 C 
ENDBRANCH  18  19
ENDBRANCH   6  18
TORSDOF 5
ENDMDL
MODEL 4
REMARK VINA RESULT:      -7.5      1.289      1.726
REMARK  Name = 
REMARK  6 active torsions:
REMARK  status: ('A' for Active; 'I' for Inactive)
REMARK    1  A    between atoms: C_1  and  C_2
REMARK    2  A    between atoms: C_5  and  O_6
REMARK    3  A    between atoms: O_6  and  C_7
REMARK    4  A    between atoms: C_7  and  C_8
REMARK    5  A    between atoms: C_13  and  C_15
REMARK    6  A    between atoms: C_15  and  N_16
REMARK                            x       y       z     vdW  Elec       q    Type
REMARK                         _______ _______ _______ _____ _____    ______ ____
ROOT
ATOM      1  C   UNL     1       2.016   5.480  17.869  0.00  0.00    +0.000 C 
ATOM      2  C   UNL     1       1.161   4.217  17.664  0.00  0.00    +0.000 C 
ATOM      3  C   UNL     1       1.618   3.069  18.563  0.00  0.00    +0.000 C 
ATOM      4  C   UNL     1       3.123   2.816  18.458  0.00  0.00    +0.000 C 
ATOM      5  N   UNL     1       3.911   4.049  18.576  0.00  0.00    +0.000 N 
ATOM      6  C   UNL     1       5.166   3.964  19.183  0.00  0.00    +0.000 C 
ATOM      7  O   UNL     1       5.582   2.895  19.648  0.00  0.00    +0.000 OA
ATOM      8  C   UNL     1       3.501   5.130  17.677  0.00  0.00    +0.000 C 
ENDROOT
BRANCH   1   9
ATOM      9  C   UNL     1       1.789   6.125  19.249  0.00  0.00    +0.000 C 
BRANCH   9  10
ATOM     10  O   UNL     1       2.274   7.471  19.228  0.00  0.00    +0.000 OA
BRANCH  10  15
ATOM     11  C   UNL     1      -0.794  11.113  22.330  0.00  0.00    +0.000 C 
ATOM     12  C   UNL     1       0.009  10.157  21.498  0.00  0.00    +0.000 A 
ATOM     13  C   UNL     1       0.545   8.988  22.047  0.00  0.00    +0.000 A 
ATOM     14  C   UNL     1       1.298   8.116  21.254  0.00  0.00    +0.000 A 
ATOM     15  C   UNL     1       1.510   8.389  19.902  0.00  0.00    +0.000 A 
ATOM     16  C   UNL     1       0.992   9.561  19.355  0.00  0.00    +0.000 A 
ATOM     17  C   UNL     1       0.244  10.439  20.147  0.00  0.00    +0.000 A 
ENDBRANCH  10  15
ENDBRANCH   9  10
ENDBRANCH   1   9
BRANCH   6  18
ATOM     18  C   UNL     1       6.008   5.244  19.362  0.00  0.00    +0.000 C 
BRANCH  18  19
ATOM     19  N   UNL     1       7.383   5.087  18.832  0.00  0.00    +0.000 NA
ATOM     20  C   UNL     1       8.118   6.381  18.789  0.00  0.00    +0.000 C 
ATOM     21  C   UNL     1       7.599   7.363  17.721  0.00  0.00    +0.000 C 
ATOM     22  O   UNL     1       7.638   6.771  16.416  0.00  0.00    +0.000 OA
ATOM     23  C   UNL     1       6.882   5.556  16.382  0.00  0.00    +0.000 C 
ATOM     24  C   UNL     1       7.366   4.554  17.448  0.00  0.00    +0.000 C 
ENDBRANCH  18  19
ENDBRANCH   6  18
TORSDOF 5
ENDMDL
MODEL 5
REMARK VINA RESULT:      -7.5      1.346      2.018
REMARK  Name = 
REMARK  6 active torsions:
REMARK  status: ('A' for Active; 'I' for Inactive)
REMARK    1  A    between atoms: C_1  and  C_2
REMARK    2  A    between atoms: C_5  and  O_6
REMARK    3  A    between atoms: O_6  and  C_7
REMARK    4  A    between atoms: C_7  and  C_8
REMARK    5  A    between atoms: C_13  and  C_15
REMARK    6  A    between atoms: C_15  and  N_16
REMARK                            x       y       z     vdW  Elec       q    Type
REMARK                         _______ _______ _______ _____ _____    ______ ____
ROOT
ATOM      1  C   UNL     1       2.060   5.727  17.848  0.00  0.00    +0.000 C 
ATOM      2  C   UNL     1       1.143   4.511  17.628  0.00  0.00    +0.000 C 
ATOM      3  C   UNL     1       1.527   3.338  18.530  0.00  0.00    +0.000 C 
ATOM      4  C   UNL     1       3.018   3.008  18.446  0.00  0.00    +0.000 C 
ATOM      5  N   UNL     1       3.868   4.197  18.578  0.00  0.00    +0.000 N 
ATOM      6  C   UNL     1       5.107   4.045  19.203  0.00  0.00    +0.000 C 
ATOM      7  O   UNL     1       5.460   2.955  19.670  0.00  0.00    +0.000 OA
ATOM      8  C   UNL     1       3.527   5.300  17.677  0.00  0.00    +0.000 C 
ENDROOT
BRANCH   1   9
ATOM      9  C   UNL     1       1.847   6.380  19.227  0.00  0.00    +0.000 C 
BRANCH   9  10
ATOM     10  O   UNL     1       2.056   7.791  19.120  0.00  0.00    +0.000 OA
BRANCH  10  15
ATOM     11  C   UNL     1      -0.842  11.195  22.628  0.00  0.00    +0.000 C 
ATOM     12  C   UNL     1      -0.069  10.290  21.714  0.00  0.00    +0.000 A 
ATOM     13  C   UNL     1       0.152  10.626  20.375  0.00  0.00    +0.000 A 
ATOM     14  C   UNL     1       0.867   9.761  19.540  0.00  0.00    +0.000 A 
ATOM     15  C   UNL     1       1.385   8.563  20.032  0.00  0.00    +0.000 A 
ATOM     16  C   UNL     1       1.152   8.217  21.362  0.00  0.00    +0.000 A 
ATOM     17  C   UNL     1       0.431   9.076  22.199  0.00  0.00    +0.000 A 
ENDBRANCH  10  15
ENDBRANCH   9  10
ENDBRANCH   1   9
BRANCH   6  18
ATOM     18  C   UNL     1       6.013   5.279  19.397  0.00  0.00    +0.000 C 
BRANCH  18  19
ATOM     19  N   UNL     1       7.368   5.073  18.834  0.00  0.00    +0.000 NA
ATOM     20  C   UNL     1       8.158   6.333  18.799  0.00  0.00    +0.000 C 
ATOM     21  C   UNL     1       7.662   7.358  17.762  0.00  0.00    +0.000 C 
ATOM     22  O   UNL     1       7.647   6.791  16.445  0.00  0.00    +0.000 OA
ATOM     23  C   UNL     1       6.837   5.611  16.405  0.00  0.00    +0.000 C 
ATOM     24  C   UNL     1       7.298   4.568  17.441  0.00  0.00    +0.000 C 
ENDBRANCH  18  19
ENDBRANCH   6  18
TORSDOF 5
ENDMDL
MODEL 6
REMARK VINA RESULT:      -7.4      1.423      1.793
REMARK  Name = 
REMARK  6 active torsions:
REMARK  status: ('A' for Active; 'I' for Inactive)
REMARK    1  A    between atoms: C_1  and  C_2
REMARK    2  A    between atoms: C_5  and  O_6
REMARK    3  A    between atoms: O_6  and  C_7
REMARK    4  A    between atoms: C_7  and  C_8
REMARK    5  A    between atoms: C_13  and  C_15
REMARK    6  A    between atoms: C_15  and  N_16
REMARK                            x       y       z     vdW  Elec       q    Type
REMARK                         _______ _______ _______ _____ _____    ______ ____
ROOT
ATOM      1  C   UNL     1       1.450   5.060  19.507  0.00  0.00    +0.000 C 
ATOM      2  C   UNL     1       0.839   4.183  20.614  0.00  0.00    +0.000 C 
ATOM      3  C   UNL     1       1.700   2.955  20.907  0.00  0.00    +0.000 C 
ATOM      4  C   UNL     1       2.056   2.182  19.636  0.00  0.00    +0.000 C 
ATOM      5  N   UNL     1       2.561   3.054  18.569  0.00  0.00    +0.000 N 
ATOM      6  C   UNL     1       3.525   2.532  17.704  0.00  0.00    +0.000 C 
ATOM      7  O   UNL     1       3.974   1.389  17.859  0.00  0.00    +0.000 OA
ATOM      8  C   UNL     1       1.708   4.202  18.257  0.00  0.00    +0.000 C 
ENDROOT
BRANCH   1   9
ATOM      9  C   UNL     1       2.749   5.755  19.960  0.00  0.00    +0.000 C 
BRANCH   9  10
ATOM     10  O   UNL     1       3.006   6.876  19.109  0.00  0.00    +0.000 OA
BRANCH  10  15
ATOM     11  C   UNL     1      -0.675  11.204  19.198  0.00  0.00    +0.000 C 
ATOM     12  C   UNL     1       0.300  10.064  19.190  0.00  0.00    +0.000 A 
ATOM     13  C   UNL     1       0.906   9.635  18.005  0.00  0.00    +0.000 A 
ATOM     14  C   UNL     1       1.805   8.563  18.021  0.00  0.00    +0.000 A 
ATOM     15  C   UNL     1       2.124   7.920  19.217  0.00  0.00    +0.000 A 
ATOM     16  C   UNL     1       1.509   8.335  20.397  0.00  0.00    +0.000 A 
ATOM     17  C   UNL     1       0.604   9.402  20.384  0.00  0.00    +0.000 A 
ENDBRANCH  10  15
ENDBRANCH   9  10
ENDBRANCH   1   9
BRANCH   6  18
ATOM     18  C   UNL     1       4.110   3.429  16.593  0.00  0.00    +0.000 C 
BRANCH  18  19
ATOM     19  N   UNL     1       5.463   3.928  16.932  0.00  0.00    +0.000 NA
ATOM     20  C   UNL     1       5.432   5.323  17.451  0.00  0.00    +0.000 C 
ATOM     21  C   UNL     1       5.086   6.381  16.387  0.00  0.00    +0.000 C 
ATOM     22  O   UNL     1       6.002   6.323  15.286  0.00  0.00    +0.000 OA
ATOM     23  C   UNL     1       6.016   5.017  14.701  0.00  0.00    +0.000 C 
ATOM     24  C   UNL     1       6.348   3.931  15.741  0.00  0.00    +0.000 C 
ENDBRANCH  18  19
ENDBRANCH   6  18
TORSDOF 5
ENDMDL
MODEL 7
REMARK VINA RESULT:      -7.4      0.751      1.553
REMARK  Name = 
REMARK  6 active torsions:
REMARK  status: ('A' for Active; 'I' for Inactive)
REMARK    1  A    between atoms: C_1  and  C_2
REMARK    2  A    between atoms: C_5  and  O_6
REMARK    3  A    between atoms: O_6  and  C_7
REMARK    4  A    between atoms: C_7  and  C_8
REMARK    5  A    between atoms: C_13  and  C_15
REMARK    6  A    between atoms: C_15  and  N_16
REMARK                            x       y       z     vdW  Elec       q    Type
REMARK                         _______ _______ _______ _____ _____    ______ ____
ROOT
ATOM      1  C   UNL     1       1.289   4.902  19.581  0.00  0.00    +0.000 C 
ATOM      2  C   UNL     1       0.461   3.732  20.143  0.00  0.00    +0.000 C 
ATOM      3  C   UNL     1       1.328   2.746  20.926  0.00  0.00    +0.000 C 
ATOM      4  C   UNL     1       2.560   2.305  20.135  0.00  0.00    +0.000 C 
ATOM      5  N   UNL     1       3.286   3.435  19.542  0.00  0.00    +0.000 N 
ATOM      6  C   UNL     1       4.673   3.330  19.429  0.00  0.00    +0.000 C 
ATOM      7  O   UNL     1       5.278   2.338  19.855  0.00  0.00    +0.000 OA
ATOM      8  C   UNL     1       2.459   4.349  18.751  0.00  0.00    +0.000 C 
ENDROOT
BRANCH   1   9
ATOM      9  C   UNL     1       1.809   5.837  20.689  0.00  0.00    +0.000 C 
BRANCH   9  10
ATOM     10  O   UNL     1       2.549   6.908  20.095  0.00  0.00    +0.000 OA
BRANCH  10  15
ATOM     11  C   UNL     1      -0.354  11.563  18.613  0.00  0.00    +0.000 C 
ATOM     12  C   UNL     1       0.412  10.339  19.020  0.00  0.00    +0.000 A 
ATOM     13  C   UNL     1       1.203   9.639  18.103  0.00  0.00    +0.000 A 
ATOM     14  C   UNL     1       1.901   8.495  18.504  0.00  0.00    +0.000 A 
ATOM     15  C   UNL     1       1.834   8.046  19.822  0.00  0.00    +0.000 A 
ATOM     16  C   UNL     1       1.034   8.731  20.734  0.00  0.00    +0.000 A 
ATOM     17  C   UNL     1       0.329   9.872  20.336  0.00  0.00    +0.000 A 
ENDBRANCH  10  15
ENDBRANCH   9  10
ENDBRANCH   1   9
BRANCH   6  18
ATOM     18  C   UNL     1       5.476   4.513  18.848  0.00  0.00    +0.000 C 
BRANCH  18  19
ATOM     19  N   UNL     1       5.053   4.853  17.470  0.00  0.00    +0.000 NA
ATOM     20  C   UNL     1       5.853   4.131  16.444  0.00  0.00    +0.000 C 
ATOM     21  C   UNL     1       7.312   4.610  16.332  0.00  0.00    +0.000 C 
ATOM     22  O   UNL     1       7.372   6.015  16.053  0.00  0.00    +0.000 OA
ATOM     23  C   UNL     1       6.678   6.766  17.055  0.00  0.00    +0.000 C 
ATOM     24  C   UNL     1       5.217   6.303  17.202  0.00  0.00    +0.000 C 
ENDBRANCH  18  19
ENDBRANCH   6  18
TORSDOF 5
ENDMDL
MODEL 8
REMARK VINA RESULT:      -7.4      1.138      1.776
REMARK  Name = 
REMARK  6 active torsions:
REMARK  status: ('A' for Active; 'I' for Inactive)
REMARK    1  A    between atoms: C_1  and  C_2
REMARK    2  A    between atoms: C_5  and  O_6
REMARK    3  A    between atoms: O_6  and  C_7
REMARK    4  A    between atoms: C_7  and  C_8
REMARK    5  A    between atoms: C_13  and  C_15
REMARK    6  A    between atoms: C_15  and  N_16
REMARK                            x       y       z     vdW  Elec       q    Type
REMARK                         _______ _______ _______ _____ _____    ______ ____
ROOT
ATOM      1  C   UNL     1       1.395   5.313  19.691  0.00  0.00    +0.000 C 
ATOM      2  C   UNL     1       0.741   4.301  20.648  0.00  0.00    +0.000 C 
ATOM      3  C   UNL     1       1.784   3.473  21.400  0.00  0.00    +0.000 C 
ATOM      4  C   UNL     1       2.816   2.851  20.458  0.00  0.00    +0.000 C 
ATOM      5  N   UNL     1       3.365   3.821  19.502  0.00  0.00    +0.000 N 
ATOM      6  C   UNL     1       4.693   3.662  19.105  0.00  0.00    +0.000 C 
ATOM      7  O   UNL     1       5.400   2.762  19.575  0.00  0.00    +0.000 OA
ATOM      8  C   UNL     1       2.362   4.576  18.749  0.00  0.00    +0.000 C 
ENDROOT
BRANCH   1   9
ATOM      9  C   UNL     1       2.130   6.440  20.442  0.00  0.00    +0.000 C 
BRANCH   9  10
ATOM     10  O   UNL     1       1.826   7.695  19.826  0.00  0.00    +0.000 OA
BRANCH  10  15
ATOM     11  C   UNL     1      -1.084  11.589  22.768  0.00  0.00    +0.000 C 
ATOM     12  C   UNL     1      -0.309  10.556  22.005  0.00  0.00    +0.000 A 
ATOM     13  C   UNL     1      -0.052  10.703  20.638  0.00  0.00    +0.000 A 
ATOM     14  C   UNL     1       0.666   9.722  19.946  0.00  0.00    +0.000 A 
ATOM     15  C   UNL     1       1.150   8.594  20.608  0.00  0.00    +0.000 A 
ATOM     16  C   UNL     1       0.881   8.436  21.967  0.00  0.00    +0.000 A 
ATOM     17  C   UNL     1       0.158   9.412  22.661  0.00  0.00    +0.000 A 
ENDBRANCH  10  15
ENDBRANCH   9  10
ENDBRANCH   1   9
BRANCH   6  18
ATOM     18  C   UNL     1       5.319   4.683  18.132  0.00  0.00    +0.000 C 
BRANCH  18  19
ATOM     19  N   UNL     1       6.798   4.594  18.102  0.00  0.00    +0.000 NA
ATOM     20  C   UNL     1       7.445   5.846  18.580  0.00  0.00    +0.000 C 
ATOM     21  C   UNL     1       7.294   7.039  17.618  0.00  0.00    +0.000 C 
ATOM     22  O   UNL     1       7.815   6.722  16.320  0.00  0.00    +0.000 OA
ATOM     23  C   UNL     1       7.172   5.563  15.780  0.00  0.00    +0.000 C 
ATOM     24  C   UNL     1       7.292   4.352  16.724  0.00  0.00    +0.000 C 
ENDBRANCH  18  19
ENDBRANCH   6  18
TORSDOF 5
ENDMDL
MODEL 9
REMARK VINA RESULT:      -7.2      1.055      1.556
REMARK  Name = 
REMARK  6 active torsions:
REMARK  status: ('A' for Active; 'I' for Inactive)
REMARK    1  A    between atoms: C_1  and  C_2
REMARK    2  A    between atoms: C_5  and  O_6
REMARK    3  A    between atoms: O_6  and  C_7
REMARK    4  A    between atoms: C_7  and  C_8
REMARK    5  A    between atoms: C_13  and  C_15
REMARK    6  A    between atoms: C_15  and  N_16
REMARK                            x       y       z     vdW  Elec       q    Type
REMARK                         _______ _______ _______ _____ _____    ______ ____
ROOT
ATOM      1  C   UNL     1       1.080   4.140  20.129  0.00  0.00    +0.000 C 
ATOM      2  C   UNL     1       1.033   2.984  21.144  0.00  0.00    +0.000 C 
ATOM      3  C   UNL     1       2.416   2.673  21.718  0.00  0.00    +0.000 C 
ATOM      4  C   UNL     1       3.468   2.488  20.622  0.00  0.00    +0.000 C 
ATOM      5  N   UNL     1       3.437   3.562  19.622  0.00  0.00    +0.000 N 
ATOM      6  C   UNL     1       4.646   3.938  19.035  0.00  0.00    +0.000 C 
ATOM      7  O   UNL     1       5.715   3.417  19.376  0.00  0.00    +0.000 OA
ATOM      8  C   UNL     1       2.119   3.822  19.040  0.00  0.00    +0.000 C 
ENDROOT
BRANCH   1   9
ATOM      9  C   UNL     1       1.395   5.492  20.795  0.00  0.00    +0.000 C 
BRANCH   9  10
ATOM     10  O   UNL     1       2.248   6.256  19.936  0.00  0.00    +0.000 OA
BRANCH  10  15
ATOM     11  C   UNL     1       0.753  11.605  18.736  0.00  0.00    +0.000 C 
ATOM     12  C   UNL     1       1.149  10.197  19.068  0.00  0.00    +0.000 A 
ATOM     13  C   UNL     1       1.768   9.374  18.123  0.00  0.00    +0.000 A 
ATOM     14  C   UNL     1       2.118   8.060  18.453  0.00  0.00    +0.000 A 
ATOM     15  C   UNL     1       1.873   7.559  19.731  0.00  0.00    +0.000 A 
ATOM     16  C   UNL     1       1.241   8.371  20.671  0.00  0.00    +0.000 A 
ATOM     17  C   UNL     1       0.883   9.683  20.342  0.00  0.00    +0.000 A 
ENDBRANCH  10  15
ENDBRANCH   9  10
ENDBRANCH   1   9
BRANCH   6  18
ATOM     18  C   UNL     1       4.661   5.091  18.008  0.00  0.00    +0.000 C 
BRANCH  18  19
ATOM     19  N   UNL     1       6.027   5.377  17.509  0.00  0.00    +0.000 NA
ATOM     20  C   UNL     1       6.106   6.691  16.815  0.00  0.00    +0.000 C 
ATOM     21  C   UNL     1       5.381   6.728  15.456  0.00  0.00    +0.000 C 
ATOM     22  O   UNL     1       5.885   5.715  14.576  0.00  0.00    +0.000 OA
ATOM     23  C   UNL     1       5.765   4.417  15.168  0.00  0.00    +0.000 C 
ATOM     24  C   UNL     1       6.468   4.347  16.536  0.00  0.00    +0.000 C 
ENDBRANCH  18  19
ENDBRANCH   6  18
TORSDOF 5
ENDMDL
