MODEL 1
REMARK VINA RESULT:      -7.4      0.000      0.000
REMARK  Name = 
REMARK  3 active torsions:
REMARK  status: ('A' for Active; 'I' for Inactive)
REMARK    1  A    between atoms: S_2  and  N_4
REMARK    2  A    between atoms: S_2  and  C_11
REMARK    3  A    between atoms: C_14  and  N_15
REMARK                            x       y       z     vdW  Elec       q    Type
REMARK                         _______ _______ _______ _____ _____    ______ ____
ROOT
ATOM      1  C   UNL     1       2.611   7.513  18.766  0.00  0.00    +0.000 A 
ATOM      2  C   UNL     1       1.977   7.616  20.006  0.00  0.00    +0.000 A 
ATOM      3  C   UNL     1       1.111   8.690  20.242  0.00  0.00    +0.000 A 
ATOM      4  C   UNL     1       0.873   9.660  19.256  0.00  0.00    +0.000 A 
ATOM      5  C   UNL     1       1.505   9.516  18.015  0.00  0.00    +0.000 A 
ATOM      6  C   UNL     1       2.391   8.469  17.774  0.00  0.00    +0.000 A 
ENDROOT
BRANCH   4   7
ATOM      7  N   UNL     1      -0.087  10.651  19.517  0.00  0.00    +0.000 NA
ATOM      8  C   UNL     1      -1.193  10.776  18.858  0.00  0.00    +0.000 A 
ATOM      9  S   UNL     1      -1.850   9.925  17.512  0.00  0.00    +0.000 S 
ATOM     10  S   UNL     1      -3.746  10.630  17.622  0.00  0.00    +0.000 S 
ATOM     11  N   UNL     1      -3.385  11.908  18.617  0.00  0.00    +0.000 NA
ATOM     12  C   UNL     1      -2.202  11.852  19.136  0.00  0.00    +0.000 A 
ATOM     13 CL   UNL     1      -1.738  13.093  20.221  0.00  0.00    +0.000 Cl
ENDBRANCH   4   7
BRANCH   1  15
ATOM     14  O   UNL     1       3.964   5.519  19.735  0.00  0.00    +0.000 OA
ATOM     15  S   UNL     1       3.718   6.149  18.460  0.00  0.00    +0.000 S 
ATOM     16  O   UNL     1       4.802   6.664  17.644  0.00  0.00    +0.000 OA
BRANCH  15  17
ATOM     17  N   UNL     1       2.782   5.201  17.429  0.00  0.00    +0.000 N 
ATOM     18  C   UNL     1       2.422   4.008  18.058  0.00  0.00    +0.000 A 
ATOM     19  N   UNL     1       1.269   3.999  18.731  0.00  0.00    +0.000 NA
ATOM     20  C   UNL     1       1.025   2.871  19.420  0.00  0.00    +0.000 A 
ATOM     21  C   UNL     1       1.886   1.796  19.449  0.00  0.00    +0.000 A 
ATOM     22  C   UNL     1       3.037   1.932  18.703  0.00  0.00    +0.000 A 
ATOM     23  N   UNL     1       3.328   3.030  17.982  0.00  0.00    +0.000 NA
ATOM     24  H   UNL     1       3.392   4.940  16.657  0.00  0.00    +0.000 HD
ENDBRANCH  15  17
ENDBRANCH   1  15
TORSDOF 3
ENDMDL
MODEL 2
REMARK VINA RESULT:      -7.3      0.367      1.071
REMARK  Name = 
REMARK  3 active torsions:
REMARK  status: ('A' for Active; 'I' for Inactive)
REMARK    1  A    between atoms: S_2  and  N_4
REMARK    2  A    between atoms: S_2  and  C_11
REMARK    3  A    between atoms: C_14  and  N_15
REMARK                            x       y       z     vdW  Elec       q    Type
REMARK                         _______ _______ _______ _____ _____    ______ ____
ROOT
ATOM      1  C   UNL     1       2.883   7.303  18.727  0.00  0.00    +0.000 A 
ATOM      2  C   UNL     1       2.658   8.301  17.776  0.00  0.00    +0.000 A 
ATOM      3  C   UNL     1       1.740   9.319  18.060  0.00  0.00    +0.000 A 
ATOM      4  C   UNL     1       1.046   9.350  19.280  0.00  0.00    +0.000 A 
ATOM      5  C   UNL     1       1.311   8.349  20.222  0.00  0.00    +0.000 A 
ATOM      6  C   UNL     1       2.201   7.314  19.943  0.00  0.00    +0.000 A 
ENDROOT
BRANCH   4   7
ATOM      7  N   UNL     1       0.221  10.455  19.547  0.00  0.00    +0.000 NA
ATOM      8  C   UNL     1      -0.878  10.706  18.913  0.00  0.00    +0.000 A 
ATOM      9  S   UNL     1      -1.669   9.923  17.598  0.00  0.00    +0.000 S 
ATOM     10  S   UNL     1      -3.461  10.858  17.742  0.00  0.00    +0.000 S 
ATOM     11  N   UNL     1      -2.920  12.095  18.706  0.00  0.00    +0.000 NA
ATOM     12  C   UNL     1      -1.739  11.901  19.196  0.00  0.00    +0.000 A 
ATOM     13 CL   UNL     1      -1.099  13.091  20.249  0.00  0.00    +0.000 Cl
ENDBRANCH   4   7
BRANCH   1  15
ATOM     14  O   UNL     1       4.294   5.310  19.613  0.00  0.00    +0.000 OA
ATOM     15  S   UNL     1       4.049   6.002  18.370  0.00  0.00    +0.000 S 
ATOM     16  O   UNL     1       5.129   6.605  17.609  0.00  0.00    +0.000 OA
BRANCH  15  17
ATOM     17  N   UNL     1       3.174   5.079  17.266  0.00  0.00    +0.000 N 
ATOM     18  C   UNL     1       2.658   3.940  17.885  0.00  0.00    +0.000 A 
ATOM     19  N   UNL     1       1.437   4.037  18.416  0.00  0.00    +0.000 NA
ATOM     20  C   UNL     1       1.032   2.956  19.106  0.00  0.00    +0.000 A 
ATOM     21  C   UNL     1       1.805   1.828  19.272  0.00  0.00    +0.000 A 
ATOM     22  C   UNL     1       3.041   1.855  18.664  0.00  0.00    +0.000 A 
ATOM     23  N   UNL     1       3.492   2.900  17.948  0.00  0.00    +0.000 NA
ATOM     24  H   UNL     1       3.849   4.747  16.581  0.00  0.00    +0.000 HD
ENDBRANCH  15  17
ENDBRANCH   1  15
TORSDOF 3
ENDMDL
MODEL 3
REMARK VINA RESULT:      -7.2      2.574      3.006
REMARK  Name = 
REMARK  3 active torsions:
REMARK  status: ('A' for Active; 'I' for Inactive)
REMARK    1  A    between atoms: S_2  and  N_4
REMARK    2  A    between atoms: S_2  and  C_11
REMARK    3  A    between atoms: C_14  and  N_15
REMARK                            x       y       z     vdW  Elec       q    Type
REMARK                         _______ _______ _______ _____ _____    ______ ____
ROOT
ATOM      1  C   UNL     1       2.564   7.546  18.730  0.00  0.00    +0.000 A 
ATOM      2  C   UNL     1       1.957   7.604  19.987  0.00  0.00    +0.000 A 
ATOM      3  C   UNL     1       1.097   8.668  20.280  0.00  0.00    +0.000 A 
ATOM      4  C   UNL     1       0.836   9.672  19.335  0.00  0.00    +0.000 A 
ATOM      5  C   UNL     1       1.441   9.573  18.076  0.00  0.00    +0.000 A 
ATOM      6  C   UNL     1       2.321   8.537  17.779  0.00  0.00    +0.000 A 
ENDROOT
BRANCH   4   7
ATOM      7  N   UNL     1      -0.119  10.651  19.652  0.00  0.00    +0.000 NA
ATOM      8  C   UNL     1      -1.215  10.833  18.991  0.00  0.00    +0.000 A 
ATOM      9  S   UNL     1      -1.863  10.083  17.582  0.00  0.00    +0.000 S 
ATOM     10  S   UNL     1      -3.754  10.797  17.718  0.00  0.00    +0.000 S 
ATOM     11  N   UNL     1      -3.394  11.999  18.803  0.00  0.00    +0.000 NA
ATOM     12  C   UNL     1      -2.218  11.896  19.330  0.00  0.00    +0.000 A 
ATOM     13 CL   UNL     1      -1.757  13.054  20.505  0.00  0.00    +0.000 Cl
ENDBRANCH   4   7
BRANCH   1  15
ATOM     14  O   UNL     1       2.932   5.290  17.497  0.00  0.00    +0.000 OA
ATOM     15  S   UNL     1       3.664   6.195  18.351  0.00  0.00    +0.000 S 
ATOM     16  O   UNL     1       4.238   5.757  19.610  0.00  0.00    +0.000 OA
BRANCH  15  17
ATOM     17  N   UNL     1       4.901   7.004  17.543  0.00  0.00    +0.000 N 
ATOM     18  C   UNL     1       5.618   6.117  16.739  0.00  0.00    +0.000 A 
ATOM     19  N   UNL     1       5.207   5.971  15.477  0.00  0.00    +0.000 NA
ATOM     20  C   UNL     1       5.850   5.018  14.779  0.00  0.00    +0.000 A 
ATOM     21  C   UNL     1       6.854   4.236  15.307  0.00  0.00    +0.000 A 
ATOM     22  C   UNL     1       7.188   4.497  16.618  0.00  0.00    +0.000 A 
ATOM     23  N   UNL     1       6.592   5.447  17.361  0.00  0.00    +0.000 NA
ATOM     24  H   UNL     1       5.547   7.319  18.262  0.00  0.00    +0.000 HD
ENDBRANCH  15  17
ENDBRANCH   1  15
TORSDOF 3
ENDMDL
MODEL 4
REMARK VINA RESULT:      -7.2      3.769      7.753
REMARK  Name = 
REMARK  3 active torsions:
REMARK  status: ('A' for Active; 'I' for Inactive)
REMARK    1  A    between atoms: S_2  and  N_4
REMARK    2  A    between atoms: S_2  and  C_11
REMARK    3  A    between atoms: C_14  and  N_15
REMARK                            x       y       z     vdW  Elec       q    Type
REMARK                         _______ _______ _______ _____ _____    ______ ____
ROOT
ATOM      1  C   UNL     1       1.220   9.456  19.284  0.00  0.00    +0.000 A 
ATOM      2  C   UNL     1       1.498   8.440  20.201  0.00  0.00    +0.000 A 
ATOM      3  C   UNL     1       2.277   7.350  19.795  0.00  0.00    +0.000 A 
ATOM      4  C   UNL     1       2.779   7.264  18.487  0.00  0.00    +0.000 A 
ATOM      5  C   UNL     1       2.503   8.310  17.599  0.00  0.00    +0.000 A 
ATOM      6  C   UNL     1       1.707   9.388  17.978  0.00  0.00    +0.000 A 
ENDROOT
BRANCH   4   7
ATOM      7  N   UNL     1       3.641   6.201  18.175  0.00  0.00    +0.000 NA
ATOM      8  C   UNL     1       3.297   4.955  18.217  0.00  0.00    +0.000 A 
ATOM      9  S   UNL     1       1.835   4.165  18.672  0.00  0.00    +0.000 S 
ATOM     10  S   UNL     1       2.257   2.328  17.929  0.00  0.00    +0.000 S 
ATOM     11  N   UNL     1       3.887   2.590  17.768  0.00  0.00    +0.000 NA
ATOM     12  C   UNL     1       4.235   3.829  17.900  0.00  0.00    +0.000 A 
ATOM     13 CL   UNL     1       5.890   4.225  17.701  0.00  0.00    +0.000 Cl
ENDBRANCH   4   7
BRANCH   1  15
ATOM     14  O   UNL     1       1.097  11.733  20.528  0.00  0.00    +0.000 OA
ATOM     15  S   UNL     1       0.226  10.846  19.793  0.00  0.00    +0.000 S 
ATOM     16  O   UNL     1      -0.982  10.302  20.386  0.00  0.00    +0.000 OA
BRANCH  15  17
ATOM     17  N   UNL     1      -0.240  11.473  18.302  0.00  0.00    +0.000 N 
ATOM     18  C   UNL     1      -1.581  11.180  18.048  0.00  0.00    +0.000 A 
ATOM     19  N   UNL     1      -2.486  12.077  18.445  0.00  0.00    +0.000 NA
ATOM     20  C   UNL     1      -3.766  11.696  18.290  0.00  0.00    +0.000 A 
ATOM     21  C   UNL     1      -4.138  10.476  17.771  0.00  0.00    +0.000 A 
ATOM     22  C   UNL     1      -3.105   9.647  17.392  0.00  0.00    +0.000 A 
ATOM     23  N   UNL     1      -1.807   9.980  17.507  0.00  0.00    +0.000 NA
ATOM     24  H   UNL     1       0.297  10.965  17.603  0.00  0.00    +0.000 HD
ENDBRANCH  15  17
ENDBRANCH   1  15
TORSDOF 3
ENDMDL
MODEL 5
REMARK VINA RESULT:      -7.2      1.892      1.915
REMARK  Name = 
REMARK  3 active torsions:
REMARK  status: ('A' for Active; 'I' for Inactive)
REMARK    1  A    between atoms: S_2  and  N_4
REMARK    2  A    between atoms: S_2  and  C_11
REMARK    3  A    between atoms: C_14  and  N_15
REMARK                            x       y       z     vdW  Elec       q    Type
REMARK                         _______ _______ _______ _____ _____    ______ ____
ROOT
ATOM      1  C   UNL     1       2.799   7.375  18.707  0.00  0.00    +0.000 A 
ATOM      2  C   UNL     1       2.133   7.526  19.926  0.00  0.00    +0.000 A 
ATOM      3  C   UNL     1       1.236   8.589  20.085  0.00  0.00    +0.000 A 
ATOM      4  C   UNL     1       0.998   9.500  19.044  0.00  0.00    +0.000 A 
ATOM      5  C   UNL     1       1.663   9.307  17.827  0.00  0.00    +0.000 A 
ATOM      6  C   UNL     1       2.579   8.272  17.662  0.00  0.00    +0.000 A 
ENDROOT
BRANCH   4   7
ATOM      7  N   UNL     1       0.008  10.478  19.230  0.00  0.00    +0.000 NA
ATOM      8  C   UNL     1       0.253  11.742  19.341  0.00  0.00    +0.000 A 
ATOM      9  S   UNL     1       1.719  12.647  19.362  0.00  0.00    +0.000 S 
ATOM     10  S   UNL     1       0.922  14.493  19.114  0.00  0.00    +0.000 S 
ATOM     11  N   UNL     1      -0.629  14.053  19.507  0.00  0.00    +0.000 NA
ATOM     12  C   UNL     1      -0.814  12.774  19.559  0.00  0.00    +0.000 A 
ATOM     13 CL   UNL     1      -2.391  12.203  19.904  0.00  0.00    +0.000 Cl
ENDBRANCH   4   7
BRANCH   1  15
ATOM     14  O   UNL     1       4.053   5.369  19.780  0.00  0.00    +0.000 OA
ATOM     15  S   UNL     1       3.945   6.025  18.498  0.00  0.00    +0.000 S 
ATOM     16  O   UNL     1       5.109   6.565  17.819  0.00  0.00    +0.000 OA
BRANCH  15  17
ATOM     17  N   UNL     1       3.139   5.093  17.351  0.00  0.00    +0.000 N 
ATOM     18  C   UNL     1       2.629   3.934  17.936  0.00  0.00    +0.000 A 
ATOM     19  N   UNL     1       1.385   3.993  18.418  0.00  0.00    +0.000 NA
ATOM     20  C   UNL     1       0.982   2.894  19.080  0.00  0.00    +0.000 A 
ATOM     21  C   UNL     1       1.777   1.784  19.265  0.00  0.00    +0.000 A 
ATOM     22  C   UNL     1       3.035   1.850  18.708  0.00  0.00    +0.000 A 
ATOM     23  N   UNL     1       3.487   2.915  18.021  0.00  0.00    +0.000 NA
ATOM     24  H   UNL     1       3.849   4.786  16.689  0.00  0.00    +0.000 HD
ENDBRANCH  15  17
ENDBRANCH   1  15
TORSDOF 3
ENDMDL
MODEL 6
REMARK VINA RESULT:      -7.1      0.990      1.481
REMARK  Name = 
REMARK  3 active torsions:
REMARK  status: ('A' for Active; 'I' for Inactive)
REMARK    1  A    between atoms: S_2  and  N_4
REMARK    2  A    between atoms: S_2  and  C_11
REMARK    3  A    between atoms: C_14  and  N_15
REMARK                            x       y       z     vdW  Elec       q    Type
REMARK                         _______ _______ _______ _____ _____    ______ ____
ROOT
ATOM      1  C   UNL     1       2.462   7.648  18.685  0.00  0.00    +0.000 A 
ATOM      2  C   UNL     1       1.906   7.776  19.960  0.00  0.00    +0.000 A 
ATOM      3  C   UNL     1       1.065   8.861  20.231  0.00  0.00    +0.000 A 
ATOM      4  C   UNL     1       0.773   9.817  19.246  0.00  0.00    +0.000 A 
ATOM      5  C   UNL     1       1.325   9.647  17.971  0.00  0.00    +0.000 A 
ATOM      6  C   UNL     1       2.187   8.589  17.693  0.00  0.00    +0.000 A 
ENDROOT
BRANCH   4   7
ATOM      7  N   UNL     1      -0.162  10.819  19.549  0.00  0.00    +0.000 NA
ATOM      8  C   UNL     1      -1.306  10.943  18.958  0.00  0.00    +0.000 A 
ATOM      9  S   UNL     1      -2.052  10.076  17.670  0.00  0.00    +0.000 S 
ATOM     10  S   UNL     1      -3.932  10.798  17.886  0.00  0.00    +0.000 S 
ATOM     11  N   UNL     1      -3.500  12.089  18.834  0.00  0.00    +0.000 NA
ATOM     12  C   UNL     1      -2.288  12.031  19.280  0.00  0.00    +0.000 A 
ATOM     13 CL   UNL     1      -1.749  13.286  20.314  0.00  0.00    +0.000 Cl
ENDBRANCH   4   7
BRANCH   1  15
ATOM     14  O   UNL     1       4.795   6.825  17.894  0.00  0.00    +0.000 OA
ATOM     15  S   UNL     1       3.537   6.270  18.334  0.00  0.00    +0.000 S 
ATOM     16  O   UNL     1       2.781   5.349  17.505  0.00  0.00    +0.000 OA
BRANCH  15  17
ATOM     17  N   UNL     1       3.635   5.543  19.850  0.00  0.00    +0.000 N 
ATOM     18  C   UNL     1       3.008   4.297  19.834  0.00  0.00    +0.000 A 
ATOM     19  N   UNL     1       3.766   3.238  19.537  0.00  0.00    +0.000 NA
ATOM     20  C   UNL     1       3.096   2.079  19.414  0.00  0.00    +0.000 A 
ATOM     21  C   UNL     1       1.732   1.970  19.570  0.00  0.00    +0.000 A 
ATOM     22  C   UNL     1       1.070   3.137  19.884  0.00  0.00    +0.000 A 
ATOM     23  N   UNL     1       1.689   4.322  20.036  0.00  0.00    +0.000 NA
ATOM     24  H   UNL     1       3.086   6.127  20.477  0.00  0.00    +0.000 HD
ENDBRANCH  15  17
ENDBRANCH   1  15
TORSDOF 3
ENDMDL
MODEL 7
REMARK VINA RESULT:      -7.1      3.166      3.587
REMARK  Name = 
REMARK  3 active torsions:
REMARK  status: ('A' for Active; 'I' for Inactive)
REMARK    1  A    between atoms: S_2  and  N_4
REMARK    2  A    between atoms: S_2  and  C_11
REMARK    3  A    between atoms: C_14  and  N_15
REMARK                            x       y       z     vdW  Elec       q    Type
REMARK                         _______ _______ _______ _____ _____    ______ ____
ROOT
ATOM      1  C   UNL     1       2.598   7.435  18.715  0.00  0.00    +0.000 A 
ATOM      2  C   UNL     1       2.064   7.628  19.991  0.00  0.00    +0.000 A 
ATOM      3  C   UNL     1       1.197   8.704  20.212  0.00  0.00    +0.000 A 
ATOM      4  C   UNL     1       0.859   9.588  19.176  0.00  0.00    +0.000 A 
ATOM      5  C   UNL     1       1.392   9.355  17.903  0.00  0.00    +0.000 A 
ATOM      6  C   UNL     1       2.277   8.305  17.673  0.00  0.00    +0.000 A 
ENDROOT
BRANCH   4   7
ATOM      7  N   UNL     1      -0.098  10.582  19.436  0.00  0.00    +0.000 NA
ATOM      8  C   UNL     1       0.179  11.839  19.555  0.00  0.00    +0.000 A 
ATOM      9  S   UNL     1       1.662  12.714  19.508  0.00  0.00    +0.000 S 
ATOM     10  S   UNL     1       0.892  14.580  19.340  0.00  0.00    +0.000 S 
ATOM     11  N   UNL     1      -0.643  14.163  19.813  0.00  0.00    +0.000 NA
ATOM     12  C   UNL     1      -0.852  12.887  19.852  0.00  0.00    +0.000 A 
ATOM     13 CL   UNL     1      -2.419  12.341  20.277  0.00  0.00    +0.000 Cl
ENDBRANCH   4   7
BRANCH   1  15
ATOM     14  O   UNL     1       3.052   5.196  17.480  0.00  0.00    +0.000 OA
ATOM     15  S   UNL     1       3.705   6.068  18.427  0.00  0.00    +0.000 S 
ATOM     16  O   UNL     1       4.131   5.593  19.731  0.00  0.00    +0.000 OA
BRANCH  15  17
ATOM     17  N   UNL     1       5.038   6.864  17.774  0.00  0.00    +0.000 N 
ATOM     18  C   UNL     1       5.666   6.061  16.821  0.00  0.00    +0.000 A 
ATOM     19  N   UNL     1       5.263   6.192  15.555  0.00  0.00    +0.000 NA
ATOM     20  C   UNL     1       5.808   5.314  14.695  0.00  0.00    +0.000 A 
ATOM     21  C   UNL     1       6.709   4.342  15.069  0.00  0.00    +0.000 A 
ATOM     22  C   UNL     1       7.047   4.323  16.405  0.00  0.00    +0.000 A 
ATOM     23  N   UNL     1       6.548   5.185  17.308  0.00  0.00    +0.000 NA
ATOM     24  H   UNL     1       5.703   6.970  18.537  0.00  0.00    +0.000 HD
ENDBRANCH  15  17
ENDBRANCH   1  15
TORSDOF 3
ENDMDL
MODEL 8
REMARK VINA RESULT:      -7.1      2.300      2.894
REMARK  Name = 
REMARK  3 active torsions:
REMARK  status: ('A' for Active; 'I' for Inactive)
REMARK    1  A    between atoms: S_2  and  N_4
REMARK    2  A    between atoms: S_2  and  C_11
REMARK    3  A    between atoms: C_14  and  N_15
REMARK                            x       y       z     vdW  Elec       q    Type
REMARK                         _______ _______ _______ _____ _____    ______ ____
ROOT
ATOM      1  C   UNL     1       2.400   6.822  19.222  0.00  0.00    +0.000 A 
ATOM      2  C   UNL     1       1.859   7.078  20.485  0.00  0.00    +0.000 A 
ATOM      3  C   UNL     1       1.264   8.320  20.732  0.00  0.00    +0.000 A 
ATOM      4  C   UNL     1       1.204   9.308  19.737  0.00  0.00    +0.000 A 
ATOM      5  C   UNL     1       1.734   9.013  18.475  0.00  0.00    +0.000 A 
ATOM      6  C   UNL     1       2.354   7.792  18.221  0.00  0.00    +0.000 A 
ENDROOT
BRANCH   4   7
ATOM      7  N   UNL     1       0.499  10.490  20.015  0.00  0.00    +0.000 NA
ATOM      8  C   UNL     1      -0.554  10.872  19.370  0.00  0.00    +0.000 A 
ATOM      9  S   UNL     1      -1.403  10.206  18.027  0.00  0.00    +0.000 S 
ATOM     10  S   UNL     1      -3.085  11.326  18.164  0.00  0.00    +0.000 S 
ATOM     11  N   UNL     1      -2.430  12.478  19.162  0.00  0.00    +0.000 NA
ATOM     12  C   UNL     1      -1.286  12.147  19.667  0.00  0.00    +0.000 A 
ATOM     13 CL   UNL     1      -0.539  13.239  20.755  0.00  0.00    +0.000 Cl
ENDBRANCH   4   7
BRANCH   1  15
ATOM     14  O   UNL     1       2.572   4.736  17.684  0.00  0.00    +0.000 OA
ATOM     15  S   UNL     1       3.162   5.243  18.901  0.00  0.00    +0.000 S 
ATOM     16  O   UNL     1       3.109   4.492  20.142  0.00  0.00    +0.000 OA
BRANCH  15  17
ATOM     17  N   UNL     1       4.773   5.695  18.709  0.00  0.00    +0.000 N 
ATOM     18  C   UNL     1       5.204   5.425  17.410  0.00  0.00    +0.000 A 
ATOM     19  N   UNL     1       5.067   6.401  16.509  0.00  0.00    +0.000 NA
ATOM     20  C   UNL     1       5.380   6.055  15.248  0.00  0.00    +0.000 A 
ATOM     21  C   UNL     1       5.805   4.795  14.889  0.00  0.00    +0.000 A 
ATOM     22  C   UNL     1       5.912   3.884  15.918  0.00  0.00    +0.000 A 
ATOM     23  N   UNL     1       5.628   4.177  17.200  0.00  0.00    +0.000 NA
ATOM     24  H   UNL     1       5.311   5.082  19.318  0.00  0.00    +0.000 HD
ENDBRANCH  15  17
ENDBRANCH   1  15
TORSDOF 3
ENDMDL
MODEL 9
REMARK VINA RESULT:      -7.1      2.369      3.152
REMARK  Name = 
REMARK  3 active torsions:
REMARK  status: ('A' for Active; 'I' for Inactive)
REMARK    1  A    between atoms: S_2  and  N_4
REMARK    2  A    between atoms: S_2  and  C_11
REMARK    3  A    between atoms: C_14  and  N_15
REMARK                            x       y       z     vdW  Elec       q    Type
REMARK                         _______ _______ _______ _____ _____    ______ ____
ROOT
ATOM      1  C   UNL     1       2.450   6.691  19.207  0.00  0.00    +0.000 A 
ATOM      2  C   UNL     1       2.417   7.686  18.227  0.00  0.00    +0.000 A 
ATOM      3  C   UNL     1       1.823   8.918  18.526  0.00  0.00    +0.000 A 
ATOM      4  C   UNL     1       1.264   9.166  19.789  0.00  0.00    +0.000 A 
ATOM      5  C   UNL     1       1.334   8.157  20.758  0.00  0.00    +0.000 A 
ATOM      6  C   UNL     1       1.897   6.917  20.467  0.00  0.00    +0.000 A 
ENDROOT
BRANCH   4   7
ATOM      7  N   UNL     1       0.781  10.456  20.060  0.00  0.00    +0.000 NA
ATOM      8  C   UNL     1      -0.295  10.949  19.540  0.00  0.00    +0.000 A 
ATOM      9  S   UNL     1      -1.424  10.331  18.394  0.00  0.00    +0.000 S 
ATOM     10  S   UNL     1      -2.893  11.699  18.669  0.00  0.00    +0.000 S 
ATOM     11  N   UNL     1      -1.939  12.803  19.460  0.00  0.00    +0.000 NA
ATOM     12  C   UNL     1      -0.789  12.337  19.824  0.00  0.00    +0.000 A 
ATOM     13 CL   UNL     1       0.260  13.373  20.696  0.00  0.00    +0.000 Cl
ENDBRANCH   4   7
BRANCH   1  15
ATOM     14  O   UNL     1       2.599   4.651  17.607  0.00  0.00    +0.000 OA
ATOM     15  S   UNL     1       3.203   5.119  18.832  0.00  0.00    +0.000 S 
ATOM     16  O   UNL     1       3.158   4.332  20.051  0.00  0.00    +0.000 OA
BRANCH  15  17
ATOM     17  N   UNL     1       4.813   5.570  18.639  0.00  0.00    +0.000 N 
ATOM     18  C   UNL     1       5.236   5.320  17.333  0.00  0.00    +0.000 A 
ATOM     19  N   UNL     1       5.097   6.310  16.449  0.00  0.00    +0.000 NA
ATOM     20  C   UNL     1       5.402   5.984  15.180  0.00  0.00    +0.000 A 
ATOM     21  C   UNL     1       5.822   4.728  14.799  0.00  0.00    +0.000 A 
ATOM     22  C   UNL     1       5.932   3.801  15.812  0.00  0.00    +0.000 A 
ATOM     23  N   UNL     1       5.656   4.074  17.100  0.00  0.00    +0.000 NA
ATOM     24  H   UNL     1       5.353   4.946  19.235  0.00  0.00    +0.000 HD
ENDBRANCH  15  17
ENDBRANCH   1  15
TORSDOF 3
ENDMDL
