MODEL 1
REMARK VINA RESULT:      -3.4      0.000      0.000
REMARK  Name = 
REMARK  6 active torsions:
REMARK  status: ('A' for Active; 'I' for Inactive)
REMARK    1  A    between atoms: C_1  and  N_2
REMARK    2  A    between atoms: N_2  and  C_3
REMARK    3  A    between atoms: C_3  and  C_4
REMARK    4  A    between atoms: C_4  and  C_5
REMARK    5  A    between atoms: C_5  and  N_6
REMARK    6  A    between atoms: N_6  and  C_7
REMARK                            x       y       z     vdW  Elec       q    Type
REMARK                         _______ _______ _______ _____ _____    ______ ____
ROOT
ATOM      1  C   UNL     1       7.531   5.964  18.402  0.00  0.00    +0.000 C 
ENDROOT
BRANCH   1   2
ATOM      2  C   UNL     1       6.394   5.376  19.240  0.00  0.00    +0.000 C 
BRANCH   2   4
ATOM      3  C   UNL     1       4.664   3.774  18.766  0.00  0.00    +0.000 C 
ATOM      4  N   UNL     1       6.102   4.007  18.817  0.00  0.00    +0.000 NA
ATOM      5  H   UNL     1       6.507   3.836  17.898  0.00  0.00    +0.000 HD
ENDBRANCH   2   4
ENDBRANCH   1   2
BRANCH   1   6
ATOM      6  C   UNL     1       7.133   6.012  16.925  0.00  0.00    +0.000 C 
BRANCH   6   7
ATOM      7  N   UNL     1       7.575   4.799  16.235  0.00  0.00    +0.000 NA
ATOM      8  C   UNL     1       6.680   4.474  15.134  0.00  0.00    +0.000 C 
ATOM      9  H   UNL     1       7.603   4.021  16.892  0.00  0.00    +0.000 HD
ENDBRANCH   6   7
ENDBRANCH   1   6
TORSDOF 4
ENDMDL
MODEL 2
REMARK VINA RESULT:      -3.3      1.145      3.369
REMARK  Name = 
REMARK  6 active torsions:
REMARK  status: ('A' for Active; 'I' for Inactive)
REMARK    1  A    between atoms: C_1  and  N_2
REMARK    2  A    between atoms: N_2  and  C_3
REMARK    3  A    between atoms: C_3  and  C_4
REMARK    4  A    between atoms: C_4  and  C_5
REMARK    5  A    between atoms: C_5  and  N_6
REMARK    6  A    between atoms: N_6  and  C_7
REMARK                            x       y       z     vdW  Elec       q    Type
REMARK                         _______ _______ _______ _____ _____    ______ ____
ROOT
ATOM      1  C   UNL     1       5.896   5.652  18.210  0.00  0.00    +0.000 C 
ENDROOT
BRANCH   1   2
ATOM      2  C   UNL     1       7.379   5.295  18.336  0.00  0.00    +0.000 C 
BRANCH   2   4
ATOM      3  C   UNL     1       6.990   4.601  16.067  0.00  0.00    +0.000 C 
ATOM      4  N   UNL     1       7.777   4.374  17.272  0.00  0.00    +0.000 NA
ATOM      5  H   UNL     1       8.766   4.499  17.061  0.00  0.00    +0.000 HD
ENDBRANCH   2   4
ENDBRANCH   1   2
BRANCH   1   6
ATOM      6  C   UNL     1       5.071   4.859  19.226  0.00  0.00    +0.000 C 
BRANCH   6   7
ATOM      7  N   UNL     1       5.416   3.438  19.169  0.00  0.00    +0.000 NA
ATOM      8  C   UNL     1       4.356   2.624  19.748  0.00  0.00    +0.000 C 
ATOM      9  H   UNL     1       6.285   3.275  19.675  0.00  0.00    +0.000 HD
ENDBRANCH   6   7
ENDBRANCH   1   6
TORSDOF 4
ENDMDL
MODEL 3
REMARK VINA RESULT:      -3.2      3.585      6.115
REMARK  Name = 
REMARK  6 active torsions:
REMARK  status: ('A' for Active; 'I' for Inactive)
REMARK    1  A    between atoms: C_1  and  N_2
REMARK    2  A    between atoms: N_2  and  C_3
REMARK    3  A    between atoms: C_3  and  C_4
REMARK    4  A    between atoms: C_4  and  C_5
REMARK    5  A    between atoms: C_5  and  N_6
REMARK    6  A    between atoms: N_6  and  C_7
REMARK                            x       y       z     vdW  Elec       q    Type
REMARK                         _______ _______ _______ _____ _____    ______ ____
ROOT
ATOM      1  C   UNL     1       1.906   3.050  18.108  0.00  0.00    +0.000 C 
ENDROOT
BRANCH   1   2
ATOM      2  C   UNL     1       3.059   2.052  17.982  0.00  0.00    +0.000 C 
BRANCH   2   4
ATOM      3  C   UNL     1       4.557   3.375  19.320  0.00  0.00    +0.000 C 
ATOM      4  N   UNL     1       4.345   2.747  18.022  0.00  0.00    +0.000 NA
ATOM      5  H   UNL     1       5.100   2.088  17.836  0.00  0.00    +0.000 HD
ENDBRANCH   2   4
ENDBRANCH   1   2
BRANCH   1   6
ATOM      6  C   UNL     1       0.799   2.474  18.993  0.00  0.00    +0.000 C 
BRANCH   6   7
ATOM      7  N   UNL     1       0.617   3.298  20.188  0.00  0.00    +0.000 NA
ATOM      8  C   UNL     1       1.401   2.780  21.301  0.00  0.00    +0.000 C 
ATOM      9  H   UNL     1      -0.369   3.317  20.446  0.00  0.00    +0.000 HD
ENDBRANCH   6   7
ENDBRANCH   1   6
TORSDOF 4
ENDMDL
MODEL 4
REMARK VINA RESULT:      -3.2      1.173      1.568
REMARK  Name = 
REMARK  6 active torsions:
REMARK  status: ('A' for Active; 'I' for Inactive)
REMARK    1  A    between atoms: C_1  and  N_2
REMARK    2  A    between atoms: N_2  and  C_3
REMARK    3  A    between atoms: C_3  and  C_4
REMARK    4  A    between atoms: C_4  and  C_5
REMARK    5  A    between atoms: C_5  and  N_6
REMARK    6  A    between atoms: N_6  and  C_7
REMARK                            x       y       z     vdW  Elec       q    Type
REMARK                         _______ _______ _______ _____ _____    ______ ____
ROOT
ATOM      1  C   UNL     1       6.060   5.277  19.169  0.00  0.00    +0.000 C 
ENDROOT
BRANCH   1   2
ATOM      2  C   UNL     1       4.922   4.315  18.825  0.00  0.00    +0.000 C 
BRANCH   2   4
ATOM      3  C   UNL     1       4.037   2.452  20.064  0.00  0.00    +0.000 C 
ATOM      4  N   UNL     1       5.198   2.981  19.360  0.00  0.00    +0.000 NA
ATOM      5  H   UNL     1       5.452   2.351  18.600  0.00  0.00    +0.000 HD
ENDBRANCH   2   4
ENDBRANCH   1   2
BRANCH   1   6
ATOM      6  C   UNL     1       7.185   5.158  18.139  0.00  0.00    +0.000 C 
BRANCH   6   7
ATOM      7  N   UNL     1       6.854   4.150  17.131  0.00  0.00    +0.000 NA
ATOM      8  C   UNL     1       6.991   4.696  15.788  0.00  0.00    +0.000 C 
ATOM      9  H   UNL     1       5.899   3.826  17.271  0.00  0.00    +0.000 HD
ENDBRANCH   6   7
ENDBRANCH   1   6
TORSDOF 4
ENDMDL
MODEL 5
REMARK VINA RESULT:      -3.2      1.565      2.678
REMARK  Name = 
REMARK  6 active torsions:
REMARK  status: ('A' for Active; 'I' for Inactive)
REMARK    1  A    between atoms: C_1  and  N_2
REMARK    2  A    between atoms: N_2  and  C_3
REMARK    3  A    between atoms: C_3  and  C_4
REMARK    4  A    between atoms: C_4  and  C_5
REMARK    5  A    between atoms: C_5  and  N_6
REMARK    6  A    between atoms: N_6  and  C_7
REMARK                            x       y       z     vdW  Elec       q    Type
REMARK                         _______ _______ _______ _____ _____    ______ ____
ROOT
ATOM      1  C   UNL     1       5.947   3.810  15.570  0.00  0.00    +0.000 C 
ENDROOT
BRANCH   1   2
ATOM      2  C   UNL     1       4.702   4.029  16.432  0.00  0.00    +0.000 C 
BRANCH   2   4
ATOM      3  C   UNL     1       3.507   2.505  17.859  0.00  0.00    +0.000 C 
ATOM      4  N   UNL     1       4.765   3.208  17.641  0.00  0.00    +0.000 NA
ATOM      5  H   UNL     1       5.523   2.531  17.559  0.00  0.00    +0.000 HD
ENDBRANCH   2   4
ENDBRANCH   1   2
BRANCH   1   6
ATOM      6  C   UNL     1       7.057   4.778  15.984  0.00  0.00    +0.000 C 
BRANCH   6   7
ATOM      7  N   UNL     1       7.819   4.234  17.108  0.00  0.00    +0.000 NA
ATOM      8  C   UNL     1       7.723   5.106  18.270  0.00  0.00    +0.000 C 
ATOM      9  H   UNL     1       8.797   4.129  16.841  0.00  0.00    +0.000 HD
ENDBRANCH   6   7
ENDBRANCH   1   6
TORSDOF 4
ENDMDL
MODEL 6
REMARK VINA RESULT:      -3.2      0.869      3.508
REMARK  Name = 
REMARK  6 active torsions:
REMARK  status: ('A' for Active; 'I' for Inactive)
REMARK    1  A    between atoms: C_1  and  N_2
REMARK    2  A    between atoms: N_2  and  C_3
REMARK    3  A    between atoms: C_3  and  C_4
REMARK    4  A    between atoms: C_4  and  C_5
REMARK    5  A    between atoms: C_5  and  N_6
REMARK    6  A    between atoms: N_6  and  C_7
REMARK                            x       y       z     vdW  Elec       q    Type
REMARK                         _______ _______ _______ _____ _____    ______ ____
ROOT
ATOM      1  C   UNL     1       7.186   5.414  18.540  0.00  0.00    +0.000 C 
ENDROOT
BRANCH   1   2
ATOM      2  C   UNL     1       7.409   4.679  17.217  0.00  0.00    +0.000 C 
BRANCH   2   4
ATOM      3  C   UNL     1       6.940   4.959  14.874  0.00  0.00    +0.000 C 
ATOM      4  N   UNL     1       7.379   5.620  16.096  0.00  0.00    +0.000 NA
ATOM      5  H   UNL     1       6.748   6.392  16.312  0.00  0.00    +0.000 HD
ENDBRANCH   2   4
ENDBRANCH   1   2
BRANCH   1   6
ATOM      6  C   UNL     1       5.831   5.031  19.139  0.00  0.00    +0.000 C 
BRANCH   6   7
ATOM      7  N   UNL     1       5.637   3.581  19.083  0.00  0.00    +0.000 NA
ATOM      8  C   UNL     1       4.267   3.228  19.426  0.00  0.00    +0.000 C 
ATOM      9  H   UNL     1       6.279   3.124  19.730  0.00  0.00    +0.000 HD
ENDBRANCH   6   7
ENDBRANCH   1   6
TORSDOF 4
ENDMDL
MODEL 7
REMARK VINA RESULT:      -3.1      4.865      6.158
REMARK  Name = 
REMARK  6 active torsions:
REMARK  status: ('A' for Active; 'I' for Inactive)
REMARK    1  A    between atoms: C_1  and  N_2
REMARK    2  A    between atoms: N_2  and  C_3
REMARK    3  A    between atoms: C_3  and  C_4
REMARK    4  A    between atoms: C_4  and  C_5
REMARK    5  A    between atoms: C_5  and  N_6
REMARK    6  A    between atoms: N_6  and  C_7
REMARK                            x       y       z     vdW  Elec       q    Type
REMARK                         _______ _______ _______ _____ _____    ______ ____
ROOT
ATOM      1  C   UNL     1       2.311   4.641  19.015  0.00  0.00    +0.000 C 
ENDROOT
BRANCH   1   2
ATOM      2  C   UNL     1       1.471   3.948  17.940  0.00  0.00    +0.000 C 
BRANCH   2   4
ATOM      3  C   UNL     1       3.291   2.376  17.970  0.00  0.00    +0.000 C 
ATOM      4  N   UNL     1       1.851   2.540  17.821  0.00  0.00    +0.000 NA
ATOM      5  H   UNL     1       1.370   1.992  18.533  0.00  0.00    +0.000 HD
ENDBRANCH   2   4
ENDBRANCH   1   2
BRANCH   1   6
ATOM      6  C   UNL     1       1.533   4.717  20.330  0.00  0.00    +0.000 C 
BRANCH   6   7
ATOM      7  N   UNL     1       0.797   3.474  20.563  0.00  0.00    +0.000 NA
ATOM      8  C   UNL     1       1.484   2.639  21.538  0.00  0.00    +0.000 C 
ATOM      9  H   UNL     1       0.699   2.964  19.687  0.00  0.00    +0.000 HD
ENDBRANCH   6   7
ENDBRANCH   1   6
TORSDOF 4
ENDMDL
MODEL 8
REMARK VINA RESULT:      -3.1      1.990      3.042
REMARK  Name = 
REMARK  6 active torsions:
REMARK  status: ('A' for Active; 'I' for Inactive)
REMARK    1  A    between atoms: C_1  and  N_2
REMARK    2  A    between atoms: N_2  and  C_3
REMARK    3  A    between atoms: C_3  and  C_4
REMARK    4  A    between atoms: C_4  and  C_5
REMARK    5  A    between atoms: C_5  and  N_6
REMARK    6  A    between atoms: N_6  and  C_7
REMARK                            x       y       z     vdW  Elec       q    Type
REMARK                         _______ _______ _______ _____ _____    ______ ____
ROOT
ATOM      1  C   UNL     1       5.588   5.404  15.115  0.00  0.00    +0.000 C 
ENDROOT
BRANCH   1   2
ATOM      2  C   UNL     1       5.595   4.887  16.555  0.00  0.00    +0.000 C 
BRANCH   2   4
ATOM      3  C   UNL     1       7.600   4.737  17.876  0.00  0.00    +0.000 C 
ATOM      4  N   UNL     1       6.812   4.118  16.817  0.00  0.00    +0.000 NA
ATOM      5  H   UNL     1       6.567   3.167  17.088  0.00  0.00    +0.000 HD
ENDBRANCH   2   4
ENDBRANCH   1   2
BRANCH   1   6
ATOM      6  C   UNL     1       6.715   4.752  14.311  0.00  0.00    +0.000 C 
BRANCH   6   7
ATOM      7  N   UNL     1       6.295   3.443  13.809  0.00  0.00    +0.000 NA
ATOM      8  C   UNL     1       6.223   3.444  12.354  0.00  0.00    +0.000 C 
ATOM      9  H   UNL     1       5.383   3.203  14.195  0.00  0.00    +0.000 HD
ENDBRANCH   6   7
ENDBRANCH   1   6
TORSDOF 4
ENDMDL
MODEL 9
REMARK VINA RESULT:      -3.1      3.320      5.220
REMARK  Name = 
REMARK  6 active torsions:
REMARK  status: ('A' for Active; 'I' for Inactive)
REMARK    1  A    between atoms: C_1  and  N_2
REMARK    2  A    between atoms: N_2  and  C_3
REMARK    3  A    between atoms: C_3  and  C_4
REMARK    4  A    between atoms: C_4  and  C_5
REMARK    5  A    between atoms: C_5  and  N_6
REMARK    6  A    between atoms: N_6  and  C_7
REMARK                            x       y       z     vdW  Elec       q    Type
REMARK                         _______ _______ _______ _____ _____    ______ ____
ROOT
ATOM      1  C   UNL     1       2.336   2.354  17.809  0.00  0.00    +0.000 C 
ENDROOT
BRANCH   1   2
ATOM      2  C   UNL     1       1.120   2.364  18.739  0.00  0.00    +0.000 C 
BRANCH   2   4
ATOM      3  C   UNL     1       1.135   3.823  20.651  0.00  0.00    +0.000 C 
ATOM      4  N   UNL     1       1.541   2.524  20.131  0.00  0.00    +0.000 NA
ATOM      5  H   UNL     1       1.131   1.785  20.701  0.00  0.00    +0.000 HD
ENDBRANCH   2   4
ENDBRANCH   1   2
BRANCH   1   6
ATOM      6  C   UNL     1       3.492   1.588  18.455  0.00  0.00    +0.000 C 
BRANCH   6   7
ATOM      7  N   UNL     1       4.472   2.518  19.019  0.00  0.00    +0.000 NA
ATOM      8  C   UNL     1       4.538   3.742  18.231  0.00  0.00    +0.000 C 
ATOM      9  H   UNL     1       5.390   2.078  19.041  0.00  0.00    +0.000 HD
ENDBRANCH   6   7
ENDBRANCH   1   6
TORSDOF 4
ENDMDL
