MODEL 1
REMARK VINA RESULT:      -5.7      0.000      0.000
REMARK  Name = 
REMARK  4 active torsions:
REMARK  status: ('A' for Active; 'I' for Inactive)
REMARK    1  A    between atoms: C_1  and  C_2
REMARK    2  A    between atoms: C_2  and  C_3
REMARK    3  A    between atoms: C_6  and  C_7
REMARK    4  A    between atoms: C_7  and  O_9
REMARK                            x       y       z     vdW  Elec       q    Type
REMARK                         _______ _______ _______ _____ _____    ______ ____
ROOT
ATOM      1  C   UNK     1       4.244   3.930  16.609  0.00  0.00    +0.000 C 
ATOM      2  C   UNK     1       3.883   4.495  17.988  0.00  0.00    +0.000 C 
ATOM      3  C   UNK     1       4.395   5.935  18.116  0.00  0.00    +0.000 C 
ATOM      4  S   UNK     1       2.057   4.574  18.189  0.00  0.00    +0.000 S 
ATOM      5  C   UNK     1       1.698   2.807  18.416  0.00  0.00    +0.000 C 
ATOM      6  C   UNK     1       2.530   2.202  19.541  0.00  0.00    +0.000 C 
ATOM      7  N   UNK     1       3.974   2.405  19.393  0.00  0.00    +0.000 N 
ATOM      8  C   UNK     1       4.546   3.602  19.048  0.00  0.00    +0.000 C 
ATOM      9  O   UNK     1       5.640   3.847  19.556  0.00  0.00    +0.000 OA
ATOM     10  H   UNK     1       4.572   1.829  19.976  0.00  0.00    +0.000 HD
ENDROOT
BRANCH   6  11
ATOM     11  C   UNK     1       2.018   2.651  20.924  0.00  0.00    +0.000 C 
ATOM     12  O   UNK     1       2.729   2.707  21.917  0.00  0.00    +0.000 OA
BRANCH  11  13
ATOM     13  O   UNK     1       0.716   3.021  20.957  0.00  0.00    +0.000 OA
ATOM     14  H   UNK     1       0.120   2.354  21.351  0.00  0.00    +0.000 HD
ENDBRANCH  11  13
ENDBRANCH   6  11
TORSDOF 2
ENDMDL
MODEL 2
REMARK VINA RESULT:      -5.6      2.332      4.639
REMARK  Name = 
REMARK  4 active torsions:
REMARK  status: ('A' for Active; 'I' for Inactive)
REMARK    1  A    between atoms: C_1  and  C_2
REMARK    2  A    between atoms: C_2  and  C_3
REMARK    3  A    between atoms: C_6  and  C_7
REMARK    4  A    between atoms: C_7  and  O_9
REMARK                            x       y       z     vdW  Elec       q    Type
REMARK                         _______ _______ _______ _____ _____    ______ ____
ROOT
ATOM      1  C   UNK     1       2.546   4.252  18.909  0.00  0.00    +0.000 C 
ATOM      2  C   UNK     1       3.669   3.446  18.244  0.00  0.00    +0.000 C 
ATOM      3  C   UNK     1       3.208   2.003  18.006  0.00  0.00    +0.000 C 
ATOM      4  S   UNK     1       4.065   4.143  16.590  0.00  0.00    +0.000 S 
ATOM      5  C   UNK     1       4.951   5.647  17.096  0.00  0.00    +0.000 C 
ATOM      6  C   UNK     1       6.099   5.333  18.048  0.00  0.00    +0.000 C 
ATOM      7  N   UNK     1       5.701   4.563  19.230  0.00  0.00    +0.000 N 
ATOM      8  C   UNK     1       4.881   3.465  19.187  0.00  0.00    +0.000 C 
ATOM      9  O   UNK     1       5.121   2.576  20.004  0.00  0.00    +0.000 OA
ATOM     10  H   UNK     1       6.368   4.535  19.995  0.00  0.00    +0.000 HD
ENDROOT
BRANCH   6  11
ATOM     11  C   UNK     1       7.285   4.687  17.305  0.00  0.00    +0.000 C 
ATOM     12  O   UNK     1       7.462   4.797  16.101  0.00  0.00    +0.000 OA
BRANCH  11  13
ATOM     13  O   UNK     1       8.152   4.011  18.096  0.00  0.00    +0.000 OA
ATOM     14  H   UNK     1       8.503   4.534  18.843  0.00  0.00    +0.000 HD
ENDBRANCH  11  13
ENDBRANCH   6  11
TORSDOF 2
ENDMDL
MODEL 3
REMARK VINA RESULT:      -5.6      2.082      4.180
REMARK  Name = 
REMARK  4 active torsions:
REMARK  status: ('A' for Active; 'I' for Inactive)
REMARK    1  A    between atoms: C_1  and  C_2
REMARK    2  A    between atoms: C_2  and  C_3
REMARK    3  A    between atoms: C_6  and  C_7
REMARK    4  A    between atoms: C_7  and  O_9
REMARK                            x       y       z     vdW  Elec       q    Type
REMARK                         _______ _______ _______ _____ _____    ______ ____
ROOT
ATOM      1  C   UNK     1       2.331   3.060  20.933  0.00  0.00    +0.000 C 
ATOM      2  C   UNK     1       2.447   3.146  19.406  0.00  0.00    +0.000 C 
ATOM      3  C   UNK     1       1.208   2.522  18.751  0.00  0.00    +0.000 C 
ATOM      4  S   UNK     1       2.491   4.902  18.865  0.00  0.00    +0.000 S 
ATOM      5  C   UNK     1       4.178   5.339  19.381  0.00  0.00    +0.000 C 
ATOM      6  C   UNK     1       5.210   4.374  18.809  0.00  0.00    +0.000 C 
ATOM      7  N   UNK     1       4.942   2.965  19.110  0.00  0.00    +0.000 N 
ATOM      8  C   UNK     1       3.710   2.378  18.988  0.00  0.00    +0.000 C 
ATOM      9  O   UNK     1       3.702   1.200  18.630  0.00  0.00    +0.000 OA
ATOM     10  H   UNK     1       5.710   2.318  18.959  0.00  0.00    +0.000 HD
ENDROOT
BRANCH   6  11
ATOM     11  C   UNK     1       5.432   4.616  17.302  0.00  0.00    +0.000 C 
ATOM     12  O   UNK     1       5.206   5.684  16.755  0.00  0.00    +0.000 OA
BRANCH  11  13
ATOM     13  O   UNK     1       5.938   3.558  16.625  0.00  0.00    +0.000 OA
ATOM     14  H   UNK     1       5.964   3.681  15.655  0.00  0.00    +0.000 HD
ENDBRANCH  11  13
ENDBRANCH   6  11
TORSDOF 2
ENDMDL
MODEL 4
REMARK VINA RESULT:      -5.5      2.519      4.915
REMARK  Name = 
REMARK  4 active torsions:
REMARK  status: ('A' for Active; 'I' for Inactive)
REMARK    1  A    between atoms: C_1  and  C_2
REMARK    2  A    between atoms: C_2  and  C_3
REMARK    3  A    between atoms: C_6  and  C_7
REMARK    4  A    between atoms: C_7  and  O_9
REMARK                            x       y       z     vdW  Elec       q    Type
REMARK                         _______ _______ _______ _____ _____    ______ ____
ROOT
ATOM      1  C   UNK     1       3.207   5.893  19.397  0.00  0.00    +0.000 C 
ATOM      2  C   UNK     1       3.858   4.898  18.429  0.00  0.00    +0.000 C 
ATOM      3  C   UNK     1       2.833   3.842  17.997  0.00  0.00    +0.000 C 
ATOM      4  S   UNK     1       4.398   5.755  16.896  0.00  0.00    +0.000 S 
ATOM      5  C   UNK     1       5.851   6.639  17.536  0.00  0.00    +0.000 C 
ATOM      6  C   UNK     1       6.828   5.693  18.225  0.00  0.00    +0.000 C 
ATOM      7  N   UNK     1       6.227   4.882  19.287  0.00  0.00    +0.000 N 
ATOM      8  C   UNK     1       5.029   4.227  19.163  0.00  0.00    +0.000 C 
ATOM      9  O   UNK     1       4.936   3.150  19.751  0.00  0.00    +0.000 OA
ATOM     10  H   UNK     1       6.871   4.421  19.922  0.00  0.00    +0.000 HD
ENDROOT
BRANCH   6  11
ATOM     11  C   UNK     1       7.597   4.834  17.202  0.00  0.00    +0.000 C 
ATOM     12  O   UNK     1       7.497   4.982  15.993  0.00  0.00    +0.000 OA
BRANCH  11  13
ATOM     13  O   UNK     1       8.432   3.916  17.742  0.00  0.00    +0.000 OA
ATOM     14  H   UNK     1       9.126   3.597  17.131  0.00  0.00    +0.000 HD
ENDBRANCH  11  13
ENDBRANCH   6  11
TORSDOF 2
ENDMDL
MODEL 5
REMARK VINA RESULT:      -5.5      2.694      4.871
REMARK  Name = 
REMARK  4 active torsions:
REMARK  status: ('A' for Active; 'I' for Inactive)
REMARK    1  A    between atoms: C_1  and  C_2
REMARK    2  A    between atoms: C_2  and  C_3
REMARK    3  A    between atoms: C_6  and  C_7
REMARK    4  A    between atoms: C_7  and  O_9
REMARK                            x       y       z     vdW  Elec       q    Type
REMARK                         _______ _______ _______ _____ _____    ______ ____
ROOT
ATOM      1  C   UNK     1       3.649   5.441  19.793  0.00  0.00    +0.000 C 
ATOM      2  C   UNK     1       3.674   5.035  18.315  0.00  0.00    +0.000 C 
ATOM      3  C   UNK     1       2.243   4.821  17.806  0.00  0.00    +0.000 C 
ATOM      4  S   UNK     1       4.393   6.382  17.291  0.00  0.00    +0.000 S 
ATOM      5  C   UNK     1       6.144   6.208  17.744  0.00  0.00    +0.000 C 
ATOM      6  C   UNK     1       6.644   4.784  17.529  0.00  0.00    +0.000 C 
ATOM      7  N   UNK     1       5.846   3.761  18.211  0.00  0.00    +0.000 N 
ATOM      8  C   UNK     1       4.475   3.729  18.202  0.00  0.00    +0.000 C 
ATOM      9  O   UNK     1       3.959   2.611  18.201  0.00  0.00    +0.000 OA
ATOM     10  H   UNK     1       6.267   2.841  18.294  0.00  0.00    +0.000 HD
ENDROOT
BRANCH   6  11
ATOM     11  C   UNK     1       6.830   4.473  16.031  0.00  0.00    +0.000 C 
ATOM     12  O   UNK     1       7.427   5.212  15.262  0.00  0.00    +0.000 OA
BRANCH  11  13
ATOM     13  O   UNK     1       6.313   3.289  15.626  0.00  0.00    +0.000 OA
ATOM     14  H   UNK     1       6.962   2.557  15.599  0.00  0.00    +0.000 HD
ENDBRANCH  11  13
ENDBRANCH   6  11
TORSDOF 2
ENDMDL
MODEL 6
REMARK VINA RESULT:      -5.5      2.641      3.216
REMARK  Name = 
REMARK  4 active torsions:
REMARK  status: ('A' for Active; 'I' for Inactive)
REMARK    1  A    between atoms: C_1  and  C_2
REMARK    2  A    between atoms: C_2  and  C_3
REMARK    3  A    between atoms: C_6  and  C_7
REMARK    4  A    between atoms: C_7  and  O_9
REMARK                            x       y       z     vdW  Elec       q    Type
REMARK                         _______ _______ _______ _____ _____    ______ ____
ROOT
ATOM      1  C   UNK     1       7.567   4.558  16.888  0.00  0.00    +0.000 C 
ATOM      2  C   UNK     1       6.688   5.620  17.558  0.00  0.00    +0.000 C 
ATOM      3  C   UNK     1       7.430   6.962  17.607  0.00  0.00    +0.000 C 
ATOM      4  S   UNK     1       5.164   5.906  16.571  0.00  0.00    +0.000 S 
ATOM      5  C   UNK     1       4.254   4.382  16.964  0.00  0.00    +0.000 C 
ATOM      6  C   UNK     1       4.120   4.178  18.469  0.00  0.00    +0.000 C 
ATOM      7  N   UNK     1       5.395   4.201  19.191  0.00  0.00    +0.000 N 
ATOM      8  C   UNK     1       6.374   5.138  18.983  0.00  0.00    +0.000 C 
ATOM      9  O   UNK     1       7.026   5.471  19.973  0.00  0.00    +0.000 OA
ATOM     10  H   UNK     1       5.382   3.840  20.140  0.00  0.00    +0.000 HD
ENDROOT
BRANCH   6  11
ATOM     11  C   UNK     1       3.087   5.146  19.078  0.00  0.00    +0.000 C 
ATOM     12  O   UNK     1       2.137   5.593  18.453  0.00  0.00    +0.000 OA
BRANCH  11  13
ATOM     13  O   UNK     1       3.286   5.443  20.384  0.00  0.00    +0.000 OA
ATOM     14  H   UNK     1       2.513   5.268  20.957  0.00  0.00    +0.000 HD
ENDBRANCH  11  13
ENDBRANCH   6  11
TORSDOF 2
ENDMDL
MODEL 7
REMARK VINA RESULT:      -5.4      1.959      4.031
REMARK  Name = 
REMARK  4 active torsions:
REMARK  status: ('A' for Active; 'I' for Inactive)
REMARK    1  A    between atoms: C_1  and  C_2
REMARK    2  A    between atoms: C_2  and  C_3
REMARK    3  A    between atoms: C_6  and  C_7
REMARK    4  A    between atoms: C_7  and  O_9
REMARK                            x       y       z     vdW  Elec       q    Type
REMARK                         _______ _______ _______ _____ _____    ______ ____
ROOT
ATOM      1  C   UNK     1       0.729   2.812  18.985  0.00  0.00    +0.000 C 
ATOM      2  C   UNK     1       1.968   3.070  19.849  0.00  0.00    +0.000 C 
ATOM      3  C   UNK     1       1.702   2.626  21.294  0.00  0.00    +0.000 C 
ATOM      4  S   UNK     1       3.387   2.065  19.251  0.00  0.00    +0.000 S 
ATOM      5  C   UNK     1       3.800   2.989  17.741  0.00  0.00    +0.000 C 
ATOM      6  C   UNK     1       4.025   4.469  18.029  0.00  0.00    +0.000 C 
ATOM      7  N   UNK     1       2.911   5.118  18.725  0.00  0.00    +0.000 N 
ATOM      8  C   UNK     1       2.265   4.577  19.806  0.00  0.00    +0.000 C 
ATOM      9  O   UNK     1       1.865   5.373  20.655  0.00  0.00    +0.000 OA
ATOM     10  H   UNK     1       2.911   6.134  18.727  0.00  0.00    +0.000 HD
ENDROOT
BRANCH   6  11
ATOM     11  C   UNK     1       5.373   4.705  18.739  0.00  0.00    +0.000 C 
ATOM     12  O   UNK     1       5.515   5.495  19.662  0.00  0.00    +0.000 OA
BRANCH  11  13
ATOM     13  O   UNK     1       6.395   3.940  18.290  0.00  0.00    +0.000 OA
ATOM     14  H   UNK     1       6.276   3.609  17.378  0.00  0.00    +0.000 HD
ENDBRANCH  11  13
ENDBRANCH   6  11
TORSDOF 2
ENDMDL
MODEL 8
REMARK VINA RESULT:      -5.4      0.913      1.291
REMARK  Name = 
REMARK  4 active torsions:
REMARK  status: ('A' for Active; 'I' for Inactive)
REMARK    1  A    between atoms: C_1  and  C_2
REMARK    2  A    between atoms: C_2  and  C_3
REMARK    3  A    between atoms: C_6  and  C_7
REMARK    4  A    between atoms: C_7  and  O_9
REMARK                            x       y       z     vdW  Elec       q    Type
REMARK                         _______ _______ _______ _____ _____    ______ ____
ROOT
ATOM      1  C   UNK     1       5.204   4.037  16.371  0.00  0.00    +0.000 C 
ATOM      2  C   UNK     1       4.436   4.570  17.586  0.00  0.00    +0.000 C 
ATOM      3  C   UNK     1       4.479   6.104  17.602  0.00  0.00    +0.000 C 
ATOM      4  S   UNK     1       2.662   4.102  17.480  0.00  0.00    +0.000 S 
ATOM      5  C   UNK     1       2.788   2.334  17.879  0.00  0.00    +0.000 C 
ATOM      6  C   UNK     1       3.525   2.103  19.194  0.00  0.00    +0.000 C 
ATOM      7  N   UNK     1       4.850   2.727  19.253  0.00  0.00    +0.000 N 
ATOM      8  C   UNK     1       5.110   4.010  18.849  0.00  0.00    +0.000 C 
ATOM      9  O   UNK     1       5.969   4.618  19.488  0.00  0.00    +0.000 OA
ATOM     10  H   UNK     1       5.464   2.409  19.996  0.00  0.00    +0.000 HD
ENDROOT
BRANCH   6  11
ATOM     11  C   UNK     1       2.649   2.482  20.404  0.00  0.00    +0.000 C 
ATOM     12  O   UNK     1       1.454   2.724  20.317  0.00  0.00    +0.000 OA
BRANCH  11  13
ATOM     13  O   UNK     1       3.295   2.491  21.594  0.00  0.00    +0.000 OA
ATOM     14  H   UNK     1       4.254   2.313  21.530  0.00  0.00    +0.000 HD
ENDBRANCH  11  13
ENDBRANCH   6  11
TORSDOF 2
ENDMDL
MODEL 9
REMARK VINA RESULT:      -5.4      2.366      4.411
REMARK  Name = 
REMARK  4 active torsions:
REMARK  status: ('A' for Active; 'I' for Inactive)
REMARK    1  A    between atoms: C_1  and  C_2
REMARK    2  A    between atoms: C_2  and  C_3
REMARK    3  A    between atoms: C_6  and  C_7
REMARK    4  A    between atoms: C_7  and  O_9
REMARK                            x       y       z     vdW  Elec       q    Type
REMARK                         _______ _______ _______ _____ _____    ______ ____
ROOT
ATOM      1  C   UNK     1       2.633   4.513  20.038  0.00  0.00    +0.000 C 
ATOM      2  C   UNK     1       3.011   4.329  18.563  0.00  0.00    +0.000 C 
ATOM      3  C   UNK     1       1.751   4.072  17.727  0.00  0.00    +0.000 C 
ATOM      4  S   UNK     1       3.770   5.866  17.899  0.00  0.00    +0.000 S 
ATOM      5  C   UNK     1       5.397   5.776  18.704  0.00  0.00    +0.000 C 
ATOM      6  C   UNK     1       6.089   4.445  18.431  0.00  0.00    +0.000 C 
ATOM      7  N   UNK     1       5.287   3.271  18.787  0.00  0.00    +0.000 N 
ATOM      8  C   UNK     1       3.962   3.125  18.470  0.00  0.00    +0.000 C 
ATOM      9  O   UNK     1       3.587   1.980  18.216  0.00  0.00    +0.000 OA
ATOM     10  H   UNK     1       5.785   2.388  18.846  0.00  0.00    +0.000 HD
ENDROOT
BRANCH   6  11
ATOM     11  C   UNK     1       6.617   4.373  16.984  0.00  0.00    +0.000 C 
ATOM     12  O   UNK     1       7.548   5.052  16.576  0.00  0.00    +0.000 OA
BRANCH  11  13
ATOM     13  O   UNK     1       5.996   3.464  16.196  0.00  0.00    +0.000 OA
ATOM     14  H   UNK     1       6.029   2.549  16.537  0.00  0.00    +0.000 HD
ENDBRANCH  11  13
ENDBRANCH   6  11
TORSDOF 2
ENDMDL
