MODEL 1
REMARK VINA RESULT:      -6.7      0.000      0.000
REMARK  Name = 
REMARK  2 active torsions:
REMARK  status: ('A' for Active; 'I' for Inactive)
REMARK    1  A    between atoms: N_3  and  C_4
REMARK    2  A    between atoms: N_10  and  C_11
REMARK                            x       y       z     vdW  Elec       q    Type
REMARK                         _______ _______ _______ _____ _____    ______ ____
ROOT
ATOM      1  O   UNL     1       4.010   4.692  16.059  0.00  0.00    +0.000 OA
ATOM      2  C   UNL     1       4.738   3.792  16.469  0.00  0.00    +0.000 C 
ATOM      3  N   UNL     1       5.890   3.357  15.828  0.00  0.00    +0.000 N 
ATOM      4  N   UNL     1       4.480   3.069  17.620  0.00  0.00    +0.000 N 
ATOM      5  H   UNL     1       6.268   2.474  16.133  0.00  0.00    +0.000 HD
ATOM      6  H   UNL     1       5.276   2.692  18.117  0.00  0.00    +0.000 HD
ENDROOT
BRANCH   4   7
ATOM      7  C   UNL     1       3.260   3.132  18.350  0.00  0.00    +0.000 A 
ATOM      8  C   UNL     1       2.268   2.150  18.207  0.00  0.00    +0.000 A 
ATOM      9  C   UNL     1       1.076   2.211  18.934  0.00  0.00    +0.000 A 
ATOM     10  C   UNL     1       0.864   3.249  19.831  0.00  0.00    +0.000 A 
ATOM     11  C   UNL     1       1.843   4.230  20.001  0.00  0.00    +0.000 A 
ATOM     12  C   UNL     1       3.035   4.171  19.267  0.00  0.00    +0.000 A 
ATOM     13 BR   UNL     1       4.300   5.565  19.517  0.00  0.00    +0.000 Br
ENDBRANCH   4   7
BRANCH   3  14
ATOM     14  C   UNL     1       6.368   3.871  14.595  0.00  0.00    +0.000 A 
ATOM     15  C   UNL     1       5.991   3.360  13.349  0.00  0.00    +0.000 A 
ATOM     16  C   UNL     1       6.548   3.854  12.168  0.00  0.00    +0.000 A 
ATOM     17  C   UNL     1       7.480   4.883  12.217  0.00  0.00    +0.000 A 
ATOM     18  C   UNL     1       7.838   5.432  13.445  0.00  0.00    +0.000 A 
ATOM     19  C   UNL     1       7.278   4.934  14.631  0.00  0.00    +0.000 A 
ENDBRANCH   3  14
TORSDOF 2
ENDMDL
MODEL 2
REMARK VINA RESULT:      -6.6      1.386      1.893
REMARK  Name = 
REMARK  2 active torsions:
REMARK  status: ('A' for Active; 'I' for Inactive)
REMARK    1  A    between atoms: N_3  and  C_4
REMARK    2  A    between atoms: N_10  and  C_11
REMARK                            x       y       z     vdW  Elec       q    Type
REMARK                         _______ _______ _______ _____ _____    ______ ____
ROOT
ATOM      1  O   UNL     1       4.280   5.199  16.348  0.00  0.00    +0.000 OA
ATOM      2  C   UNL     1       5.115   4.459  16.861  0.00  0.00    +0.000 C 
ATOM      3  N   UNL     1       6.215   3.933  16.198  0.00  0.00    +0.000 N 
ATOM      4  N   UNL     1       5.045   4.029  18.174  0.00  0.00    +0.000 N 
ATOM      5  H   UNL     1       6.690   3.168  16.651  0.00  0.00    +0.000 HD
ATOM      6  H   UNL     1       5.919   3.820  18.639  0.00  0.00    +0.000 HD
ENDROOT
BRANCH   4   7
ATOM      7  C   UNL     1       3.916   4.214  19.020  0.00  0.00    +0.000 A 
ATOM      8  C   UNL     1       3.626   5.461  19.594  0.00  0.00    +0.000 A 
ATOM      9  C   UNL     1       2.509   5.639  20.415  0.00  0.00    +0.000 A 
ATOM     10  C   UNL     1       1.652   4.575  20.660  0.00  0.00    +0.000 A 
ATOM     11  C   UNL     1       1.912   3.329  20.087  0.00  0.00    +0.000 A 
ATOM     12  C   UNL     1       3.035   3.149  19.270  0.00  0.00    +0.000 A 
ATOM     13 BR   UNL     1       3.349   1.415  18.562  0.00  0.00    +0.000 Br
ENDBRANCH   4   7
BRANCH   3  14
ATOM     14  C   UNL     1       6.509   4.151  14.827  0.00  0.00    +0.000 A 
ATOM     15  C   UNL     1       5.917   3.426  13.788  0.00  0.00    +0.000 A 
ATOM     16  C   UNL     1       6.296   3.630  12.460  0.00  0.00    +0.000 A 
ATOM     17  C   UNL     1       7.263   4.579  12.150  0.00  0.00    +0.000 A 
ATOM     18  C   UNL     1       7.835   5.337  13.168  0.00  0.00    +0.000 A 
ATOM     19  C   UNL     1       7.453   5.131  14.502  0.00  0.00    +0.000 A 
ENDBRANCH   3  14
TORSDOF 2
ENDMDL
MODEL 3
REMARK VINA RESULT:      -6.5      1.371      2.253
REMARK  Name = 
REMARK  2 active torsions:
REMARK  status: ('A' for Active; 'I' for Inactive)
REMARK    1  A    between atoms: N_3  and  C_4
REMARK    2  A    between atoms: N_10  and  C_11
REMARK                            x       y       z     vdW  Elec       q    Type
REMARK                         _______ _______ _______ _____ _____    ______ ____
ROOT
ATOM      1  O   UNL     1       4.591   5.465  16.271  0.00  0.00    +0.000 OA
ATOM      2  C   UNL     1       5.207   4.503  16.722  0.00  0.00    +0.000 C 
ATOM      3  N   UNL     1       6.183   3.799  16.031  0.00  0.00    +0.000 N 
ATOM      4  N   UNL     1       4.979   3.976  17.981  0.00  0.00    +0.000 N 
ATOM      5  H   UNL     1       6.447   2.904  16.411  0.00  0.00    +0.000 HD
ATOM      6  H   UNL     1       5.759   3.523  18.439  0.00  0.00    +0.000 HD
ENDROOT
BRANCH   4   7
ATOM      7  C   UNL     1       3.886   4.338  18.817  0.00  0.00    +0.000 A 
ATOM      8  C   UNL     1       3.782   5.623  19.371  0.00  0.00    +0.000 A 
ATOM      9  C   UNL     1       2.701   5.977  20.183  0.00  0.00    +0.000 A 
ATOM     10  C   UNL     1       1.695   5.055  20.439  0.00  0.00    +0.000 A 
ATOM     11  C   UNL     1       1.770   3.775  19.886  0.00  0.00    +0.000 A 
ATOM     12  C   UNL     1       2.858   3.420  19.078  0.00  0.00    +0.000 A 
ATOM     13 BR   UNL     1       2.914   1.647  18.398  0.00  0.00    +0.000 Br
ENDBRANCH   4   7
BRANCH   3  14
ATOM     14  C   UNL     1       6.581   4.074  14.697  0.00  0.00    +0.000 A 
ATOM     15  C   UNL     1       7.535   5.041  14.361  0.00  0.00    +0.000 A 
ATOM     16  C   UNL     1       7.837   5.323  13.028  0.00  0.00    +0.000 A 
ATOM     17  C   UNL     1       7.201   4.626  12.008  0.00  0.00    +0.000 A 
ATOM     18  C   UNL     1       6.278   3.632  12.323  0.00  0.00    +0.000 A 
ATOM     19  C   UNL     1       5.975   3.350  13.664  0.00  0.00    +0.000 A 
ENDBRANCH   3  14
TORSDOF 2
ENDMDL
MODEL 4
REMARK VINA RESULT:      -6.5      0.134      1.171
REMARK  Name = 
REMARK  2 active torsions:
REMARK  status: ('A' for Active; 'I' for Inactive)
REMARK    1  A    between atoms: N_3  and  C_4
REMARK    2  A    between atoms: N_10  and  C_11
REMARK                            x       y       z     vdW  Elec       q    Type
REMARK                         _______ _______ _______ _____ _____    ______ ____
ROOT
ATOM      1  O   UNL     1       4.066   4.657  15.957  0.00  0.00    +0.000 OA
ATOM      2  C   UNL     1       4.820   3.813  16.434  0.00  0.00    +0.000 C 
ATOM      3  N   UNL     1       6.015   3.407  15.857  0.00  0.00    +0.000 N 
ATOM      4  N   UNL     1       4.553   3.131  17.609  0.00  0.00    +0.000 N 
ATOM      5  H   UNL     1       6.423   2.558  16.215  0.00  0.00    +0.000 HD
ATOM      6  H   UNL     1       5.347   2.816  18.151  0.00  0.00    +0.000 HD
ENDROOT
BRANCH   4   7
ATOM      7  C   UNL     1       3.305   3.166  18.291  0.00  0.00    +0.000 A 
ATOM      8  C   UNL     1       2.344   2.160  18.114  0.00  0.00    +0.000 A 
ATOM      9  C   UNL     1       1.124   2.194  18.795  0.00  0.00    +0.000 A 
ATOM     10  C   UNL     1       0.852   3.230  19.679  0.00  0.00    +0.000 A 
ATOM     11  C   UNL     1       1.800   4.234  19.882  0.00  0.00    +0.000 A 
ATOM     12  C   UNL     1       3.019   4.202  19.194  0.00  0.00    +0.000 A 
ATOM     13 BR   UNL     1       4.240   5.628  19.488  0.00  0.00    +0.000 Br
ENDBRANCH   4   7
BRANCH   3  14
ATOM     14  C   UNL     1       6.514   3.887  14.619  0.00  0.00    +0.000 A 
ATOM     15  C   UNL     1       7.432   4.938  14.514  0.00  0.00    +0.000 A 
ATOM     16  C   UNL     1       7.835   5.421  13.268  0.00  0.00    +0.000 A 
ATOM     17  C   UNL     1       7.340   4.845  12.105  0.00  0.00    +0.000 A 
ATOM     18  C   UNL     1       6.456   3.772  12.189  0.00  0.00    +0.000 A 
ATOM     19  C   UNL     1       6.051   3.288  13.442  0.00  0.00    +0.000 A 
ENDBRANCH   3  14
TORSDOF 2
ENDMDL
MODEL 5
REMARK VINA RESULT:      -6.5      1.402      6.828
REMARK  Name = 
REMARK  2 active torsions:
REMARK  status: ('A' for Active; 'I' for Inactive)
REMARK    1  A    between atoms: N_3  and  C_4
REMARK    2  A    between atoms: N_10  and  C_11
REMARK                            x       y       z     vdW  Elec       q    Type
REMARK                         _______ _______ _______ _____ _____    ______ ____
ROOT
ATOM      1  O   UNL     1       3.885   4.504  17.044  0.00  0.00    +0.000 OA
ATOM      2  C   UNL     1       4.358   3.374  17.136  0.00  0.00    +0.000 C 
ATOM      3  N   UNL     1       3.998   2.446  18.102  0.00  0.00    +0.000 N 
ATOM      4  N   UNL     1       5.345   2.892  16.294  0.00  0.00    +0.000 N 
ATOM      5  H   UNL     1       4.610   1.653  18.216  0.00  0.00    +0.000 HD
ATOM      6  H   UNL     1       5.366   1.893  16.132  0.00  0.00    +0.000 HD
ENDROOT
BRANCH   4   7
ATOM      7  C   UNL     1       6.070   3.691  15.367  0.00  0.00    +0.000 A 
ATOM      8  C   UNL     1       5.821   3.623  13.988  0.00  0.00    +0.000 A 
ATOM      9  C   UNL     1       6.529   4.418  13.083  0.00  0.00    +0.000 A 
ATOM     10  C   UNL     1       7.486   5.311  13.546  0.00  0.00    +0.000 A 
ATOM     11  C   UNL     1       7.740   5.408  14.916  0.00  0.00    +0.000 A 
ATOM     12  C   UNL     1       7.035   4.605  15.821  0.00  0.00    +0.000 A 
ATOM     13 BR   UNL     1       7.466   4.758  17.664  0.00  0.00    +0.000 Br
ENDBRANCH   4   7
BRANCH   3  14
ATOM     14  C   UNL     1       3.056   2.684  19.136  0.00  0.00    +0.000 A 
ATOM     15  C   UNL     1       3.402   2.769  20.489  0.00  0.00    +0.000 A 
ATOM     16  C   UNL     1       2.427   2.931  21.474  0.00  0.00    +0.000 A 
ATOM     17  C   UNL     1       1.088   3.032  21.117  0.00  0.00    +0.000 A 
ATOM     18  C   UNL     1       0.728   2.990  19.773  0.00  0.00    +0.000 A 
ATOM     19  C   UNL     1       1.709   2.825  18.784  0.00  0.00    +0.000 A 
ENDBRANCH   3  14
TORSDOF 2
ENDMDL
MODEL 6
REMARK VINA RESULT:      -6.5      1.431      6.752
REMARK  Name = 
REMARK  2 active torsions:
REMARK  status: ('A' for Active; 'I' for Inactive)
REMARK    1  A    between atoms: N_3  and  C_4
REMARK    2  A    between atoms: N_10  and  C_11
REMARK                            x       y       z     vdW  Elec       q    Type
REMARK                         _______ _______ _______ _____ _____    ______ ____
ROOT
ATOM      1  O   UNL     1       3.800   4.446  17.013  0.00  0.00    +0.000 OA
ATOM      2  C   UNL     1       4.322   3.343  17.156  0.00  0.00    +0.000 C 
ATOM      3  N   UNL     1       3.973   2.428  18.139  0.00  0.00    +0.000 N 
ATOM      4  N   UNL     1       5.359   2.884  16.362  0.00  0.00    +0.000 N 
ATOM      5  H   UNL     1       4.617   1.670  18.297  0.00  0.00    +0.000 HD
ATOM      6  H   UNL     1       5.432   1.884  16.232  0.00  0.00    +0.000 HD
ENDROOT
BRANCH   4   7
ATOM      7  C   UNL     1       6.076   3.690  15.435  0.00  0.00    +0.000 A 
ATOM      8  C   UNL     1       5.833   3.613  14.055  0.00  0.00    +0.000 A 
ATOM      9  C   UNL     1       6.534   4.414  13.149  0.00  0.00    +0.000 A 
ATOM     10  C   UNL     1       7.477   5.321  13.612  0.00  0.00    +0.000 A 
ATOM     11  C   UNL     1       7.725   5.426  14.982  0.00  0.00    +0.000 A 
ATOM     12  C   UNL     1       7.027   4.618  15.888  0.00  0.00    +0.000 A 
ATOM     13 BR   UNL     1       7.450   4.784  17.732  0.00  0.00    +0.000 Br
ENDBRANCH   4   7
BRANCH   3  14
ATOM     14  C   UNL     1       2.987   2.652  19.134  0.00  0.00    +0.000 A 
ATOM     15  C   UNL     1       1.652   2.952  18.842  0.00  0.00    +0.000 A 
ATOM     16  C   UNL     1       0.738   3.236  19.858  0.00  0.00    +0.000 A 
ATOM     17  C   UNL     1       1.143   3.204  21.186  0.00  0.00    +0.000 A 
ATOM     18  C   UNL     1       2.458   2.868  21.499  0.00  0.00    +0.000 A 
ATOM     19  C   UNL     1       3.376   2.584  20.476  0.00  0.00    +0.000 A 
ENDBRANCH   3  14
TORSDOF 2
ENDMDL
MODEL 7
REMARK VINA RESULT:      -6.3      1.391      1.412
REMARK  Name = 
REMARK  2 active torsions:
REMARK  status: ('A' for Active; 'I' for Inactive)
REMARK    1  A    between atoms: N_3  and  C_4
REMARK    2  A    between atoms: N_10  and  C_11
REMARK                            x       y       z     vdW  Elec       q    Type
REMARK                         _______ _______ _______ _____ _____    ______ ____
ROOT
ATOM      1  O   UNL     1       3.926   4.162  16.303  0.00  0.00    +0.000 OA
ATOM      2  C   UNL     1       4.971   4.442  16.884  0.00  0.00    +0.000 C 
ATOM      3  N   UNL     1       6.195   4.624  16.258  0.00  0.00    +0.000 N 
ATOM      4  N   UNL     1       5.063   4.583  18.258  0.00  0.00    +0.000 N 
ATOM      5  H   UNL     1       7.009   4.622  16.851  0.00  0.00    +0.000 HD
ATOM      6  H   UNL     1       5.773   5.211  18.611  0.00  0.00    +0.000 HD
ENDROOT
BRANCH   4   7
ATOM      7  C   UNL     1       4.033   4.226  19.172  0.00  0.00    +0.000 A 
ATOM      8  C   UNL     1       4.033   2.988  19.831  0.00  0.00    +0.000 A 
ATOM      9  C   UNL     1       3.024   2.647  20.736  0.00  0.00    +0.000 A 
ATOM     10  C   UNL     1       2.006   3.550  21.010  0.00  0.00    +0.000 A 
ATOM     11  C   UNL     1       1.993   4.795  20.378  0.00  0.00    +0.000 A 
ATOM     12  C   UNL     1       3.002   5.132  19.466  0.00  0.00    +0.000 A 
ATOM     13 BR   UNL     1       2.893   6.824  18.611  0.00  0.00    +0.000 Br
ENDBRANCH   4   7
BRANCH   3  14
ATOM     14  C   UNL     1       6.416   4.481  14.864  0.00  0.00    +0.000 A 
ATOM     15  C   UNL     1       5.704   3.585  14.059  0.00  0.00    +0.000 A 
ATOM     16  C   UNL     1       6.011   3.431  12.706  0.00  0.00    +0.000 A 
ATOM     17  C   UNL     1       7.026   4.187  12.132  0.00  0.00    +0.000 A 
ATOM     18  C   UNL     1       7.719   5.112  12.908  0.00  0.00    +0.000 A 
ATOM     19  C   UNL     1       7.410   5.266  14.268  0.00  0.00    +0.000 A 
ENDBRANCH   3  14
TORSDOF 2
ENDMDL
MODEL 8
REMARK VINA RESULT:      -6.3      1.782      6.971
REMARK  Name = 
REMARK  2 active torsions:
REMARK  status: ('A' for Active; 'I' for Inactive)
REMARK    1  A    between atoms: N_3  and  C_4
REMARK    2  A    between atoms: N_10  and  C_11
REMARK                            x       y       z     vdW  Elec       q    Type
REMARK                         _______ _______ _______ _____ _____    ______ ____
ROOT
ATOM      1  O   UNL     1       4.715   3.490  17.904  0.00  0.00    +0.000 OA
ATOM      2  C   UNL     1       4.112   4.530  17.658  0.00  0.00    +0.000 C 
ATOM      3  N   UNL     1       2.992   4.974  18.348  0.00  0.00    +0.000 N 
ATOM      4  N   UNL     1       4.460   5.386  16.628  0.00  0.00    +0.000 N 
ATOM      5  H   UNL     1       2.458   5.709  17.914  0.00  0.00    +0.000 HD
ATOM      6  H   UNL     1       4.241   6.367  16.748  0.00  0.00    +0.000 HD
ENDROOT
BRANCH   4   7
ATOM      7  C   UNL     1       5.410   5.077  15.615  0.00  0.00    +0.000 A 
ATOM      8  C   UNL     1       5.061   4.316  14.489  0.00  0.00    +0.000 A 
ATOM      9  C   UNL     1       5.996   4.024  13.492  0.00  0.00    +0.000 A 
ATOM     10  C   UNL     1       7.293   4.507  13.596  0.00  0.00    +0.000 A 
ATOM     11  C   UNL     1       7.659   5.280  14.700  0.00  0.00    +0.000 A 
ATOM     12  C   UNL     1       6.723   5.566  15.702  0.00  0.00    +0.000 A 
ATOM     13 BR   UNL     1       7.307   6.584  17.195  0.00  0.00    +0.000 Br
ENDBRANCH   4   7
BRANCH   3  14
ATOM     14  C   UNL     1       2.372   4.271  19.413  0.00  0.00    +0.000 A 
ATOM     15  C   UNL     1       2.752   4.409  20.752  0.00  0.00    +0.000 A 
ATOM     16  C   UNL     1       2.158   3.638  21.753  0.00  0.00    +0.000 A 
ATOM     17  C   UNL     1       1.158   2.729  21.429  0.00  0.00    +0.000 A 
ATOM     18  C   UNL     1       0.739   2.606  20.107  0.00  0.00    +0.000 A 
ATOM     19  C   UNL     1       1.338   3.381  19.102  0.00  0.00    +0.000 A 
ENDBRANCH   3  14
TORSDOF 2
ENDMDL
MODEL 9
REMARK VINA RESULT:      -6.2      5.355      8.672
REMARK  Name = 
REMARK  2 active torsions:
REMARK  status: ('A' for Active; 'I' for Inactive)
REMARK    1  A    between atoms: N_3  and  C_4
REMARK    2  A    between atoms: N_10  and  C_11
REMARK                            x       y       z     vdW  Elec       q    Type
REMARK                         _______ _______ _______ _____ _____    ______ ____
ROOT
ATOM      1  O   UNL     1      -0.133   7.244  20.848  0.00  0.00    +0.000 OA
ATOM      2  C   UNL     1       1.042   7.462  21.130  0.00  0.00    +0.000 C 
ATOM      3  N   UNL     1       1.512   8.644  21.685  0.00  0.00    +0.000 N 
ATOM      4  N   UNL     1       2.062   6.556  20.897  0.00  0.00    +0.000 N 
ATOM      5  H   UNL     1       2.509   8.790  21.656  0.00  0.00    +0.000 HD
ATOM      6  H   UNL     1       2.862   6.593  21.515  0.00  0.00    +0.000 HD
ENDROOT
BRANCH   4   7
ATOM      7  C   UNL     1       1.918   5.366  20.131  0.00  0.00    +0.000 A 
ATOM      8  C   UNL     1       1.309   4.220  20.663  0.00  0.00    +0.000 A 
ATOM      9  C   UNL     1       1.161   3.057  19.903  0.00  0.00    +0.000 A 
ATOM     10  C   UNL     1       1.604   3.028  18.587  0.00  0.00    +0.000 A 
ATOM     11  C   UNL     1       2.199   4.162  18.031  0.00  0.00    +0.000 A 
ATOM     12  C   UNL     1       2.353   5.324  18.797  0.00  0.00    +0.000 A 
ATOM     13 BR   UNL     1       3.213   6.812  17.987  0.00  0.00    +0.000 Br
ENDBRANCH   4   7
BRANCH   3  14
ATOM     14  C   UNL     1       0.705   9.775  21.974  0.00  0.00    +0.000 A 
ATOM     15  C   UNL     1      -0.230   9.808  23.014  0.00  0.00    +0.000 A 
ATOM     16  C   UNL     1      -1.051  10.920  23.209  0.00  0.00    +0.000 A 
ATOM     17  C   UNL     1      -0.935  12.026  22.376  0.00  0.00    +0.000 A 
ATOM     18  C   UNL     1       0.018  12.026  21.360  0.00  0.00    +0.000 A 
ATOM     19  C   UNL     1       0.842  10.908  21.164  0.00  0.00    +0.000 A 
ENDBRANCH   3  14
TORSDOF 2
ENDMDL
