MODEL 1
REMARK VINA RESULT:      -8.6      0.000      0.000
REMARK  Name = 
REMARK  8 active torsions:
REMARK  status: ('A' for Active; 'I' for Inactive)
REMARK    1  A    between atoms: C_1  and  C_2
REMARK    2  A    between atoms: C_3  and  C_4
REMARK    3  A    between atoms: C_12  and  C_13
REMARK    4  A    between atoms: C_13  and  O_15
REMARK    5  A    between atoms: O_15  and  C_16
REMARK    6  A    between atoms: C_16  and  C_17
REMARK    7  A    between atoms: N_19  and  C_20
REMARK    8  A    between atoms: C_23  and  C_24
REMARK                            x       y       z     vdW  Elec       q    Type
REMARK                         _______ _______ _______ _____ _____    ______ ____
ROOT
ATOM      1  C   UNL     1      -0.453  10.962  18.559  0.00  0.00    +0.000 C 
ATOM      2  O   UNL     1       0.194  11.964  18.825  0.00  0.00    +0.000 OA
ENDROOT
BRANCH   1   8
ATOM      3  C   UNL     1      -6.443  13.340  20.402  0.00  0.00    +0.000 C 
ATOM      4  C   UNL     1      -5.199  12.739  19.816  0.00  0.00    +0.000 A 
ATOM      5  C   UNL     1      -3.959  12.757  20.340  0.00  0.00    +0.000 A 
ATOM      6  O   UNL     1      -2.832  12.207  19.756  0.00  0.00    +0.000 OA
ATOM      7  C   UNL     1      -2.944  11.569  18.547  0.00  0.00    +0.000 A 
ATOM      8  C   UNL     1      -1.806  11.009  17.945  0.00  0.00    +0.000 A 
ATOM      9  C   UNL     1      -1.919  10.389  16.686  0.00  0.00    +0.000 A 
ATOM     10  C   UNL     1      -3.151  10.301  16.042  0.00  0.00    +0.000 A 
ATOM     11  C   UNL     1      -4.280  10.841  16.645  0.00  0.00    +0.000 A 
ATOM     12  C   UNL     1      -4.171  11.478  17.889  0.00  0.00    +0.000 A 
ATOM     13  C   UNL     1      -5.372  12.057  18.511  0.00  0.00    +0.000 A 
ATOM     14  O   UNL     1      -6.466  11.977  17.966  0.00  0.00    +0.000 OA
BRANCH   5  15
ATOM     15  C   UNL     1      -3.674  13.391  21.635  0.00  0.00    +0.000 A 
ATOM     16  C   UNL     1      -3.264  14.729  21.692  0.00  0.00    +0.000 A 
ATOM     17  C   UNL     1      -2.968  15.321  22.921  0.00  0.00    +0.000 A 
ATOM     18  C   UNL     1      -3.080  14.581  24.098  0.00  0.00    +0.000 A 
ATOM     19  C   UNL     1      -3.490  13.249  24.049  0.00  0.00    +0.000 A 
ATOM     20  C   UNL     1      -3.787  12.654  22.821  0.00  0.00    +0.000 A 
ENDBRANCH   5  15
ENDBRANCH   1   8
BRANCH   1  21
ATOM     21  O   UNL     1       0.024   9.700  18.585  0.00  0.00    +0.000 OA
BRANCH  21  22
ATOM     22  C   UNL     1       1.418   9.581  18.286  0.00  0.00    +0.000 C 
BRANCH  22  23
ATOM     23  C   UNL     1       1.909   8.280  18.912  0.00  0.00    +0.000 C 
ATOM     24  O   UNL     1       1.752   8.080  20.116  0.00  0.00    +0.000 OA
ATOM     25  N   UNL     1       2.484   7.392  18.011  0.00  0.00    +0.000 N 
ATOM     26  H   UNL     1       2.691   7.738  17.080  0.00  0.00    +0.000 HD
BRANCH  25  27
ATOM     27  C   UNL     1       2.866   6.062  18.299  0.00  0.00    +0.000 A 
ATOM     28  C   UNL     1       2.017   4.972  18.096  0.00  0.00    +0.000 A 
ATOM     29  C   UNL     1       2.424   3.667  18.398  0.00  0.00    +0.000 A 
ATOM     30  C   UNL     1       3.699   3.426  18.913  0.00  0.00    +0.000 A 
ATOM     31  C   UNL     1       4.562   4.516  19.106  0.00  0.00    +0.000 A 
ATOM     32  C   UNL     1       4.154   5.822  18.788  0.00  0.00    +0.000 A 
BRANCH  30  33
ATOM     33  C   UNL     1       4.187   2.061  19.263  0.00  0.00    +0.000 C 
ATOM     34  N   UNL     1       3.862   1.017  18.441  0.00  0.00    +0.000 N 
ATOM     35  O   UNL     1       4.866   1.863  20.264  0.00  0.00    +0.000 OA
ATOM     36  H   UNL     1       3.319   1.082  17.596  0.00  0.00    +0.000 HD
ATOM     37  H   UNL     1       4.212   0.105  18.706  0.00  0.00    +0.000 HD
ENDBRANCH  30  33
ENDBRANCH  25  27
ENDBRANCH  22  23
ENDBRANCH  21  22
ENDBRANCH   1  21
TORSDOF 7
ENDMDL
MODEL 2
REMARK VINA RESULT:      -8.5      0.764      1.123
REMARK  Name = 
REMARK  8 active torsions:
REMARK  status: ('A' for Active; 'I' for Inactive)
REMARK    1  A    between atoms: C_1  and  C_2
REMARK    2  A    between atoms: C_3  and  C_4
REMARK    3  A    between atoms: C_12  and  C_13
REMARK    4  A    between atoms: C_13  and  O_15
REMARK    5  A    between atoms: O_15  and  C_16
REMARK    6  A    between atoms: C_16  and  C_17
REMARK    7  A    between atoms: N_19  and  C_20
REMARK    8  A    between atoms: C_23  and  C_24
REMARK                            x       y       z     vdW  Elec       q    Type
REMARK                         _______ _______ _______ _____ _____    ______ ____
ROOT
ATOM      1  C   UNL     1      -0.828  10.256  18.663  0.00  0.00    +0.000 C 
ATOM      2  O   UNL     1      -0.631  10.594  19.822  0.00  0.00    +0.000 OA
ENDROOT
BRANCH   1   8
ATOM      3  C   UNL     1      -6.340  13.837  19.973  0.00  0.00    +0.000 C 
ATOM      4  C   UNL     1      -5.195  12.992  19.495  0.00  0.00    +0.000 A 
ATOM      5  C   UNL     1      -4.048  12.730  20.147  0.00  0.00    +0.000 A 
ATOM      6  O   UNL     1      -3.006  11.961  19.659  0.00  0.00    +0.000 OA
ATOM      7  C   UNL     1      -3.114  11.390  18.417  0.00  0.00    +0.000 A 
ATOM      8  C   UNL     1      -2.061  10.609  17.913  0.00  0.00    +0.000 A 
ATOM      9  C   UNL     1      -2.161  10.057  16.623  0.00  0.00    +0.000 A 
ATOM     10  C   UNL     1      -3.302  10.253  15.848  0.00  0.00    +0.000 A 
ATOM     11  C   UNL     1      -4.351  11.012  16.353  0.00  0.00    +0.000 A 
ATOM     12  C   UNL     1      -4.250  11.582  17.630  0.00  0.00    +0.000 A 
ATOM     13  C   UNL     1      -5.362  12.394  18.148  0.00  0.00    +0.000 A 
ATOM     14  O   UNL     1      -6.379  12.565  17.488  0.00  0.00    +0.000 OA
BRANCH   5  15
ATOM     15  C   UNL     1      -3.782  13.257  21.492  0.00  0.00    +0.000 A 
ATOM     16  C   UNL     1      -3.092  14.465  21.654  0.00  0.00    +0.000 A 
ATOM     17  C   UNL     1      -2.817  14.951  22.934  0.00  0.00    +0.000 A 
ATOM     18  C   UNL     1      -3.230  14.234  24.056  0.00  0.00    +0.000 A 
ATOM     19  C   UNL     1      -3.919  13.031  23.902  0.00  0.00    +0.000 A 
ATOM     20  C   UNL     1      -4.196  12.543  22.624  0.00  0.00    +0.000 A 
ENDBRANCH   5  15
ENDBRANCH   1   8
BRANCH   1  21
ATOM     21  O   UNL     1       0.097   9.709  17.847  0.00  0.00    +0.000 OA
BRANCH  21  22
ATOM     22  C   UNL     1       1.452   9.886  18.274  0.00  0.00    +0.000 C 
BRANCH  22  23
ATOM     23  C   UNL     1       1.923   8.557  18.856  0.00  0.00    +0.000 C 
ATOM     24  O   UNL     1       1.686   8.284  20.033  0.00  0.00    +0.000 OA
ATOM     25  N   UNL     1       2.576   7.734  17.948  0.00  0.00    +0.000 N 
ATOM     26  H   UNL     1       2.842   8.138  17.056  0.00  0.00    +0.000 HD
BRANCH  25  27
ATOM     27  C   UNL     1       2.964   6.395  18.185  0.00  0.00    +0.000 A 
ATOM     28  C   UNL     1       4.249   6.044  18.603  0.00  0.00    +0.000 A 
ATOM     29  C   UNL     1       4.603   4.708  18.823  0.00  0.00    +0.000 A 
ATOM     30  C   UNL     1       3.669   3.689  18.628  0.00  0.00    +0.000 A 
ATOM     31  C   UNL     1       2.371   4.036  18.221  0.00  0.00    +0.000 A 
ATOM     32  C   UNL     1       2.018   5.380  18.016  0.00  0.00    +0.000 A 
BRANCH  30  33
ATOM     33  C   UNL     1       3.988   2.247  18.837  0.00  0.00    +0.000 C 
ATOM     34  N   UNL     1       4.863   1.905  19.831  0.00  0.00    +0.000 N 
ATOM     35  O   UNL     1       3.484   1.374  18.139  0.00  0.00    +0.000 OA
ATOM     36  H   UNL     1       5.318   2.547  20.458  0.00  0.00    +0.000 HD
ATOM     37  H   UNL     1       5.054   0.918  19.947  0.00  0.00    +0.000 HD
ENDBRANCH  30  33
ENDBRANCH  25  27
ENDBRANCH  22  23
ENDBRANCH  21  22
ENDBRANCH   1  21
TORSDOF 7
ENDMDL
MODEL 3
REMARK VINA RESULT:      -8.5      1.735      1.985
REMARK  Name = 
REMARK  8 active torsions:
REMARK  status: ('A' for Active; 'I' for Inactive)
REMARK    1  A    between atoms: C_1  and  C_2
REMARK    2  A    between atoms: C_3  and  C_4
REMARK    3  A    between atoms: C_12  and  C_13
REMARK    4  A    between atoms: C_13  and  O_15
REMARK    5  A    between atoms: O_15  and  C_16
REMARK    6  A    between atoms: C_16  and  C_17
REMARK    7  A    between atoms: N_19  and  C_20
REMARK    8  A    between atoms: C_23  and  C_24
REMARK                            x       y       z     vdW  Elec       q    Type
REMARK                         _______ _______ _______ _____ _____    ______ ____
ROOT
ATOM      1  C   UNL     1       0.046  11.245  19.995  0.00  0.00    +0.000 C 
ATOM      2  O   UNL     1       1.151  11.621  19.632  0.00  0.00    +0.000 OA
ENDROOT
BRANCH   1   8
ATOM      3  C   UNL     1      -6.377  13.149  19.777  0.00  0.00    +0.000 C 
ATOM      4  C   UNL     1      -4.980  12.616  19.650  0.00  0.00    +0.000 A 
ATOM      5  C   UNL     1      -3.935  12.865  20.461  0.00  0.00    +0.000 A 
ATOM      6  O   UNL     1      -2.654  12.369  20.295  0.00  0.00    +0.000 OA
ATOM      7  C   UNL     1      -2.385  11.540  19.236  0.00  0.00    +0.000 A 
ATOM      8  C   UNL     1      -1.088  11.032  19.058  0.00  0.00    +0.000 A 
ATOM      9  C   UNL     1      -0.808  10.212  17.949  0.00  0.00    +0.000 A 
ATOM     10  C   UNL     1      -1.807   9.877  17.039  0.00  0.00    +0.000 A 
ATOM     11  C   UNL     1      -3.095  10.366  17.223  0.00  0.00    +0.000 A 
ATOM     12  C   UNL     1      -3.376  11.199  18.315  0.00  0.00    +0.000 A 
ATOM     13  C   UNL     1      -4.741  11.721  18.492  0.00  0.00    +0.000 A 
ATOM     14  O   UNL     1      -5.636  11.425  17.710  0.00  0.00    +0.000 OA
BRANCH   5  15
ATOM     15  C   UNL     1      -4.060  13.725  21.646  0.00  0.00    +0.000 A 
ATOM     16  C   UNL     1      -4.065  15.118  21.511  0.00  0.00    +0.000 A 
ATOM     17  C   UNL     1      -4.157  15.933  22.641  0.00  0.00    +0.000 A 
ATOM     18  C   UNL     1      -4.246  15.361  23.909  0.00  0.00    +0.000 A 
ATOM     19  C   UNL     1      -4.245  13.973  24.051  0.00  0.00    +0.000 A 
ATOM     20  C   UNL     1      -4.153  13.156  22.922  0.00  0.00    +0.000 A 
ENDBRANCH   5  15
ENDBRANCH   1   8
BRANCH   1  21
ATOM     21  O   UNL     1      -0.249  10.779  21.227  0.00  0.00    +0.000 OA
BRANCH  21  22
ATOM     22  C   UNL     1       0.781   9.989  21.831  0.00  0.00    +0.000 C 
BRANCH  22  23
ATOM     23  C   UNL     1       0.621   8.562  21.317  0.00  0.00    +0.000 C 
ATOM     24  O   UNL     1      -0.481   8.016  21.355  0.00  0.00    +0.000 OA
ATOM     25  N   UNL     1       1.785   8.006  20.802  0.00  0.00    +0.000 N 
ATOM     26  H   UNL     1       2.655   8.500  20.970  0.00  0.00    +0.000 HD
BRANCH  25  27
ATOM     27  C   UNL     1       1.872   6.770  20.120  0.00  0.00    +0.000 A 
ATOM     28  C   UNL     1       2.315   6.667  18.799  0.00  0.00    +0.000 A 
ATOM     29  C   UNL     1       2.383   5.429  18.150  0.00  0.00    +0.000 A 
ATOM     30  C   UNL     1       2.007   4.261  18.815  0.00  0.00    +0.000 A 
ATOM     31  C   UNL     1       1.575   4.356  20.147  0.00  0.00    +0.000 A 
ATOM     32  C   UNL     1       1.522   5.599  20.799  0.00  0.00    +0.000 A 
BRANCH  30  33
ATOM     33  C   UNL     1       2.048   2.915  18.174  0.00  0.00    +0.000 C 
ATOM     34  N   UNL     1       1.713   1.821  18.923  0.00  0.00    +0.000 N 
ATOM     35  O   UNL     1       2.374   2.777  17.001  0.00  0.00    +0.000 OA
ATOM     36  H   UNL     1       1.424   1.835  19.887  0.00  0.00    +0.000 HD
ATOM     37  H   UNL     1       1.748   0.923  18.455  0.00  0.00    +0.000 HD
ENDBRANCH  30  33
ENDBRANCH  25  27
ENDBRANCH  22  23
ENDBRANCH  21  22
ENDBRANCH   1  21
TORSDOF 7
ENDMDL
MODEL 4
REMARK VINA RESULT:      -8.3      1.066      1.287
REMARK  Name = 
REMARK  8 active torsions:
REMARK  status: ('A' for Active; 'I' for Inactive)
REMARK    1  A    between atoms: C_1  and  C_2
REMARK    2  A    between atoms: C_3  and  C_4
REMARK    3  A    between atoms: C_12  and  C_13
REMARK    4  A    between atoms: C_13  and  O_15
REMARK    5  A    between atoms: O_15  and  C_16
REMARK    6  A    between atoms: C_16  and  C_17
REMARK    7  A    between atoms: N_19  and  C_20
REMARK    8  A    between atoms: C_23  and  C_24
REMARK                            x       y       z     vdW  Elec       q    Type
REMARK                         _______ _______ _______ _____ _____    ______ ____
ROOT
ATOM      1  C   UNL     1      -0.361  10.943  18.968  0.00  0.00    +0.000 C 
ATOM      2  O   UNL     1       0.564  11.676  18.647  0.00  0.00    +0.000 OA
ENDROOT
BRANCH   1   8
ATOM      3  C   UNL     1      -6.544  13.304  20.023  0.00  0.00    +0.000 C 
ATOM      4  C   UNL     1      -5.239  12.688  19.613  0.00  0.00    +0.000 A 
ATOM      5  C   UNL     1      -4.055  12.791  20.244  0.00  0.00    +0.000 A 
ATOM      6  O   UNL     1      -2.867  12.223  19.819  0.00  0.00    +0.000 OA
ATOM      7  C   UNL     1      -2.851  11.474  18.671  0.00  0.00    +0.000 A 
ATOM      8  C   UNL     1      -1.650  10.894  18.231  0.00  0.00    +0.000 A 
ATOM      9  C   UNL     1      -1.632  10.158  17.032  0.00  0.00    +0.000 A 
ATOM     10  C   UNL     1      -2.796   9.975  16.288  0.00  0.00    +0.000 A 
ATOM     11  C   UNL     1      -3.988  10.535  16.732  0.00  0.00    +0.000 A 
ATOM     12  C   UNL     1      -4.009  11.286  17.915  0.00  0.00    +0.000 A 
ATOM     13  C   UNL     1      -5.275  11.884  18.367  0.00  0.00    +0.000 A 
ATOM     14  O   UNL     1      -6.311  11.722  17.735  0.00  0.00    +0.000 OA
BRANCH   5  15
ATOM     15  C   UNL     1      -3.905  13.550  21.493  0.00  0.00    +0.000 A 
ATOM     16  C   UNL     1      -3.656  14.927  21.458  0.00  0.00    +0.000 A 
ATOM     17  C   UNL     1      -3.487  15.641  22.647  0.00  0.00    +0.000 A 
ATOM     18  C   UNL     1      -3.568  14.983  23.874  0.00  0.00    +0.000 A 
ATOM     19  C   UNL     1      -3.820  13.612  23.916  0.00  0.00    +0.000 A 
ATOM     20  C   UNL     1      -3.988  12.895  22.729  0.00  0.00    +0.000 A 
ENDBRANCH   5  15
ENDBRANCH   1   8
BRANCH   1  21
ATOM     21  O   UNL     1      -0.284   9.951  19.879  0.00  0.00    +0.000 OA
BRANCH  21  22
ATOM     22  C   UNL     1       1.034   9.693  20.373  0.00  0.00    +0.000 C 
BRANCH  22  23
ATOM     23  C   UNL     1       1.520   8.402  19.723  0.00  0.00    +0.000 C 
ATOM     24  O   UNL     1       1.785   8.382  18.521  0.00  0.00    +0.000 OA
ATOM     25  N   UNL     1       1.653   7.333  20.601  0.00  0.00    +0.000 N 
ATOM     26  H   UNL     1       1.257   7.438  21.529  0.00  0.00    +0.000 HD
BRANCH  25  27
ATOM     27  C   UNL     1       2.235   6.083  20.290  0.00  0.00    +0.000 A 
ATOM     28  C   UNL     1       3.491   5.964  19.690  0.00  0.00    +0.000 A 
ATOM     29  C   UNL     1       4.037   4.711  19.389  0.00  0.00    +0.000 A 
ATOM     30  C   UNL     1       3.332   3.543  19.686  0.00  0.00    +0.000 A 
ATOM     31  C   UNL     1       2.076   3.656  20.302  0.00  0.00    +0.000 A 
ATOM     32  C   UNL     1       1.539   4.915  20.615  0.00  0.00    +0.000 A 
BRANCH  30  33
ATOM     33  C   UNL     1       3.857   2.180  19.381  0.00  0.00    +0.000 C 
ATOM     34  N   UNL     1       3.187   1.407  18.474  0.00  0.00    +0.000 N 
ATOM     35  O   UNL     1       4.867   1.750  19.925  0.00  0.00    +0.000 OA
ATOM     36  H   UNL     1       2.358   1.677  17.971  0.00  0.00    +0.000 HD
ATOM     37  H   UNL     1       3.572   0.490  18.288  0.00  0.00    +0.000 HD
ENDBRANCH  30  33
ENDBRANCH  25  27
ENDBRANCH  22  23
ENDBRANCH  21  22
ENDBRANCH   1  21
TORSDOF 7
ENDMDL
MODEL 5
REMARK VINA RESULT:      -8.2      1.158      1.509
REMARK  Name = 
REMARK  8 active torsions:
REMARK  status: ('A' for Active; 'I' for Inactive)
REMARK    1  A    between atoms: C_1  and  C_2
REMARK    2  A    between atoms: C_3  and  C_4
REMARK    3  A    between atoms: C_12  and  C_13
REMARK    4  A    between atoms: C_13  and  O_15
REMARK    5  A    between atoms: O_15  and  C_16
REMARK    6  A    between atoms: C_16  and  C_17
REMARK    7  A    between atoms: N_19  and  C_20
REMARK    8  A    between atoms: C_23  and  C_24
REMARK                            x       y       z     vdW  Elec       q    Type
REMARK                         _______ _______ _______ _____ _____    ______ ____
ROOT
ATOM      1  C   UNL     1      -0.760  10.382  18.771  0.00  0.00    +0.000 C 
ATOM      2  O   UNL     1      -0.796  10.008  19.935  0.00  0.00    +0.000 OA
ENDROOT
BRANCH   1   8
ATOM      3  C   UNL     1      -6.496  13.715  19.720  0.00  0.00    +0.000 C 
ATOM      4  C   UNL     1      -5.292  12.914  19.321  0.00  0.00    +0.000 A 
ATOM      5  C   UNL     1      -4.158  12.741  20.025  0.00  0.00    +0.000 A 
ATOM      6  O   UNL     1      -3.059  12.009  19.611  0.00  0.00    +0.000 OA
ATOM      7  C   UNL     1      -3.090  11.380  18.393  0.00  0.00    +0.000 A 
ATOM      8  C   UNL     1      -1.980  10.636  17.962  0.00  0.00    +0.000 A 
ATOM      9  C   UNL     1      -2.002  10.024  16.695  0.00  0.00    +0.000 A 
ATOM     10  C   UNL     1      -3.121  10.126  15.872  0.00  0.00    +0.000 A 
ATOM     11  C   UNL     1      -4.227  10.848  16.305  0.00  0.00    +0.000 A 
ATOM     12  C   UNL     1      -4.204  11.477  17.557  0.00  0.00    +0.000 A 
ATOM     13  C   UNL     1      -5.376  12.250  17.998  0.00  0.00    +0.000 A 
ATOM     14  O   UNL     1      -6.375  12.338  17.295  0.00  0.00    +0.000 OA
BRANCH   5  15
ATOM     15  C   UNL     1      -3.971  13.340  21.354  0.00  0.00    +0.000 A 
ATOM     16  C   UNL     1      -4.428  12.676  22.499  0.00  0.00    +0.000 A 
ATOM     17  C   UNL     1      -4.273  13.259  23.758  0.00  0.00    +0.000 A 
ATOM     18  C   UNL     1      -3.659  14.505  23.880  0.00  0.00    +0.000 A 
ATOM     19  C   UNL     1      -3.198  15.170  22.744  0.00  0.00    +0.000 A 
ATOM     20  C   UNL     1      -3.352  14.590  21.483  0.00  0.00    +0.000 A 
ENDBRANCH   5  15
ENDBRANCH   1   8
BRANCH   1  21
ATOM     21  O   UNL     1       0.347  10.808  18.127  0.00  0.00    +0.000 OA
BRANCH  21  22
ATOM     22  C   UNL     1       1.581  10.469  18.769  0.00  0.00    +0.000 C 
BRANCH  22  23
ATOM     23  C   UNL     1       1.931   9.043  18.358  0.00  0.00    +0.000 C 
ATOM     24  O   UNL     1       2.199   8.791  17.183  0.00  0.00    +0.000 OA
ATOM     25  N   UNL     1       1.946   8.132  19.407  0.00  0.00    +0.000 N 
ATOM     26  H   UNL     1       1.560   8.434  20.294  0.00  0.00    +0.000 HD
BRANCH  25  27
ATOM     27  C   UNL     1       2.396   6.794  19.326  0.00  0.00    +0.000 A 
ATOM     28  C   UNL     1       2.103   5.839  20.302  0.00  0.00    +0.000 A 
ATOM     29  C   UNL     1       2.569   4.524  20.194  0.00  0.00    +0.000 A 
ATOM     30  C   UNL     1       3.342   4.135  19.099  0.00  0.00    +0.000 A 
ATOM     31  C   UNL     1       3.627   5.086  18.107  0.00  0.00    +0.000 A 
ATOM     32  C   UNL     1       3.145   6.402  18.213  0.00  0.00    +0.000 A 
BRANCH  30  33
ATOM     33  C   UNL     1       3.874   2.751  18.933  0.00  0.00    +0.000 C 
ATOM     34  N   UNL     1       4.950   2.368  19.686  0.00  0.00    +0.000 N 
ATOM     35  O   UNL     1       3.368   1.964  18.143  0.00  0.00    +0.000 OA
ATOM     36  H   UNL     1       5.425   2.939  20.364  0.00  0.00    +0.000 HD
ATOM     37  H   UNL     1       5.283   1.421  19.551  0.00  0.00    +0.000 HD
ENDBRANCH  30  33
ENDBRANCH  25  27
ENDBRANCH  22  23
ENDBRANCH  21  22
ENDBRANCH   1  21
TORSDOF 7
ENDMDL
MODEL 6
REMARK VINA RESULT:      -8.2      0.577      1.017
REMARK  Name = 
REMARK  8 active torsions:
REMARK  status: ('A' for Active; 'I' for Inactive)
REMARK    1  A    between atoms: C_1  and  C_2
REMARK    2  A    between atoms: C_3  and  C_4
REMARK    3  A    between atoms: C_12  and  C_13
REMARK    4  A    between atoms: C_13  and  O_15
REMARK    5  A    between atoms: O_15  and  C_16
REMARK    6  A    between atoms: C_16  and  C_17
REMARK    7  A    between atoms: N_19  and  C_20
REMARK    8  A    between atoms: C_23  and  C_24
REMARK                            x       y       z     vdW  Elec       q    Type
REMARK                         _______ _______ _______ _____ _____    ______ ____
ROOT
ATOM      1  C   UNL     1      -0.581  11.364  18.568  0.00  0.00    +0.000 C 
ATOM      2  O   UNL     1       0.079  12.391  18.627  0.00  0.00    +0.000 OA
ENDROOT
BRANCH   1   8
ATOM      3  C   UNL     1      -6.694  13.117  20.687  0.00  0.00    +0.000 C 
ATOM      4  C   UNL     1      -5.421  12.654  20.040  0.00  0.00    +0.000 A 
ATOM      5  C   UNL     1      -4.172  12.764  20.527  0.00  0.00    +0.000 A 
ATOM      6  O   UNL     1      -3.020  12.341  19.887  0.00  0.00    +0.000 OA
ATOM      7  C   UNL     1      -3.115  11.744  18.656  0.00  0.00    +0.000 A 
ATOM      8  C   UNL     1      -1.952  11.312  17.997  0.00  0.00    +0.000 A 
ATOM      9  C   UNL     1      -2.051  10.734  16.718  0.00  0.00    +0.000 A 
ATOM     10  C   UNL     1      -3.292  10.560  16.107  0.00  0.00    +0.000 A 
ATOM     11  C   UNL     1      -4.444  10.972  16.766  0.00  0.00    +0.000 A 
ATOM     12  C   UNL     1      -4.351  11.567  18.032  0.00  0.00    +0.000 A 
ATOM     13  C   UNL     1      -5.577  12.010  18.713  0.00  0.00    +0.000 A 
ATOM     14  O   UNL     1      -6.677  11.852  18.198  0.00  0.00    +0.000 OA
BRANCH   5  15
ATOM     15  C   UNL     1      -3.901  13.370  21.838  0.00  0.00    +0.000 A 
ATOM     16  C   UNL     1      -3.903  12.582  22.995  0.00  0.00    +0.000 A 
ATOM     17  C   UNL     1      -3.672  13.165  24.243  0.00  0.00    +0.000 A 
ATOM     18  C   UNL     1      -3.435  14.536  24.340  0.00  0.00    +0.000 A 
ATOM     19  C   UNL     1      -3.428  15.326  23.190  0.00  0.00    +0.000 A 
ATOM     20  C   UNL     1      -3.659  14.746  21.941  0.00  0.00    +0.000 A 
ENDBRANCH   5  15
ENDBRANCH   1   8
BRANCH   1  21
ATOM     21  O   UNL     1      -0.110  10.123  18.810  0.00  0.00    +0.000 OA
BRANCH  21  22
ATOM     22  C   UNL     1       1.206   9.874  18.306  0.00  0.00    +0.000 C 
BRANCH  22  23
ATOM     23  C   UNL     1       1.716   8.600  18.972  0.00  0.00    +0.000 C 
ATOM     24  O   UNL     1       1.500   8.404  20.167  0.00  0.00    +0.000 OA
ATOM     25  N   UNL     1       2.378   7.731  18.113  0.00  0.00    +0.000 N 
ATOM     26  H   UNL     1       2.622   8.078  17.192  0.00  0.00    +0.000 HD
BRANCH  25  27
ATOM     27  C   UNL     1       2.800   6.421  18.437  0.00  0.00    +0.000 A 
ATOM     28  C   UNL     1       2.249   5.690  19.492  0.00  0.00    +0.000 A 
ATOM     29  C   UNL     1       2.694   4.397  19.790  0.00  0.00    +0.000 A 
ATOM     30  C   UNL     1       3.705   3.805  19.032  0.00  0.00    +0.000 A 
ATOM     31  C   UNL     1       4.252   4.529  17.961  0.00  0.00    +0.000 A 
ATOM     32  C   UNL     1       3.792   5.821  17.657  0.00  0.00    +0.000 A 
BRANCH  30  33
ATOM     33  C   UNL     1       4.227   2.435  19.307  0.00  0.00    +0.000 C 
ATOM     34  N   UNL     1       3.925   1.430  18.430  0.00  0.00    +0.000 N 
ATOM     35  O   UNL     1       4.915   2.201  20.294  0.00  0.00    +0.000 OA
ATOM     36  H   UNL     1       3.378   1.527  17.591  0.00  0.00    +0.000 HD
ATOM     37  H   UNL     1       4.299   0.513  18.645  0.00  0.00    +0.000 HD
ENDBRANCH  30  33
ENDBRANCH  25  27
ENDBRANCH  22  23
ENDBRANCH  21  22
ENDBRANCH   1  21
TORSDOF 7
ENDMDL
MODEL 7
REMARK VINA RESULT:      -8.2      1.341      1.596
REMARK  Name = 
REMARK  8 active torsions:
REMARK  status: ('A' for Active; 'I' for Inactive)
REMARK    1  A    between atoms: C_1  and  C_2
REMARK    2  A    between atoms: C_3  and  C_4
REMARK    3  A    between atoms: C_12  and  C_13
REMARK    4  A    between atoms: C_13  and  O_15
REMARK    5  A    between atoms: O_15  and  C_16
REMARK    6  A    between atoms: C_16  and  C_17
REMARK    7  A    between atoms: N_19  and  C_20
REMARK    8  A    between atoms: C_23  and  C_24
REMARK                            x       y       z     vdW  Elec       q    Type
REMARK                         _______ _______ _______ _____ _____    ______ ____
ROOT
ATOM      1  C   UNL     1      -0.807  11.031  18.820  0.00  0.00    +0.000 C 
ATOM      2  O   UNL     1       0.142  11.767  18.591  0.00  0.00    +0.000 OA
ENDROOT
BRANCH   1   8
ATOM      3  C   UNL     1      -6.935  13.491  19.971  0.00  0.00    +0.000 C 
ATOM      4  C   UNL     1      -5.641  12.871  19.531  0.00  0.00    +0.000 A 
ATOM      5  C   UNL     1      -4.468  12.878  20.190  0.00  0.00    +0.000 A 
ATOM      6  O   UNL     1      -3.289  12.312  19.738  0.00  0.00    +0.000 OA
ATOM      7  C   UNL     1      -3.273  11.667  18.527  0.00  0.00    +0.000 A 
ATOM      8  C   UNL     1      -2.082  11.090  18.058  0.00  0.00    +0.000 A 
ATOM      9  C   UNL     1      -2.061  10.463  16.799  0.00  0.00    +0.000 A 
ATOM     10  C   UNL     1      -3.214  10.386  16.021  0.00  0.00    +0.000 A 
ATOM     11  C   UNL     1      -4.398  10.943  16.491  0.00  0.00    +0.000 A 
ATOM     12  C   UNL     1      -4.421  11.586  17.737  0.00  0.00    +0.000 A 
ATOM     13  C   UNL     1      -5.676  12.183  18.218  0.00  0.00    +0.000 A 
ATOM     14  O   UNL     1      -6.704  12.112  17.554  0.00  0.00    +0.000 OA
BRANCH   5  15
ATOM     15  C   UNL     1      -4.320  13.517  21.505  0.00  0.00    +0.000 A 
ATOM     16  C   UNL     1      -3.996  14.876  21.598  0.00  0.00    +0.000 A 
ATOM     17  C   UNL     1      -3.830  15.474  22.849  0.00  0.00    +0.000 A 
ATOM     18  C   UNL     1      -3.989  14.719  24.011  0.00  0.00    +0.000 A 
ATOM     19  C   UNL     1      -4.316  13.365  23.925  0.00  0.00    +0.000 A 
ATOM     20  C   UNL     1      -4.482  12.765  22.676  0.00  0.00    +0.000 A 
ENDBRANCH   5  15
ENDBRANCH   1   8
BRANCH   1  21
ATOM     21  O   UNL     1      -0.774   9.951  19.628  0.00  0.00    +0.000 OA
BRANCH  21  22
ATOM     22  C   UNL     1       0.067  10.088  20.777  0.00  0.00    +0.000 C 
BRANCH  22  23
ATOM     23  C   UNL     1       1.090   8.958  20.731  0.00  0.00    +0.000 C 
ATOM     24  O   UNL     1       1.471   8.431  21.777  0.00  0.00    +0.000 OA
ATOM     25  N   UNL     1       1.485   8.595  19.450  0.00  0.00    +0.000 N 
ATOM     26  H   UNL     1       1.216   9.205  18.686  0.00  0.00    +0.000 HD
BRANCH  25  27
ATOM     27  C   UNL     1       2.289   7.478  19.124  0.00  0.00    +0.000 A 
ATOM     28  C   UNL     1       3.137   7.457  18.014  0.00  0.00    +0.000 A 
ATOM     29  C   UNL     1       3.916   6.333  17.716  0.00  0.00    +0.000 A 
ATOM     30  C   UNL     1       3.861   5.200  18.530  0.00  0.00    +0.000 A 
ATOM     31  C   UNL     1       3.023   5.220  19.655  0.00  0.00    +0.000 A 
ATOM     32  C   UNL     1       2.254   6.357  19.958  0.00  0.00    +0.000 A 
BRANCH  30  33
ATOM     33  C   UNL     1       4.660   3.969  18.259  0.00  0.00    +0.000 C 
ATOM     34  N   UNL     1       5.960   3.924  18.681  0.00  0.00    +0.000 N 
ATOM     35  O   UNL     1       4.173   3.010  17.671  0.00  0.00    +0.000 OA
ATOM     36  H   UNL     1       6.442   4.655  19.177  0.00  0.00    +0.000 HD
ATOM     37  H   UNL     1       6.471   3.072  18.484  0.00  0.00    +0.000 HD
ENDBRANCH  30  33
ENDBRANCH  25  27
ENDBRANCH  22  23
ENDBRANCH  21  22
ENDBRANCH   1  21
TORSDOF 7
ENDMDL
MODEL 8
REMARK VINA RESULT:      -8.2      1.385      1.798
REMARK  Name = 
REMARK  8 active torsions:
REMARK  status: ('A' for Active; 'I' for Inactive)
REMARK    1  A    between atoms: C_1  and  C_2
REMARK    2  A    between atoms: C_3  and  C_4
REMARK    3  A    between atoms: C_12  and  C_13
REMARK    4  A    between atoms: C_13  and  O_15
REMARK    5  A    between atoms: O_15  and  C_16
REMARK    6  A    between atoms: C_16  and  C_17
REMARK    7  A    between atoms: N_19  and  C_20
REMARK    8  A    between atoms: C_23  and  C_24
REMARK                            x       y       z     vdW  Elec       q    Type
REMARK                         _______ _______ _______ _____ _____    ______ ____
ROOT
ATOM      1  C   UNL     1      -0.754  10.987  19.113  0.00  0.00    +0.000 C 
ATOM      2  O   UNL     1       0.156  11.800  19.031  0.00  0.00    +0.000 OA
ENDROOT
BRANCH   1   8
ATOM      3  C   UNL     1      -6.919  13.539  19.745  0.00  0.00    +0.000 C 
ATOM      4  C   UNL     1      -5.604  12.894  19.417  0.00  0.00    +0.000 A 
ATOM      5  C   UNL     1      -4.482  12.908  20.161  0.00  0.00    +0.000 A 
ATOM      6  O   UNL     1      -3.281  12.317  19.812  0.00  0.00    +0.000 OA
ATOM      7  C   UNL     1      -3.183  11.641  18.623  0.00  0.00    +0.000 A 
ATOM      8  C   UNL     1      -1.968  11.039  18.258  0.00  0.00    +0.000 A 
ATOM      9  C   UNL     1      -1.862  10.379  17.020  0.00  0.00    +0.000 A 
ATOM     10  C   UNL     1      -2.956  10.293  16.161  0.00  0.00    +0.000 A 
ATOM     11  C   UNL     1      -4.164  10.874  16.529  0.00  0.00    +0.000 A 
ATOM     12  C   UNL     1      -4.271  11.550  17.752  0.00  0.00    +0.000 A 
ATOM     13  C   UNL     1      -5.551  12.173  18.123  0.00  0.00    +0.000 A 
ATOM     14  O   UNL     1      -6.527  12.094  17.388  0.00  0.00    +0.000 OA
BRANCH   5  15
ATOM     15  C   UNL     1      -4.425  13.579  21.466  0.00  0.00    +0.000 A 
ATOM     16  C   UNL     1      -4.719  12.872  22.639  0.00  0.00    +0.000 A 
ATOM     17  C   UNL     1      -4.689  13.519  23.876  0.00  0.00    +0.000 A 
ATOM     18  C   UNL     1      -4.365  14.874  23.948  0.00  0.00    +0.000 A 
ATOM     19  C   UNL     1      -4.067  15.583  22.784  0.00  0.00    +0.000 A 
ATOM     20  C   UNL     1      -4.096  14.939  21.546  0.00  0.00    +0.000 A 
ENDBRANCH   5  15
ENDBRANCH   1   8
BRANCH   1  21
ATOM     21  O   UNL     1      -0.706   9.839  19.820  0.00  0.00    +0.000 OA
BRANCH  21  22
ATOM     22  C   UNL     1      -0.077   9.950  21.100  0.00  0.00    +0.000 C 
BRANCH  22  23
ATOM     23  C   UNL     1       1.051   8.924  21.144  0.00  0.00    +0.000 C 
ATOM     24  O   UNL     1       1.752   8.825  22.151  0.00  0.00    +0.000 OA
ATOM     25  N   UNL     1       1.159   8.143  20.000  0.00  0.00    +0.000 N 
ATOM     26  H   UNL     1       0.624   8.426  19.187  0.00  0.00    +0.000 HD
BRANCH  25  27
ATOM     27  C   UNL     1       2.005   7.020  19.850  0.00  0.00    +0.000 A 
ATOM     28  C   UNL     1       3.091   7.005  18.972  0.00  0.00    +0.000 A 
ATOM     29  C   UNL     1       3.906   5.875  18.843  0.00  0.00    +0.000 A 
ATOM     30  C   UNL     1       3.649   4.729  19.596  0.00  0.00    +0.000 A 
ATOM     31  C   UNL     1       2.568   4.742  20.490  0.00  0.00    +0.000 A 
ATOM     32  C   UNL     1       1.762   5.884  20.628  0.00  0.00    +0.000 A 
BRANCH  30  33
ATOM     33  C   UNL     1       4.475   3.490  19.495  0.00  0.00    +0.000 C 
ATOM     34  N   UNL     1       5.606   3.517  18.726  0.00  0.00    +0.000 N 
ATOM     35  O   UNL     1       4.159   2.463  20.084  0.00  0.00    +0.000 OA
ATOM     36  H   UNL     1       5.950   4.313  18.215  0.00  0.00    +0.000 HD
ATOM     37  H   UNL     1       6.145   2.661  18.683  0.00  0.00    +0.000 HD
ENDBRANCH  30  33
ENDBRANCH  25  27
ENDBRANCH  22  23
ENDBRANCH  21  22
ENDBRANCH   1  21
TORSDOF 7
ENDMDL
MODEL 9
REMARK VINA RESULT:      -8.2      1.101      1.535
REMARK  Name = 
REMARK  8 active torsions:
REMARK  status: ('A' for Active; 'I' for Inactive)
REMARK    1  A    between atoms: C_1  and  C_2
REMARK    2  A    between atoms: C_3  and  C_4
REMARK    3  A    between atoms: C_12  and  C_13
REMARK    4  A    between atoms: C_13  and  O_15
REMARK    5  A    between atoms: O_15  and  C_16
REMARK    6  A    between atoms: C_16  and  C_17
REMARK    7  A    between atoms: N_19  and  C_20
REMARK    8  A    between atoms: C_23  and  C_24
REMARK                            x       y       z     vdW  Elec       q    Type
REMARK                         _______ _______ _______ _____ _____    ______ ____
ROOT
ATOM      1  C   UNL     1      -0.479  11.006  19.019  0.00  0.00    +0.000 C 
ATOM      2  O   UNL     1       0.216  12.002  19.159  0.00  0.00    +0.000 OA
ENDROOT
BRANCH   1   8
ATOM      3  C   UNL     1      -6.639  13.443  20.040  0.00  0.00    +0.000 C 
ATOM      4  C   UNL     1      -5.337  12.818  19.633  0.00  0.00    +0.000 A 
ATOM      5  C   UNL     1      -4.163  12.877  20.289  0.00  0.00    +0.000 A 
ATOM      6  O   UNL     1      -2.978  12.302  19.868  0.00  0.00    +0.000 OA
ATOM      7  C   UNL     1      -2.953  11.593  18.694  0.00  0.00    +0.000 A 
ATOM      8  C   UNL     1      -1.755  11.006  18.256  0.00  0.00    +0.000 A 
ATOM      9  C   UNL     1      -1.726  10.312  17.033  0.00  0.00    +0.000 A 
ATOM     10  C   UNL     1      -2.878  10.177  16.261  0.00  0.00    +0.000 A 
ATOM     11  C   UNL     1      -4.069  10.743  16.702  0.00  0.00    +0.000 A 
ATOM     12  C   UNL     1      -4.100  11.453  17.910  0.00  0.00    +0.000 A 
ATOM     13  C   UNL     1      -5.363  12.059  18.359  0.00  0.00    +0.000 A 
ATOM     14  O   UNL     1      -6.390  11.938  17.702  0.00  0.00    +0.000 OA
BRANCH   5  15
ATOM     15  C   UNL     1      -4.024  13.588  21.567  0.00  0.00    +0.000 A 
ATOM     16  C   UNL     1      -3.902  12.872  22.765  0.00  0.00    +0.000 A 
ATOM     17  C   UNL     1      -3.797  13.550  23.981  0.00  0.00    +0.000 A 
ATOM     18  C   UNL     1      -3.811  14.945  24.007  0.00  0.00    +0.000 A 
ATOM     19  C   UNL     1      -3.930  15.664  22.817  0.00  0.00    +0.000 A 
ATOM     20  C   UNL     1      -4.035  14.988  21.600  0.00  0.00    +0.000 A 
ENDBRANCH   5  15
ENDBRANCH   1   8
BRANCH   1  21
ATOM     21  O   UNL     1      -0.108   9.750  19.343  0.00  0.00    +0.000 OA
BRANCH  21  22
ATOM     22  C   UNL     1       1.218   9.634  19.869  0.00  0.00    +0.000 C 
BRANCH  22  23
ATOM     23  C   UNL     1       1.810   8.336  19.329  0.00  0.00    +0.000 C 
ATOM     24  O   UNL     1       2.297   8.307  18.199  0.00  0.00    +0.000 OA
ATOM     25  N   UNL     1       1.770   7.273  20.223  0.00  0.00    +0.000 N 
ATOM     26  H   UNL     1       1.208   7.386  21.059  0.00  0.00    +0.000 HD
BRANCH  25  27
ATOM     27  C   UNL     1       2.394   6.018  20.034  0.00  0.00    +0.000 A 
ATOM     28  C   UNL     1       3.632   5.879  19.404  0.00  0.00    +0.000 A 
ATOM     29  C   UNL     1       4.220   4.621  19.227  0.00  0.00    +0.000 A 
ATOM     30  C   UNL     1       3.575   3.470  19.683  0.00  0.00    +0.000 A 
ATOM     31  C   UNL     1       2.337   3.605  20.330  0.00  0.00    +0.000 A 
ATOM     32  C   UNL     1       1.759   4.871  20.518  0.00  0.00    +0.000 A 
BRANCH  30  33
ATOM     33  C   UNL     1       4.146   2.101  19.515  0.00  0.00    +0.000 C 
ATOM     34  N   UNL     1       5.175   1.716  20.329  0.00  0.00    +0.000 N 
ATOM     35  O   UNL     1       3.710   1.328  18.670  0.00  0.00    +0.000 OA
ATOM     36  H   UNL     1       5.592   2.276  21.054  0.00  0.00    +0.000 HD
ATOM     37  H   UNL     1       5.537   0.780  20.191  0.00  0.00    +0.000 HD
ENDBRANCH  30  33
ENDBRANCH  25  27
ENDBRANCH  22  23
ENDBRANCH  21  22
ENDBRANCH   1  21
TORSDOF 7
ENDMDL
