MODEL 1
REMARK VINA RESULT:      -6.1      0.000      0.000
REMARK  Name = 
REMARK  5 active torsions:
REMARK  status: ('A' for Active; 'I' for Inactive)
REMARK    1  A    between atoms: C_1  and  N_2
REMARK    2  A    between atoms: N_4  and  C_5
REMARK    3  A    between atoms: C_5  and  C_6
REMARK    4  A    between atoms: N_10  and  C_11
REMARK    5  A    between atoms: N_10  and  C_12
REMARK                            x       y       z     vdW  Elec       q    Type
REMARK                         _______ _______ _______ _____ _____    ______ ____
ROOT
ATOM      1  C   UNL     1       4.861   5.509  16.376  0.00  0.00    +0.000 C 
ENDROOT
BRANCH   1   2
ATOM      2  C   UNL     1       3.972   5.422  17.589  0.00  0.00    +0.000 A 
ATOM      3  N   UNL     1       3.634   6.528  18.257  0.00  0.00    +0.000 NA
ATOM      4  S   UNL     1       2.596   6.045  19.464  0.00  0.00    +0.000 S 
ATOM      5  C   UNL     1       2.644   4.364  19.020  0.00  0.00    +0.000 A 
ATOM      6  N   UNL     1       1.967   3.352  19.631  0.00  0.00    +0.000 N 
ATOM      7  C   UNL     1       1.057   3.541  20.745  0.00  0.00    +0.000 C 
ATOM      8  C   UNL     1       2.046   2.009  19.079  0.00  0.00    +0.000 C 
ATOM      9  N   UNL     1       3.448   4.198  17.988  0.00  0.00    +0.000 NA
ENDBRANCH   1   2
BRANCH   1  13
ATOM     10  C   UNL     1       6.018   3.608  12.911  0.00  0.00    +0.000 C 
ATOM     11  N   UNL     1       6.342   4.082  14.230  0.00  0.00    +0.000 N 
ATOM     12  C   UNL     1       5.818   3.493  15.421  0.00  0.00    +0.000 C 
ATOM     13  N   UNL     1       5.989   4.536  16.438  0.00  0.00    +0.000 NA
ATOM     14  C   UNL     1       7.244   5.224  16.022  0.00  0.00    +0.000 C 
ATOM     15  C   UNL     1       7.287   5.046  14.516  0.00  0.00    +0.000 C 
ATOM     16  O   UNL     1       8.008   5.636  13.729  0.00  0.00    +0.000 OA
ENDBRANCH   1  13
TORSDOF 2
ENDMDL
MODEL 2
REMARK VINA RESULT:      -6.0      3.022      6.327
REMARK  Name = 
REMARK  5 active torsions:
REMARK  status: ('A' for Active; 'I' for Inactive)
REMARK    1  A    between atoms: C_1  and  N_2
REMARK    2  A    between atoms: N_4  and  C_5
REMARK    3  A    between atoms: C_5  and  C_6
REMARK    4  A    between atoms: N_10  and  C_11
REMARK    5  A    between atoms: N_10  and  C_12
REMARK                            x       y       z     vdW  Elec       q    Type
REMARK                         _______ _______ _______ _____ _____    ______ ____
ROOT
ATOM      1  C   UNL     1       3.748   4.327  18.496  0.00  0.00    +0.000 C 
ENDROOT
BRANCH   1   2
ATOM      2  C   UNL     1       4.869   4.779  17.597  0.00  0.00    +0.000 A 
ATOM      3  N   UNL     1       5.876   5.505  18.089  0.00  0.00    +0.000 NA
ATOM      4  S   UNL     1       6.941   5.739  16.832  0.00  0.00    +0.000 S 
ATOM      5  C   UNL     1       5.995   4.838  15.684  0.00  0.00    +0.000 A 
ATOM      6  N   UNL     1       6.317   4.612  14.380  0.00  0.00    +0.000 N 
ATOM      7  C   UNL     1       7.543   5.070  13.755  0.00  0.00    +0.000 C 
ATOM      8  C   UNL     1       5.458   3.759  13.573  0.00  0.00    +0.000 C 
ATOM      9  N   UNL     1       4.896   4.395  16.262  0.00  0.00    +0.000 NA
ENDBRANCH   1   2
BRANCH   1  13
ATOM     10  C   UNL     1       1.376   2.713  21.450  0.00  0.00    +0.000 C 
ATOM     11  N   UNL     1       2.052   2.568  20.189  0.00  0.00    +0.000 N 
ATOM     12  C   UNL     1       3.473   2.500  20.070  0.00  0.00    +0.000 C 
ATOM     13  N   UNL     1       3.730   2.847  18.667  0.00  0.00    +0.000 NA
ATOM     14  C   UNL     1       2.547   2.291  17.952  0.00  0.00    +0.000 C 
ATOM     15  C   UNL     1       1.432   2.336  18.978  0.00  0.00    +0.000 C 
ATOM     16  O   UNL     1       0.238   2.198  18.770  0.00  0.00    +0.000 OA
ENDBRANCH   1  13
TORSDOF 2
ENDMDL
MODEL 3
REMARK VINA RESULT:      -5.8      4.759      6.431
REMARK  Name = 
REMARK  5 active torsions:
REMARK  status: ('A' for Active; 'I' for Inactive)
REMARK    1  A    between atoms: C_1  and  N_2
REMARK    2  A    between atoms: N_4  and  C_5
REMARK    3  A    between atoms: C_5  and  C_6
REMARK    4  A    between atoms: N_10  and  C_11
REMARK    5  A    between atoms: N_10  and  C_12
REMARK                            x       y       z     vdW  Elec       q    Type
REMARK                         _______ _______ _______ _____ _____    ______ ____
ROOT
ATOM      1  C   UNL     1       2.907   6.090  19.691  0.00  0.00    +0.000 C 
ENDROOT
BRANCH   1   2
ATOM      2  C   UNL     1       2.320   7.424  19.312  0.00  0.00    +0.000 A 
ATOM      3  N   UNL     1       2.435   7.880  18.062  0.00  0.00    +0.000 NA
ATOM      4  S   UNL     1       1.605   9.322  18.013  0.00  0.00    +0.000 S 
ATOM      5  C   UNL     1       1.120   9.255  19.682  0.00  0.00    +0.000 A 
ATOM      6  N   UNL     1       0.359  10.178  20.335  0.00  0.00    +0.000 N 
ATOM      7  C   UNL     1      -0.199  11.360  19.707  0.00  0.00    +0.000 C 
ATOM      8  C   UNL     1      -0.035   9.928  21.713  0.00  0.00    +0.000 C 
ATOM      9  N   UNL     1       1.602   8.164  20.244  0.00  0.00    +0.000 NA
ENDBRANCH   1   2
BRANCH   1  13
ATOM     10  C   UNL     1       4.330   2.237  20.003  0.00  0.00    +0.000 C 
ATOM     11  N   UNL     1       3.219   3.151  20.012  0.00  0.00    +0.000 N 
ATOM     12  C   UNL     1       2.751   3.821  18.841  0.00  0.00    +0.000 C 
ATOM     13  N   UNL     1       1.990   4.961  19.364  0.00  0.00    +0.000 NA
ATOM     14  C   UNL     1       1.402   4.434  20.628  0.00  0.00    +0.000 C 
ATOM     15  C   UNL     1       2.391   3.381  21.091  0.00  0.00    +0.000 C 
ATOM     16  O   UNL     1       2.439   2.855  22.190  0.00  0.00    +0.000 OA
ENDBRANCH   1  13
TORSDOF 2
ENDMDL
MODEL 4
REMARK VINA RESULT:      -5.7      2.568      3.427
REMARK  Name = 
REMARK  5 active torsions:
REMARK  status: ('A' for Active; 'I' for Inactive)
REMARK    1  A    between atoms: C_1  and  N_2
REMARK    2  A    between atoms: N_4  and  C_5
REMARK    3  A    between atoms: C_5  and  C_6
REMARK    4  A    between atoms: N_10  and  C_11
REMARK    5  A    between atoms: N_10  and  C_12
REMARK                            x       y       z     vdW  Elec       q    Type
REMARK                         _______ _______ _______ _____ _____    ______ ____
ROOT
ATOM      1  C   UNL     1       4.917   5.758  16.773  0.00  0.00    +0.000 C 
ENDROOT
BRANCH   1   2
ATOM      2  C   UNL     1       3.912   4.797  17.353  0.00  0.00    +0.000 A 
ATOM      3  N   UNL     1       3.712   3.607  16.781  0.00  0.00    +0.000 NA
ATOM      4  S   UNL     1       2.607   2.811  17.738  0.00  0.00    +0.000 S 
ATOM      5  C   UNL     1       2.461   4.110  18.885  0.00  0.00    +0.000 A 
ATOM      6  N   UNL     1       1.676   4.113  19.999  0.00  0.00    +0.000 N 
ATOM      7  C   UNL     1       0.857   2.991  20.418  0.00  0.00    +0.000 C 
ATOM      8  C   UNL     1       1.736   5.247  20.907  0.00  0.00    +0.000 C 
ATOM      9  N   UNL     1       3.229   5.116  18.520  0.00  0.00    +0.000 NA
ENDBRANCH   1   2
BRANCH   1  13
ATOM     10  C   UNL     1       8.126   7.876  18.248  0.00  0.00    +0.000 C 
ATOM     11  N   UNL     1       7.530   6.613  17.902  0.00  0.00    +0.000 N 
ATOM     12  C   UNL     1       7.292   6.206  16.554  0.00  0.00    +0.000 C 
ATOM     13  N   UNL     1       6.276   5.155  16.674  0.00  0.00    +0.000 NA
ATOM     14  C   UNL     1       6.609   4.498  17.969  0.00  0.00    +0.000 C 
ATOM     15  C   UNL     1       7.252   5.597  18.793  0.00  0.00    +0.000 C 
ATOM     16  O   UNL     1       7.471   5.581  19.993  0.00  0.00    +0.000 OA
ENDBRANCH   1  13
TORSDOF 2
ENDMDL
MODEL 5
REMARK VINA RESULT:      -5.7      3.392      6.119
REMARK  Name = 
REMARK  5 active torsions:
REMARK  status: ('A' for Active; 'I' for Inactive)
REMARK    1  A    between atoms: C_1  and  N_2
REMARK    2  A    between atoms: N_4  and  C_5
REMARK    3  A    between atoms: C_5  and  C_6
REMARK    4  A    between atoms: N_10  and  C_11
REMARK    5  A    between atoms: N_10  and  C_12
REMARK                            x       y       z     vdW  Elec       q    Type
REMARK                         _______ _______ _______ _____ _____    ______ ____
ROOT
ATOM      1  C   UNL     1       3.654   2.667  18.097  0.00  0.00    +0.000 C 
ENDROOT
BRANCH   1   2
ATOM      2  C   UNL     1       4.494   3.797  17.563  0.00  0.00    +0.000 A 
ATOM      3  N   UNL     1       4.217   4.337  16.373  0.00  0.00    +0.000 NA
ATOM      4  S   UNL     1       5.294   5.589  16.167  0.00  0.00    +0.000 S 
ATOM      5  C   UNL     1       6.076   5.349  17.702  0.00  0.00    +0.000 A 
ATOM      6  N   UNL     1       7.105   6.088  18.203  0.00  0.00    +0.000 N 
ATOM      7  C   UNL     1       7.687   7.231  17.528  0.00  0.00    +0.000 C 
ATOM      8  C   UNL     1       7.588   5.813  19.547  0.00  0.00    +0.000 C 
ATOM      9  N   UNL     1       5.525   4.328  18.329  0.00  0.00    +0.000 NA
ENDBRANCH   1   2
BRANCH   1  13
ATOM     10  C   UNL     1       1.423   2.575  21.558  0.00  0.00    +0.000 C 
ATOM     11  N   UNL     1       1.609   3.064  20.218  0.00  0.00    +0.000 N 
ATOM     12  C   UNL     1       1.468   2.238  19.061  0.00  0.00    +0.000 C 
ATOM     13  N   UNL     1       2.196   2.965  18.015  0.00  0.00    +0.000 NA
ATOM     14  C   UNL     1       1.973   4.395  18.369  0.00  0.00    +0.000 C 
ATOM     15  C   UNL     1       1.798   4.386  19.875  0.00  0.00    +0.000 C 
ATOM     16  O   UNL     1       1.823   5.351  20.622  0.00  0.00    +0.000 OA
ENDBRANCH   1  13
TORSDOF 2
ENDMDL
MODEL 6
REMARK VINA RESULT:      -5.7      2.897      6.280
REMARK  Name = 
REMARK  5 active torsions:
REMARK  status: ('A' for Active; 'I' for Inactive)
REMARK    1  A    between atoms: C_1  and  N_2
REMARK    2  A    between atoms: N_4  and  C_5
REMARK    3  A    between atoms: C_5  and  C_6
REMARK    4  A    between atoms: N_10  and  C_11
REMARK    5  A    between atoms: N_10  and  C_12
REMARK                            x       y       z     vdW  Elec       q    Type
REMARK                         _______ _______ _______ _____ _____    ______ ____
ROOT
ATOM      1  C   UNL     1       4.073   3.168  18.104  0.00  0.00    +0.000 C 
ENDROOT
BRANCH   1   2
ATOM      2  C   UNL     1       5.106   3.930  17.315  0.00  0.00    +0.000 A 
ATOM      3  N   UNL     1       5.980   4.723  17.941  0.00  0.00    +0.000 NA
ATOM      4  S   UNL     1       6.994   5.320  16.763  0.00  0.00    +0.000 S 
ATOM      5  C   UNL     1       6.210   4.467  15.466  0.00  0.00    +0.000 A 
ATOM      6  N   UNL     1       6.567   4.502  14.151  0.00  0.00    +0.000 N 
ATOM      7  C   UNL     1       7.701   5.245  13.638  0.00  0.00    +0.000 C 
ATOM      8  C   UNL     1       5.861   3.657  13.201  0.00  0.00    +0.000 C 
ATOM      9  N   UNL     1       5.198   3.767  15.938  0.00  0.00    +0.000 NA
ENDBRANCH   1   2
BRANCH   1  13
ATOM     10  C   UNL     1       1.155   2.954  21.002  0.00  0.00    +0.000 C 
ATOM     11  N   UNL     1       1.648   3.536  19.782  0.00  0.00    +0.000 N 
ATOM     12  C   UNL     1       1.712   2.821  18.548  0.00  0.00    +0.000 C 
ATOM     13  N   UNL     1       2.684   3.577  17.750  0.00  0.00    +0.000 NA
ATOM     14  C   UNL     1       2.469   4.985  18.185  0.00  0.00    +0.000 C 
ATOM     15  C   UNL     1       1.976   4.865  19.614  0.00  0.00    +0.000 C 
ATOM     16  O   UNL     1       1.893   5.761  20.438  0.00  0.00    +0.000 OA
ENDBRANCH   1  13
TORSDOF 2
ENDMDL
MODEL 7
REMARK VINA RESULT:      -5.7      3.339      6.354
REMARK  Name = 
REMARK  5 active torsions:
REMARK  status: ('A' for Active; 'I' for Inactive)
REMARK    1  A    between atoms: C_1  and  N_2
REMARK    2  A    between atoms: N_4  and  C_5
REMARK    3  A    between atoms: C_5  and  C_6
REMARK    4  A    between atoms: N_10  and  C_11
REMARK    5  A    between atoms: N_10  and  C_12
REMARK                            x       y       z     vdW  Elec       q    Type
REMARK                         _______ _______ _______ _____ _____    ______ ____
ROOT
ATOM      1  C   UNL     1       4.344   3.692  19.473  0.00  0.00    +0.000 C 
ENDROOT
BRANCH   1   2
ATOM      2  C   UNL     1       5.380   4.222  18.515  0.00  0.00    +0.000 A 
ATOM      3  N   UNL     1       6.535   4.709  18.976  0.00  0.00    +0.000 NA
ATOM      4  S   UNL     1       7.436   5.115  17.637  0.00  0.00    +0.000 S 
ATOM      5  C   UNL     1       6.225   4.601  16.499  0.00  0.00    +0.000 A 
ATOM      6  N   UNL     1       6.329   4.648  15.140  0.00  0.00    +0.000 N 
ATOM      7  C   UNL     1       7.506   5.111  14.432  0.00  0.00    +0.000 C 
ATOM      8  C   UNL     1       5.258   4.094  14.327  0.00  0.00    +0.000 C 
ATOM      9  N   UNL     1       5.167   4.152  17.144  0.00  0.00    +0.000 NA
ENDBRANCH   1   2
BRANCH   1  13
ATOM     10  C   UNL     1       0.566   2.196  18.797  0.00  0.00    +0.000 C 
ATOM     11  N   UNL     1       1.418   3.171  19.426  0.00  0.00    +0.000 N 
ATOM     12  C   UNL     1       2.098   4.195  18.699  0.00  0.00    +0.000 C 
ATOM     13  N   UNL     1       3.178   4.612  19.601  0.00  0.00    +0.000 NA
ATOM     14  C   UNL     1       2.580   4.449  20.956  0.00  0.00    +0.000 C 
ATOM     15  C   UNL     1       1.568   3.332  20.788  0.00  0.00    +0.000 C 
ATOM     16  O   UNL     1       1.011   2.708  21.675  0.00  0.00    +0.000 OA
ENDBRANCH   1  13
TORSDOF 2
ENDMDL
MODEL 8
REMARK VINA RESULT:      -5.6      1.130      1.130
REMARK  Name = 
REMARK  5 active torsions:
REMARK  status: ('A' for Active; 'I' for Inactive)
REMARK    1  A    between atoms: C_1  and  N_2
REMARK    2  A    between atoms: N_4  and  C_5
REMARK    3  A    between atoms: C_5  and  C_6
REMARK    4  A    between atoms: N_10  and  C_11
REMARK    5  A    between atoms: N_10  and  C_12
REMARK                            x       y       z     vdW  Elec       q    Type
REMARK                         _______ _______ _______ _____ _____    ______ ____
ROOT
ATOM      1  C   UNL     1       4.979   5.537  17.199  0.00  0.00    +0.000 C 
ENDROOT
BRANCH   1   2
ATOM      2  C   UNL     1       3.950   5.213  18.251  0.00  0.00    +0.000 A 
ATOM      3  N   UNL     1       2.827   5.931  18.337  0.00  0.00    +0.000 NA
ATOM      4  S   UNL     1       1.920   5.233  19.545  0.00  0.00    +0.000 S 
ATOM      5  C   UNL     1       3.084   3.986  19.886  0.00  0.00    +0.000 A 
ATOM      6  N   UNL     1       2.956   3.003  20.820  0.00  0.00    +0.000 N 
ATOM      7  C   UNL     1       1.787   2.828  21.660  0.00  0.00    +0.000 C 
ATOM      8  C   UNL     1       3.985   1.979  20.919  0.00  0.00    +0.000 C 
ATOM      9  N   UNL     1       4.132   4.128  19.100  0.00  0.00    +0.000 NA
ENDBRANCH   1   2
BRANCH   1  13
ATOM     10  C   UNL     1       5.666   3.829  13.515  0.00  0.00    +0.000 C 
ATOM     11  N   UNL     1       6.141   4.170  14.829  0.00  0.00    +0.000 N 
ATOM     12  C   UNL     1       5.671   3.533  16.017  0.00  0.00    +0.000 C 
ATOM     13  N   UNL     1       6.019   4.474  17.087  0.00  0.00    +0.000 NA
ATOM     14  C   UNL     1       7.289   5.089  16.608  0.00  0.00    +0.000 C 
ATOM     15  C   UNL     1       7.188   5.028  15.096  0.00  0.00    +0.000 C 
ATOM     16  O   UNL     1       7.888   5.619  14.291  0.00  0.00    +0.000 OA
ENDBRANCH   1  13
TORSDOF 2
ENDMDL
MODEL 9
REMARK VINA RESULT:      -5.5      2.050      2.768
REMARK  Name = 
REMARK  5 active torsions:
REMARK  status: ('A' for Active; 'I' for Inactive)
REMARK    1  A    between atoms: C_1  and  N_2
REMARK    2  A    between atoms: N_4  and  C_5
REMARK    3  A    between atoms: C_5  and  C_6
REMARK    4  A    between atoms: N_10  and  C_11
REMARK    5  A    between atoms: N_10  and  C_12
REMARK                            x       y       z     vdW  Elec       q    Type
REMARK                         _______ _______ _______ _____ _____    ______ ____
ROOT
ATOM      1  C   UNL     1       4.073   4.178  16.349  0.00  0.00    +0.000 C 
ENDROOT
BRANCH   1   2
ATOM      2  C   UNL     1       3.509   3.447  17.539  0.00  0.00    +0.000 A 
ATOM      3  N   UNL     1       3.748   2.143  17.704  0.00  0.00    +0.000 NA
ATOM      4  S   UNL     1       3.039   1.718  19.148  0.00  0.00    +0.000 S 
ATOM      5  C   UNL     1       2.452   3.320  19.487  0.00  0.00    +0.000 A 
ATOM      6  N   UNL     1       1.749   3.700  20.590  0.00  0.00    +0.000 N 
ATOM      7  C   UNL     1       1.413   2.810  21.685  0.00  0.00    +0.000 C 
ATOM      8  C   UNL     1       1.408   5.103  20.766  0.00  0.00    +0.000 C 
ATOM      9  N   UNL     1       2.785   4.134  18.505  0.00  0.00    +0.000 NA
ENDBRANCH   1   2
BRANCH   1  13
ATOM     10  C   UNL     1       7.888   4.527  17.860  0.00  0.00    +0.000 C 
ATOM     11  N   UNL     1       6.772   5.115  17.168  0.00  0.00    +0.000 N 
ATOM     12  C   UNL     1       5.540   5.441  17.813  0.00  0.00    +0.000 C 
ATOM     13  N   UNL     1       4.576   5.534  16.711  0.00  0.00    +0.000 NA
ATOM     14  C   UNL     1       5.391   6.065  15.582  0.00  0.00    +0.000 C 
ATOM     15  C   UNL     1       6.794   5.564  15.864  0.00  0.00    +0.000 C 
ATOM     16  O   UNL     1       7.739   5.559  15.093  0.00  0.00    +0.000 OA
ENDBRANCH   1  13
TORSDOF 2
ENDMDL
