MODEL 1
REMARK VINA RESULT:      -8.0      0.000      0.000
REMARK  Name = 
REMARK  10 active torsions:
REMARK  status: ('A' for Active; 'I' for Inactive)
REMARK    1  A    between atoms: C_1  and  O_2
REMARK    2  A    between atoms: O_2  and  C_3
REMARK    3  A    between atoms: C_3  and  C_5
REMARK    4  A    between atoms: C_5  and  C_6
REMARK    5  A    between atoms: C_6  and  N_7
REMARK    6  A    between atoms: C_9  and  C_10
REMARK    7  A    between atoms: C_12  and  C_13
REMARK    8  A    between atoms: C_16  and  O_17
REMARK    9  A    between atoms: O_17  and  C_18
REMARK   10  A    between atoms: C_24  and  C_25
REMARK                            x       y       z     vdW  Elec       q    Type
REMARK                         _______ _______ _______ _____ _____    ______ ____
ROOT
ATOM      1  C   UNL     1       4.303   5.202  18.756  0.00  0.00    +0.000 A 
ATOM      2  C   UNL     1       3.682   6.458  18.750  0.00  0.00    +0.000 A 
ATOM      3  C   UNL     1       2.575   6.698  19.560  0.00  0.00    +0.000 A 
ATOM      4  N   UNL     1       2.099   5.752  20.402  0.00  0.00    +0.000 NA
ATOM      5  C   UNL     1       2.688   4.539  20.417  0.00  0.00    +0.000 A 
ATOM      6  N   UNL     1       2.058   3.597  21.227  0.00  0.00    +0.000 N 
ATOM      7  C   UNL     1       3.780   4.217  19.604  0.00  0.00    +0.000 A 
ATOM      8  H   UNL     1       1.338   4.062  21.775  0.00  0.00    +0.000 HD
ATOM      9  H   UNL     1       2.680   3.030  21.793  0.00  0.00    +0.000 HD
ENDROOT
BRANCH   3  10
ATOM     10  C   UNL     1       1.821   7.962  19.505  0.00  0.00    +0.000 A 
ATOM     11  C   UNL     1       1.700   8.726  18.336  0.00  0.00    +0.000 A 
ATOM     12  C   UNL     1       0.988   9.929  18.345  0.00  0.00    +0.000 A 
ATOM     13  C   UNL     1       0.411  10.345  19.534  0.00  0.00    +0.000 A 
ATOM     14  N   UNL     1       0.496   9.646  20.682  0.00  0.00    +0.000 NA
ATOM     15  C   UNL     1       1.200   8.493  20.639  0.00  0.00    +0.000 A 
BRANCH  13  16
ATOM     16  O   UNL     1      -0.274  11.542  19.516  0.00  0.00    +0.000 OA
ATOM     17  C   UNL     1       0.348  12.515  18.679  0.00  0.00    +0.000 C 
ENDBRANCH  13  16
ENDBRANCH   3  10
BRANCH   1  20
ATOM     18  N   UNL     1       6.587   4.544  16.027  0.00  0.00    +0.000 N 
ATOM     19  C   UNL     1       5.315   4.717  16.501  0.00  0.00    +0.000 A 
ATOM     20  C   UNL     1       5.431   4.976  17.855  0.00  0.00    +0.000 A 
ATOM     21  C   UNL     1       6.828   4.930  18.083  0.00  0.00    +0.000 A 
ATOM     22  N   UNL     1       7.525   4.683  16.976  0.00  0.00    +0.000 NA
BRANCH  18  23
ATOM     23  C   UNL     1       6.967   4.260  14.655  0.00  0.00    +0.000 C 
BRANCH  23  24
ATOM     24  C   UNL     1       5.777   4.004  13.739  0.00  0.00    +0.000 C 
BRANCH  24  25
ATOM     25  C   UNL     1       6.256   3.612  12.372  0.00  0.00    +0.000 C 
ATOM     26  O   UNL     1       7.231   4.086  11.808  0.00  0.00    +0.000 OA
BRANCH  25  28
ATOM     27  C   UNL     1       4.211   3.161  11.327  0.00  0.00    +0.000 C 
ATOM     28  O   UNL     1       5.436   2.655  11.855  0.00  0.00    +0.000 OA
ENDBRANCH  25  28
ENDBRANCH  24  25
ENDBRANCH  23  24
ENDBRANCH  18  23
ENDBRANCH   1  20
BRANCH   7  29
ATOM     29  C   UNL     1       4.337   2.901  19.692  0.00  0.00    +0.000 C 
ATOM     30  N   UNL     1       4.781   1.831  19.776  0.00  0.00    +0.000 NA
ENDBRANCH   7  29
TORSDOF 8
ENDMDL
MODEL 2
REMARK VINA RESULT:      -7.7      1.240      1.344
REMARK  Name = 
REMARK  10 active torsions:
REMARK  status: ('A' for Active; 'I' for Inactive)
REMARK    1  A    between atoms: C_1  and  O_2
REMARK    2  A    between atoms: O_2  and  C_3
REMARK    3  A    between atoms: C_3  and  C_5
REMARK    4  A    between atoms: C_5  and  C_6
REMARK    5  A    between atoms: C_6  and  N_7
REMARK    6  A    between atoms: C_9  and  C_10
REMARK    7  A    between atoms: C_12  and  C_13
REMARK    8  A    between atoms: C_16  and  O_17
REMARK    9  A    between atoms: O_17  and  C_18
REMARK   10  A    between atoms: C_24  and  C_25
REMARK                            x       y       z     vdW  Elec       q    Type
REMARK                         _______ _______ _______ _____ _____    ______ ____
ROOT
ATOM      1  C   UNL     1       3.598   5.225  18.898  0.00  0.00    +0.000 A 
ATOM      2  C   UNL     1       3.228   6.510  19.317  0.00  0.00    +0.000 A 
ATOM      3  C   UNL     1       2.092   6.694  20.100  0.00  0.00    +0.000 A 
ATOM      4  N   UNL     1       1.344   5.645  20.516  0.00  0.00    +0.000 NA
ATOM      5  C   UNL     1       1.690   4.404  20.119  0.00  0.00    +0.000 A 
ATOM      6  N   UNL     1       0.797   3.403  20.499  0.00  0.00    +0.000 N 
ATOM      7  C   UNL     1       2.797   4.149  19.303  0.00  0.00    +0.000 A 
ATOM      8  H   UNL     1       0.113   3.798  21.139  0.00  0.00    +0.000 HD
ATOM      9  H   UNL     1       1.225   2.554  20.851  0.00  0.00    +0.000 HD
ENDROOT
BRANCH   3  10
ATOM     10  C   UNL     1       1.600   8.033  20.469  0.00  0.00    +0.000 A 
ATOM     11  C   UNL     1       1.294   9.019  19.521  0.00  0.00    +0.000 A 
ATOM     12  C   UNL     1       0.849  10.280  19.928  0.00  0.00    +0.000 A 
ATOM     13  C   UNL     1       0.723  10.528  21.285  0.00  0.00    +0.000 A 
ATOM     14  N   UNL     1       1.002   9.615  22.234  0.00  0.00    +0.000 NA
ATOM     15  C   UNL     1       1.439   8.410  21.805  0.00  0.00    +0.000 A 
BRANCH  13  16
ATOM     16  O   UNL     1       0.295  11.786  21.657  0.00  0.00    +0.000 OA
ATOM     17  C   UNL     1      -0.803  11.743  22.566  0.00  0.00    +0.000 C 
ENDBRANCH  13  16
ENDBRANCH   3  10
BRANCH   1  20
ATOM     18  N   UNL     1       6.019   4.900  16.229  0.00  0.00    +0.000 N 
ATOM     19  C   UNL     1       4.732   5.082  16.654  0.00  0.00    +0.000 A 
ATOM     20  C   UNL     1       4.770   5.081  18.037  0.00  0.00    +0.000 A 
ATOM     21  C   UNL     1       6.141   4.887  18.331  0.00  0.00    +0.000 A 
ATOM     22  N   UNL     1       6.896   4.792  17.239  0.00  0.00    +0.000 NA
BRANCH  18  23
ATOM     23  C   UNL     1       6.475   4.842  14.852  0.00  0.00    +0.000 C 
BRANCH  23  24
ATOM     24  C   UNL     1       5.897   3.668  14.073  0.00  0.00    +0.000 C 
BRANCH  24  25
ATOM     25  C   UNL     1       6.366   3.715  12.648  0.00  0.00    +0.000 C 
ATOM     26  O   UNL     1       7.227   4.468  12.218  0.00  0.00    +0.000 OA
BRANCH  25  28
ATOM     27  C   UNL     1       4.410   3.254  11.449  0.00  0.00    +0.000 C 
ATOM     28  O   UNL     1       5.681   2.799  11.909  0.00  0.00    +0.000 OA
ENDBRANCH  25  28
ENDBRANCH  24  25
ENDBRANCH  23  24
ENDBRANCH  18  23
ENDBRANCH   1  20
BRANCH   7  29
ATOM     29  C   UNL     1       3.082   2.795  18.935  0.00  0.00    +0.000 C 
ATOM     30  N   UNL     1       3.300   1.692  18.643  0.00  0.00    +0.000 NA
ENDBRANCH   7  29
TORSDOF 8
ENDMDL
MODEL 3
REMARK VINA RESULT:      -7.7      0.788      1.071
REMARK  Name = 
REMARK  10 active torsions:
REMARK  status: ('A' for Active; 'I' for Inactive)
REMARK    1  A    between atoms: C_1  and  O_2
REMARK    2  A    between atoms: O_2  and  C_3
REMARK    3  A    between atoms: C_3  and  C_5
REMARK    4  A    between atoms: C_5  and  C_6
REMARK    5  A    between atoms: C_6  and  N_7
REMARK    6  A    between atoms: C_9  and  C_10
REMARK    7  A    between atoms: C_12  and  C_13
REMARK    8  A    between atoms: C_16  and  O_17
REMARK    9  A    between atoms: O_17  and  C_18
REMARK   10  A    between atoms: C_24  and  C_25
REMARK                            x       y       z     vdW  Elec       q    Type
REMARK                         _______ _______ _______ _____ _____    ______ ____
ROOT
ATOM      1  C   UNL     1       4.293   5.255  18.750  0.00  0.00    +0.000 A 
ATOM      2  C   UNL     1       3.682   6.514  18.706  0.00  0.00    +0.000 A 
ATOM      3  C   UNL     1       2.584   6.791  19.516  0.00  0.00    +0.000 A 
ATOM      4  N   UNL     1       2.108   5.878  20.395  0.00  0.00    +0.000 NA
ATOM      5  C   UNL     1       2.688   4.662  20.446  0.00  0.00    +0.000 A 
ATOM      6  N   UNL     1       2.059   3.753  21.294  0.00  0.00    +0.000 N 
ATOM      7  C   UNL     1       3.771   4.303  19.636  0.00  0.00    +0.000 A 
ATOM      8  H   UNL     1       1.346   4.242  21.831  0.00  0.00    +0.000 HD
ATOM      9  H   UNL     1       2.681   3.201  21.873  0.00  0.00    +0.000 HD
ENDROOT
BRANCH   3  10
ATOM     10  C   UNL     1       1.839   8.059  19.424  0.00  0.00    +0.000 A 
ATOM     11  C   UNL     1       1.156   8.620  20.512  0.00  0.00    +0.000 A 
ATOM     12  C   UNL     1       0.448   9.816  20.363  0.00  0.00    +0.000 A 
ATOM     13  C   UNL     1       0.437  10.426  19.119  0.00  0.00    +0.000 A 
ATOM     14  N   UNL     1       1.078   9.928  18.045  0.00  0.00    +0.000 NA
ATOM     15  C   UNL     1       1.744   8.766  18.222  0.00  0.00    +0.000 A 
BRANCH  13  16
ATOM     16  O   UNL     1      -0.281  11.598  19.000  0.00  0.00    +0.000 OA
ATOM     17  C   UNL     1      -0.270  12.370  20.198  0.00  0.00    +0.000 C 
ENDBRANCH  13  16
ENDBRANCH   3  10
BRANCH   1  20
ATOM     18  N   UNL     1       6.548   4.482  16.027  0.00  0.00    +0.000 N 
ATOM     19  C   UNL     1       5.282   4.680  16.506  0.00  0.00    +0.000 A 
ATOM     20  C   UNL     1       5.412   4.989  17.847  0.00  0.00    +0.000 A 
ATOM     21  C   UNL     1       6.811   4.944  18.064  0.00  0.00    +0.000 A 
ATOM     22  N   UNL     1       7.497   4.652  16.961  0.00  0.00    +0.000 NA
BRANCH  18  23
ATOM     23  C   UNL     1       6.914   4.145  14.663  0.00  0.00    +0.000 C 
BRANCH  23  24
ATOM     24  C   UNL     1       5.714   3.903  13.757  0.00  0.00    +0.000 C 
BRANCH  24  25
ATOM     25  C   UNL     1       6.175   3.593  12.363  0.00  0.00    +0.000 C 
ATOM     26  O   UNL     1       7.167   4.070  11.831  0.00  0.00    +0.000 OA
BRANCH  25  28
ATOM     27  C   UNL     1       5.939   1.506  11.333  0.00  0.00    +0.000 C 
ATOM     28  O   UNL     1       5.318   2.709  11.782  0.00  0.00    +0.000 OA
ENDBRANCH  25  28
ENDBRANCH  24  25
ENDBRANCH  23  24
ENDBRANCH  18  23
ENDBRANCH   1  20
BRANCH   7  29
ATOM     29  C   UNL     1       4.318   2.987  19.764  0.00  0.00    +0.000 C 
ATOM     30  N   UNL     1       4.749   1.913  19.873  0.00  0.00    +0.000 NA
ENDBRANCH   7  29
TORSDOF 8
ENDMDL
MODEL 4
REMARK VINA RESULT:      -7.5      0.911      1.147
REMARK  Name = 
REMARK  10 active torsions:
REMARK  status: ('A' for Active; 'I' for Inactive)
REMARK    1  A    between atoms: C_1  and  O_2
REMARK    2  A    between atoms: O_2  and  C_3
REMARK    3  A    between atoms: C_3  and  C_5
REMARK    4  A    between atoms: C_5  and  C_6
REMARK    5  A    between atoms: C_6  and  N_7
REMARK    6  A    between atoms: C_9  and  C_10
REMARK    7  A    between atoms: C_12  and  C_13
REMARK    8  A    between atoms: C_16  and  O_17
REMARK    9  A    between atoms: O_17  and  C_18
REMARK   10  A    between atoms: C_24  and  C_25
REMARK                            x       y       z     vdW  Elec       q    Type
REMARK                         _______ _______ _______ _____ _____    ______ ____
ROOT
ATOM      1  C   UNL     1       4.053   4.978  18.279  0.00  0.00    +0.000 A 
ATOM      2  C   UNL     1       3.595   6.294  18.424  0.00  0.00    +0.000 A 
ATOM      3  C   UNL     1       2.525   6.576  19.269  0.00  0.00    +0.000 A 
ATOM      4  N   UNL     1       1.932   5.606  20.004  0.00  0.00    +0.000 NA
ATOM      5  C   UNL     1       2.365   4.336  19.873  0.00  0.00    +0.000 A 
ATOM      6  N   UNL     1       1.620   3.393  20.579  0.00  0.00    +0.000 N 
ATOM      7  C   UNL     1       3.409   3.975  19.016  0.00  0.00    +0.000 A 
ATOM      8  H   UNL     1       0.963   3.878  21.184  0.00  0.00    +0.000 HD
ATOM      9  H   UNL     1       2.165   2.692  21.068  0.00  0.00    +0.000 HD
ENDROOT
BRANCH   3  10
ATOM     10  C   UNL     1       1.935   7.923  19.368  0.00  0.00    +0.000 A 
ATOM     11  C   UNL     1       1.851   8.798  18.277  0.00  0.00    +0.000 A 
ATOM     12  C   UNL     1       1.299  10.073  18.433  0.00  0.00    +0.000 A 
ATOM     13  C   UNL     1       0.843  10.446  19.686  0.00  0.00    +0.000 A 
ATOM     14  N   UNL     1       0.900   9.642  20.764  0.00  0.00    +0.000 NA
ATOM     15  C   UNL     1       1.448   8.420  20.580  0.00  0.00    +0.000 A 
BRANCH  13  16
ATOM     16  O   UNL     1       0.316  11.715  19.812  0.00  0.00    +0.000 OA
ATOM     17  C   UNL     1       1.090  12.545  20.675  0.00  0.00    +0.000 C 
ENDBRANCH  13  16
ENDBRANCH   3  10
BRANCH   1  20
ATOM     18  N   UNL     1       6.233   4.267  15.479  0.00  0.00    +0.000 N 
ATOM     19  C   UNL     1       4.983   4.489  15.990  0.00  0.00    +0.000 A 
ATOM     20  C   UNL     1       5.147   4.718  17.344  0.00  0.00    +0.000 A 
ATOM     21  C   UNL     1       6.546   4.606  17.533  0.00  0.00    +0.000 A 
ATOM     22  N   UNL     1       7.202   4.348  16.404  0.00  0.00    +0.000 NA
BRANCH  18  23
ATOM     23  C   UNL     1       6.564   3.991  14.093  0.00  0.00    +0.000 C 
BRANCH  23  24
ATOM     24  C   UNL     1       5.359   4.044  13.162  0.00  0.00    +0.000 C 
BRANCH  24  25
ATOM     25  C   UNL     1       5.560   3.107  12.007  0.00  0.00    +0.000 C 
ATOM     26  O   UNL     1       4.661   2.605  11.347  0.00  0.00    +0.000 OA
BRANCH  25  28
ATOM     27  C   UNL     1       7.190   1.731  11.045  0.00  0.00    +0.000 C 
ATOM     28  O   UNL     1       6.891   2.897  11.812  0.00  0.00    +0.000 OA
ENDBRANCH  25  28
ENDBRANCH  24  25
ENDBRANCH  23  24
ENDBRANCH  18  23
ENDBRANCH   1  20
BRANCH   7  29
ATOM     29  C   UNL     1       3.796   2.599  18.946  0.00  0.00    +0.000 C 
ATOM     30  N   UNL     1       4.101   1.479  18.900  0.00  0.00    +0.000 NA
ENDBRANCH   7  29
TORSDOF 8
ENDMDL
MODEL 5
REMARK VINA RESULT:      -7.4      1.353      1.699
REMARK  Name = 
REMARK  10 active torsions:
REMARK  status: ('A' for Active; 'I' for Inactive)
REMARK    1  A    between atoms: C_1  and  O_2
REMARK    2  A    between atoms: O_2  and  C_3
REMARK    3  A    between atoms: C_3  and  C_5
REMARK    4  A    between atoms: C_5  and  C_6
REMARK    5  A    between atoms: C_6  and  N_7
REMARK    6  A    between atoms: C_9  and  C_10
REMARK    7  A    between atoms: C_12  and  C_13
REMARK    8  A    between atoms: C_16  and  O_17
REMARK    9  A    between atoms: O_17  and  C_18
REMARK   10  A    between atoms: C_24  and  C_25
REMARK                            x       y       z     vdW  Elec       q    Type
REMARK                         _______ _______ _______ _____ _____    ______ ____
ROOT
ATOM      1  C   UNL     1       3.644   5.057  19.214  0.00  0.00    +0.000 A 
ATOM      2  C   UNL     1       3.267   6.356  19.578  0.00  0.00    +0.000 A 
ATOM      3  C   UNL     1       2.032   6.589  20.176  0.00  0.00    +0.000 A 
ATOM      4  N   UNL     1       1.185   5.572  20.464  0.00  0.00    +0.000 NA
ATOM      5  C   UNL     1       1.536   4.317  20.118  0.00  0.00    +0.000 A 
ATOM      6  N   UNL     1       0.555   3.355  20.348  0.00  0.00    +0.000 N 
ATOM      7  C   UNL     1       2.745   4.015  19.482  0.00  0.00    +0.000 A 
ATOM      8  H   UNL     1      -0.204   3.779  20.877  0.00  0.00    +0.000 HD
ATOM      9  H   UNL     1       0.886   2.489  20.758  0.00  0.00    +0.000 HD
ENDROOT
BRANCH   3  10
ATOM     10  C   UNL     1       1.545   7.947  20.473  0.00  0.00    +0.000 A 
ATOM     11  C   UNL     1       1.193   8.363  21.764  0.00  0.00    +0.000 A 
ATOM     12  C   UNL     1       0.718   9.660  21.985  0.00  0.00    +0.000 A 
ATOM     13  C   UNL     1       0.603  10.514  20.902  0.00  0.00    +0.000 A 
ATOM     14  N   UNL     1       0.930  10.163  19.644  0.00  0.00    +0.000 NA
ATOM     15  C   UNL     1       1.377   8.900  19.465  0.00  0.00    +0.000 A 
BRANCH  13  16
ATOM     16  O   UNL     1       0.119  11.782  21.149  0.00  0.00    +0.000 OA
ATOM     17  C   UNL     1      -0.858  11.802  22.187  0.00  0.00    +0.000 C 
ENDBRANCH  13  16
ENDBRANCH   3  10
BRANCH   1  20
ATOM     18  N   UNL     1       6.421   4.492  16.964  0.00  0.00    +0.000 N 
ATOM     19  C   UNL     1       5.080   4.646  17.186  0.00  0.00    +0.000 A 
ATOM     20  C   UNL     1       4.928   4.863  18.544  0.00  0.00    +0.000 A 
ATOM     21  C   UNL     1       6.254   4.813  19.038  0.00  0.00    +0.000 A 
ATOM     22  N   UNL     1       7.156   4.604  18.082  0.00  0.00    +0.000 NA
BRANCH  18  23
ATOM     23  C   UNL     1       7.064   4.253  15.685  0.00  0.00    +0.000 C 
BRANCH  23  24
ATOM     24  C   UNL     1       6.197   4.635  14.492  0.00  0.00    +0.000 C 
BRANCH  24  25
ATOM     25  C   UNL     1       7.023   4.652  13.239  0.00  0.00    +0.000 C 
ATOM     26  O   UNL     1       7.831   5.520  12.944  0.00  0.00    +0.000 OA
BRANCH  25  28
ATOM     27  C   UNL     1       5.344   3.416  12.176  0.00  0.00    +0.000 C 
ATOM     28  O   UNL     1       6.731   3.559  12.482  0.00  0.00    +0.000 OA
ENDBRANCH  25  28
ENDBRANCH  24  25
ENDBRANCH  23  24
ENDBRANCH  18  23
ENDBRANCH   1  20
BRANCH   7  29
ATOM     29  C   UNL     1       3.027   2.651  19.155  0.00  0.00    +0.000 C 
ATOM     30  N   UNL     1       3.271   1.545  18.894  0.00  0.00    +0.000 NA
ENDBRANCH   7  29
TORSDOF 8
ENDMDL
MODEL 6
REMARK VINA RESULT:      -7.2      1.182      1.250
REMARK  Name = 
REMARK  10 active torsions:
REMARK  status: ('A' for Active; 'I' for Inactive)
REMARK    1  A    between atoms: C_1  and  O_2
REMARK    2  A    between atoms: O_2  and  C_3
REMARK    3  A    between atoms: C_3  and  C_5
REMARK    4  A    between atoms: C_5  and  C_6
REMARK    5  A    between atoms: C_6  and  N_7
REMARK    6  A    between atoms: C_9  and  C_10
REMARK    7  A    between atoms: C_12  and  C_13
REMARK    8  A    between atoms: C_16  and  O_17
REMARK    9  A    between atoms: O_17  and  C_18
REMARK   10  A    between atoms: C_24  and  C_25
REMARK                            x       y       z     vdW  Elec       q    Type
REMARK                         _______ _______ _______ _____ _____    ______ ____
ROOT
ATOM      1  C   UNL     1       4.108   6.310  18.370  0.00  0.00    +0.000 A 
ATOM      2  C   UNL     1       3.341   7.481  18.313  0.00  0.00    +0.000 A 
ATOM      3  C   UNL     1       2.247   7.646  19.157  0.00  0.00    +0.000 A 
ATOM      4  N   UNL     1       1.922   6.712  20.081  0.00  0.00    +0.000 NA
ATOM      5  C   UNL     1       2.652   5.581  20.146  0.00  0.00    +0.000 A 
ATOM      6  N   UNL     1       2.173   4.630  21.045  0.00  0.00    +0.000 N 
ATOM      7  C   UNL     1       3.742   5.332  19.304  0.00  0.00    +0.000 A 
ATOM      8  H   UNL     1       1.425   5.045  21.595  0.00  0.00    +0.000 HD
ATOM      9  H   UNL     1       2.881   4.181  21.616  0.00  0.00    +0.000 HD
ENDROOT
BRANCH   3  10
ATOM     10  C   UNL     1       1.345   8.807  19.057  0.00  0.00    +0.000 A 
ATOM     11  C   UNL     1       0.847   9.279  17.835  0.00  0.00    +0.000 A 
ATOM     12  C   UNL     1       0.009  10.398  17.797  0.00  0.00    +0.000 A 
ATOM     13  C   UNL     1      -0.311  11.024  18.990  0.00  0.00    +0.000 A 
ATOM     14  N   UNL     1       0.139  10.607  20.189  0.00  0.00    +0.000 NA
ATOM     15  C   UNL     1       0.954   9.529  20.188  0.00  0.00    +0.000 A 
BRANCH  13  16
ATOM     16  O   UNL     1      -1.129  12.132  18.919  0.00  0.00    +0.000 OA
ATOM     17  C   UNL     1      -2.503  11.812  19.125  0.00  0.00    +0.000 C 
ENDBRANCH  13  16
ENDBRANCH   3  10
BRANCH   1  20
ATOM     18  N   UNL     1       6.384   5.549  15.661  0.00  0.00    +0.000 N 
ATOM     19  C   UNL     1       5.138   5.491  16.222  0.00  0.00    +0.000 A 
ATOM     20  C   UNL     1       5.219   6.155  17.432  0.00  0.00    +0.000 A 
ATOM     21  C   UNL     1       6.572   6.569  17.493  0.00  0.00    +0.000 A 
ATOM     22  N   UNL     1       7.270   6.215  16.417  0.00  0.00    +0.000 NA
BRANCH  18  23
ATOM     23  C   UNL     1       6.782   4.995  14.380  0.00  0.00    +0.000 C 
BRANCH  23  24
ATOM     24  C   UNL     1       6.201   3.613  14.112  0.00  0.00    +0.000 C 
BRANCH  24  25
ATOM     25  C   UNL     1       5.922   3.446  12.647  0.00  0.00    +0.000 C 
ATOM     26  O   UNL     1       6.756   3.147  11.805  0.00  0.00    +0.000 OA
BRANCH  25  28
ATOM     27  C   UNL     1       4.149   3.186  11.143  0.00  0.00    +0.000 C 
ATOM     28  O   UNL     1       4.605   3.685  12.400  0.00  0.00    +0.000 OA
ENDBRANCH  25  28
ENDBRANCH  24  25
ENDBRANCH  23  24
ENDBRANCH  18  23
ENDBRANCH   1  20
BRANCH   7  29
ATOM     29  C   UNL     1       4.455   4.100  19.450  0.00  0.00    +0.000 C 
ATOM     30  N   UNL     1       5.022   3.092  19.565  0.00  0.00    +0.000 NA
ENDBRANCH   7  29
TORSDOF 8
ENDMDL
MODEL 7
REMARK VINA RESULT:      -7.1      0.955      1.018
REMARK  Name = 
REMARK  10 active torsions:
REMARK  status: ('A' for Active; 'I' for Inactive)
REMARK    1  A    between atoms: C_1  and  O_2
REMARK    2  A    between atoms: O_2  and  C_3
REMARK    3  A    between atoms: C_3  and  C_5
REMARK    4  A    between atoms: C_5  and  C_6
REMARK    5  A    between atoms: C_6  and  N_7
REMARK    6  A    between atoms: C_9  and  C_10
REMARK    7  A    between atoms: C_12  and  C_13
REMARK    8  A    between atoms: C_16  and  O_17
REMARK    9  A    between atoms: O_17  and  C_18
REMARK   10  A    between atoms: C_24  and  C_25
REMARK                            x       y       z     vdW  Elec       q    Type
REMARK                         _______ _______ _______ _____ _____    ______ ____
ROOT
ATOM      1  C   UNL     1       3.870   5.830  18.525  0.00  0.00    +0.000 A 
ATOM      2  C   UNL     1       3.190   7.055  18.570  0.00  0.00    +0.000 A 
ATOM      3  C   UNL     1       2.236   7.293  19.555  0.00  0.00    +0.000 A 
ATOM      4  N   UNL     1       1.972   6.378  20.517  0.00  0.00    +0.000 NA
ATOM      5  C   UNL     1       2.619   5.196  20.484  0.00  0.00    +0.000 A 
ATOM      6  N   UNL     1       2.198   4.276  21.442  0.00  0.00    +0.000 N 
ATOM      7  C   UNL     1       3.563   4.875  19.503  0.00  0.00    +0.000 A 
ATOM      8  H   UNL     1       1.564   4.740  22.089  0.00  0.00    +0.000 HD
ATOM      9  H   UNL     1       2.942   3.772  21.912  0.00  0.00    +0.000 HD
ENDROOT
BRANCH   3  10
ATOM     10  C   UNL     1       1.417   8.517  19.576  0.00  0.00    +0.000 A 
ATOM     11  C   UNL     1       1.268   9.352  18.460  0.00  0.00    +0.000 A 
ATOM     12  C   UNL     1       0.493  10.513  18.542  0.00  0.00    +0.000 A 
ATOM     13  C   UNL     1      -0.117  10.816  19.748  0.00  0.00    +0.000 A 
ATOM     14  N   UNL     1      -0.007  10.046  20.847  0.00  0.00    +0.000 NA
ATOM     15  C   UNL     1       0.757   8.936  20.735  0.00  0.00    +0.000 A 
BRANCH  13  16
ATOM     16  O   UNL     1      -0.864  11.974  19.803  0.00  0.00    +0.000 OA
ATOM     17  C   UNL     1      -1.172  12.487  18.508  0.00  0.00    +0.000 C 
ENDBRANCH  13  16
ENDBRANCH   3  10
BRANCH   1  20
ATOM     18  N   UNL     1       5.867   4.660  15.744  0.00  0.00    +0.000 N 
ATOM     19  C   UNL     1       4.799   4.519  16.586  0.00  0.00    +0.000 A 
ATOM     20  C   UNL     1       4.828   5.602  17.445  0.00  0.00    +0.000 A 
ATOM     21  C   UNL     1       5.967   6.329  17.023  0.00  0.00    +0.000 A 
ATOM     22  N   UNL     1       6.585   5.767  15.986  0.00  0.00    +0.000 NA
BRANCH  18  23
ATOM     23  C   UNL     1       6.241   3.766  14.663  0.00  0.00    +0.000 C 
BRANCH  23  24
ATOM     24  C   UNL     1       5.547   4.087  13.345  0.00  0.00    +0.000 C 
BRANCH  24  25
ATOM     25  C   UNL     1       6.293   3.459  12.204  0.00  0.00    +0.000 C 
ATOM     26  O   UNL     1       7.297   3.923  11.684  0.00  0.00    +0.000 OA
BRANCH  25  28
ATOM     27  C   UNL     1       6.496   1.430  11.057  0.00  0.00    +0.000 C 
ATOM     28  O   UNL     1       5.677   2.303  11.834  0.00  0.00    +0.000 OA
ENDBRANCH  25  28
ENDBRANCH  24  25
ENDBRANCH  23  24
ENDBRANCH  18  23
ENDBRANCH   1  20
BRANCH   7  29
ATOM     29  C   UNL     1       4.197   3.593  19.553  0.00  0.00    +0.000 C 
ATOM     30  N   UNL     1       4.712   2.553  19.609  0.00  0.00    +0.000 NA
ENDBRANCH   7  29
TORSDOF 8
ENDMDL
MODEL 8
REMARK VINA RESULT:      -7.1      1.948      8.505
REMARK  Name = 
REMARK  10 active torsions:
REMARK  status: ('A' for Active; 'I' for Inactive)
REMARK    1  A    between atoms: C_1  and  O_2
REMARK    2  A    between atoms: O_2  and  C_3
REMARK    3  A    between atoms: C_3  and  C_5
REMARK    4  A    between atoms: C_5  and  C_6
REMARK    5  A    between atoms: C_6  and  N_7
REMARK    6  A    between atoms: C_9  and  C_10
REMARK    7  A    between atoms: C_12  and  C_13
REMARK    8  A    between atoms: C_16  and  O_17
REMARK    9  A    between atoms: O_17  and  C_18
REMARK   10  A    between atoms: C_24  and  C_25
REMARK                            x       y       z     vdW  Elec       q    Type
REMARK                         _______ _______ _______ _____ _____    ______ ____
ROOT
ATOM      1  C   UNL     1       2.835   5.026  18.833  0.00  0.00    +0.000 A 
ATOM      2  C   UNL     1       3.744   5.363  17.821  0.00  0.00    +0.000 A 
ATOM      3  C   UNL     1       4.374   4.365  17.082  0.00  0.00    +0.000 A 
ATOM      4  N   UNL     1       4.097   3.056  17.284  0.00  0.00    +0.000 NA
ATOM      5  C   UNL     1       3.225   2.720  18.256  0.00  0.00    +0.000 A 
ATOM      6  N   UNL     1       3.091   1.349  18.468  0.00  0.00    +0.000 N 
ATOM      7  C   UNL     1       2.583   3.667  19.061  0.00  0.00    +0.000 A 
ATOM      8  H   UNL     1       3.587   0.852  17.732  0.00  0.00    +0.000 HD
ATOM      9  H   UNL     1       2.140   1.022  18.594  0.00  0.00    +0.000 HD
ENDROOT
BRANCH   3  10
ATOM     10  C   UNL     1       5.418   4.665  16.087  0.00  0.00    +0.000 A 
ATOM     11  C   UNL     1       5.439   4.090  14.809  0.00  0.00    +0.000 A 
ATOM     12  C   UNL     1       6.465   4.395  13.911  0.00  0.00    +0.000 A 
ATOM     13  C   UNL     1       7.457   5.273  14.316  0.00  0.00    +0.000 A 
ATOM     14  N   UNL     1       7.481   5.853  15.531  0.00  0.00    +0.000 NA
ATOM     15  C   UNL     1       6.478   5.529  16.377  0.00  0.00    +0.000 A 
BRANCH  13  16
ATOM     16  O   UNL     1       8.464   5.545  13.413  0.00  0.00    +0.000 OA
ATOM     17  C   UNL     1       7.980   5.685  12.080  0.00  0.00    +0.000 C 
ENDBRANCH  13  16
ENDBRANCH   3  10
BRANCH   1  20
ATOM     18  N   UNL     1       1.533   8.105  20.219  0.00  0.00    +0.000 N 
ATOM     19  C   UNL     1       2.129   7.416  19.198  0.00  0.00    +0.000 A 
ATOM     20  C   UNL     1       2.233   6.102  19.618  0.00  0.00    +0.000 A 
ATOM     21  C   UNL     1       1.667   6.123  20.916  0.00  0.00    +0.000 A 
ATOM     22  N   UNL     1       1.231   7.329  21.271  0.00  0.00    +0.000 NA
BRANCH  18  23
ATOM     23  C   UNL     1       1.207   9.519  20.233  0.00  0.00    +0.000 C 
BRANCH  23  24
ATOM     24  C   UNL     1      -0.129   9.825  20.897  0.00  0.00    +0.000 C 
BRANCH  24  25
ATOM     25  C   UNL     1       0.094  10.523  22.206  0.00  0.00    +0.000 C 
ATOM     26  O   UNL     1       0.325   9.963  23.268  0.00  0.00    +0.000 OA
BRANCH  25  28
ATOM     27  C   UNL     1      -1.010  12.263  21.099  0.00  0.00    +0.000 C 
ATOM     28  O   UNL     1      -0.006  11.869  22.032  0.00  0.00    +0.000 OA
ENDBRANCH  25  28
ENDBRANCH  24  25
ENDBRANCH  23  24
ENDBRANCH  18  23
ENDBRANCH   1  20
BRANCH   7  29
ATOM     29  C   UNL     1       1.673   3.210  20.067  0.00  0.00    +0.000 C 
ATOM     30  N   UNL     1       0.924   2.836  20.872  0.00  0.00    +0.000 NA
ENDBRANCH   7  29
TORSDOF 8
ENDMDL
MODEL 9
REMARK VINA RESULT:      -7.0      1.628      2.148
REMARK  Name = 
REMARK  10 active torsions:
REMARK  status: ('A' for Active; 'I' for Inactive)
REMARK    1  A    between atoms: C_1  and  O_2
REMARK    2  A    between atoms: O_2  and  C_3
REMARK    3  A    between atoms: C_3  and  C_5
REMARK    4  A    between atoms: C_5  and  C_6
REMARK    5  A    between atoms: C_6  and  N_7
REMARK    6  A    between atoms: C_9  and  C_10
REMARK    7  A    between atoms: C_12  and  C_13
REMARK    8  A    between atoms: C_16  and  O_17
REMARK    9  A    between atoms: O_17  and  C_18
REMARK   10  A    between atoms: C_24  and  C_25
REMARK                            x       y       z     vdW  Elec       q    Type
REMARK                         _______ _______ _______ _____ _____    ______ ____
ROOT
ATOM      1  C   UNL     1       3.106   5.845  18.667  0.00  0.00    +0.000 A 
ATOM      2  C   UNL     1       2.720   7.053  19.265  0.00  0.00    +0.000 A 
ATOM      3  C   UNL     1       1.735   7.067  20.249  0.00  0.00    +0.000 A 
ATOM      4  N   UNL     1       1.161   5.922  20.688  0.00  0.00    +0.000 NA
ATOM      5  C   UNL     1       1.524   4.754  20.121  0.00  0.00    +0.000 A 
ATOM      6  N   UNL     1       0.798   3.647  20.555  0.00  0.00    +0.000 N 
ATOM      7  C   UNL     1       2.479   4.670  19.102  0.00  0.00    +0.000 A 
ATOM      8  H   UNL     1       0.213   3.923  21.340  0.00  0.00    +0.000 HD
ATOM      9  H   UNL     1       1.348   2.816  20.744  0.00  0.00    +0.000 HD
ENDROOT
BRANCH   3  10
ATOM     10  C   UNL     1       1.217   8.319  20.825  0.00  0.00    +0.000 A 
ATOM     11  C   UNL     1       0.786   8.425  22.154  0.00  0.00    +0.000 A 
ATOM     12  C   UNL     1       0.284   9.634  22.643  0.00  0.00    +0.000 A 
ATOM     13  C   UNL     1       0.221  10.718  21.783  0.00  0.00    +0.000 A 
ATOM     14  N   UNL     1       0.624  10.669  20.499  0.00  0.00    +0.000 NA
ATOM     15  C   UNL     1       1.095   9.481  20.057  0.00  0.00    +0.000 A 
BRANCH  13  16
ATOM     16  O   UNL     1      -0.291  11.895  22.289  0.00  0.00    +0.000 OA
ATOM     17  C   UNL     1      -0.140  12.989  21.388  0.00  0.00    +0.000 C 
ENDBRANCH  13  16
ENDBRANCH   3  10
BRANCH   1  20
ATOM     18  N   UNL     1       5.764   5.281  16.278  0.00  0.00    +0.000 N 
ATOM     19  C   UNL     1       4.983   4.850  17.315  0.00  0.00    +0.000 A 
ATOM     20  C   UNL     1       4.107   5.881  17.603  0.00  0.00    +0.000 A 
ATOM     21  C   UNL     1       4.460   6.887  16.671  0.00  0.00    +0.000 A 
ATOM     22  N   UNL     1       5.451   6.518  15.863  0.00  0.00    +0.000 NA
BRANCH  18  23
ATOM     23  C   UNL     1       6.824   4.534  15.625  0.00  0.00    +0.000 C 
BRANCH  23  24
ATOM     24  C   UNL     1       6.479   4.113  14.203  0.00  0.00    +0.000 C 
BRANCH  24  25
ATOM     25  C   UNL     1       7.387   4.802  13.227  0.00  0.00    +0.000 C 
ATOM     26  O   UNL     1       8.153   5.713  13.506  0.00  0.00    +0.000 OA
BRANCH  25  28
ATOM     27  C   UNL     1       6.460   3.059  11.972  0.00  0.00    +0.000 C 
ATOM     28  O   UNL     1       7.221   4.265  11.987  0.00  0.00    +0.000 OA
ENDBRANCH  25  28
ENDBRANCH  24  25
ENDBRANCH  23  24
ENDBRANCH  18  23
ENDBRANCH   1  20
BRANCH   7  29
ATOM     29  C   UNL     1       2.797   3.383  18.563  0.00  0.00    +0.000 C 
ATOM     30  N   UNL     1       3.042   2.332  18.132  0.00  0.00    +0.000 NA
ENDBRANCH   7  29
TORSDOF 8
ENDMDL
