MODEL 1
REMARK VINA RESULT:      -7.3      0.000      0.000
REMARK  Name = 
REMARK  3 active torsions:
REMARK  status: ('A' for Active; 'I' for Inactive)
REMARK    1  A    between atoms: C_1  and  C_2
REMARK    2  A    between atoms: C_2  and  C_3
REMARK    3  A    between atoms: C_9  and  C_10
REMARK                            x       y       z     vdW  Elec       q    Type
REMARK                         _______ _______ _______ _____ _____    ______ ____
ROOT
ATOM      1  C   UNL     1       6.724   5.187  15.983  0.00  0.00    +0.000 C 
ATOM      2  N   UNL     1       7.477   6.264  16.080  0.00  0.00    +0.000 NA
ATOM      3  S   UNL     1       7.416   6.836  17.688  0.00  0.00    +0.000 S 
ATOM      4  C   UNL     1       6.463   5.474  18.242  0.00  0.00    +0.000 C 
ATOM      5  N   UNL     1       6.242   5.199  19.492  0.00  0.00    +0.000 NA
ATOM      6  C   UNL     1       5.538   3.906  19.512  0.00  0.00    +0.000 C 
ATOM      7  C   UNL     1       4.399   3.922  18.465  0.00  0.00    +0.000 C 
ATOM      8  N   UNL     1       4.724   4.169  17.206  0.00  0.00    +0.000 NA
ATOM      9  N   UNL     1       6.023   4.770  17.130  0.00  0.00    +0.000 N 
ENDROOT
BRANCH   7  10
ATOM     10  C   UNL     1       2.996   3.674  18.973  0.00  0.00    +0.000 A 
ATOM     11  C   UNL     1       2.183   2.697  18.354  0.00  0.00    +0.000 A 
ATOM     12  C   UNL     1       0.881   2.422  18.788  0.00  0.00    +0.000 A 
ATOM     13  C   UNL     1       0.368   3.104  19.884  0.00  0.00    +0.000 A 
ATOM     14  C   UNL     1       1.159   4.047  20.536  0.00  0.00    +0.000 A 
ATOM     15  C   UNL     1       2.468   4.332  20.088  0.00  0.00    +0.000 A 
ENDBRANCH   7  10
BRANCH   1  17
ATOM     16  C   UNL     1       5.530   4.325  14.013  0.00  0.00    +0.000 C 
ATOM     17  C   UNL     1       6.885   4.366  14.728  0.00  0.00    +0.000 C 
ENDBRANCH   1  17
TORSDOF 2
ENDMDL
MODEL 2
REMARK VINA RESULT:      -7.3      0.083      1.165
REMARK  Name = 
REMARK  3 active torsions:
REMARK  status: ('A' for Active; 'I' for Inactive)
REMARK    1  A    between atoms: C_1  and  C_2
REMARK    2  A    between atoms: C_2  and  C_3
REMARK    3  A    between atoms: C_9  and  C_10
REMARK                            x       y       z     vdW  Elec       q    Type
REMARK                         _______ _______ _______ _____ _____    ______ ____
ROOT
ATOM      1  C   UNL     1       6.741   5.199  15.990  0.00  0.00    +0.000 C 
ATOM      2  N   UNL     1       7.470   6.291  16.106  0.00  0.00    +0.000 NA
ATOM      3  S   UNL     1       7.372   6.849  17.716  0.00  0.00    +0.000 S 
ATOM      4  C   UNL     1       6.440   5.463  18.247  0.00  0.00    +0.000 C 
ATOM      5  N   UNL     1       6.207   5.174  19.492  0.00  0.00    +0.000 NA
ATOM      6  C   UNL     1       5.530   3.866  19.491  0.00  0.00    +0.000 C 
ATOM      7  C   UNL     1       4.407   3.866  18.427  0.00  0.00    +0.000 C 
ATOM      8  N   UNL     1       4.746   4.129  17.175  0.00  0.00    +0.000 NA
ATOM      9  N   UNL     1       6.032   4.758  17.123  0.00  0.00    +0.000 N 
ENDROOT
BRANCH   7  10
ATOM     10  C   UNL     1       3.002   3.585  18.912  0.00  0.00    +0.000 A 
ATOM     11  C   UNL     1       2.433   4.383  19.930  0.00  0.00    +0.000 A 
ATOM     12  C   UNL     1       1.135   4.172  20.410  0.00  0.00    +0.000 A 
ATOM     13  C   UNL     1       0.356   3.166  19.853  0.00  0.00    +0.000 A 
ATOM     14  C   UNL     1       0.878   2.386  18.823  0.00  0.00    +0.000 A 
ATOM     15  C   UNL     1       2.192   2.593  18.350  0.00  0.00    +0.000 A 
ENDBRANCH   7  10
BRANCH   1  17
ATOM     16  C   UNL     1       5.596   4.330  13.994  0.00  0.00    +0.000 C 
ATOM     17  C   UNL     1       6.939   4.390  14.731  0.00  0.00    +0.000 C 
ENDBRANCH   1  17
TORSDOF 2
ENDMDL
MODEL 3
REMARK VINA RESULT:      -7.2      2.967      3.417
REMARK  Name = 
REMARK  3 active torsions:
REMARK  status: ('A' for Active; 'I' for Inactive)
REMARK    1  A    between atoms: C_1  and  C_2
REMARK    2  A    between atoms: C_2  and  C_3
REMARK    3  A    between atoms: C_9  and  C_10
REMARK                            x       y       z     vdW  Elec       q    Type
REMARK                         _______ _______ _______ _____ _____    ______ ____
ROOT
ATOM      1  C   UNL     1       6.035   4.814  16.098  0.00  0.00    +0.000 C 
ATOM      2  N   UNL     1       7.317   4.642  16.351  0.00  0.00    +0.000 NA
ATOM      3  S   UNL     1       7.600   4.961  18.004  0.00  0.00    +0.000 S 
ATOM      4  C   UNL     1       5.897   5.181  18.357  0.00  0.00    +0.000 C 
ATOM      5  N   UNL     1       5.404   5.251  19.557  0.00  0.00    +0.000 NA
ATOM      6  C   UNL     1       3.940   5.281  19.400  0.00  0.00    +0.000 C 
ATOM      7  C   UNL     1       3.560   6.298  18.298  0.00  0.00    +0.000 C 
ATOM      8  N   UNL     1       4.077   6.122  17.092  0.00  0.00    +0.000 NA
ATOM      9  N   UNL     1       5.209   5.246  17.154  0.00  0.00    +0.000 N 
ENDROOT
BRANCH   7  10
ATOM     10  C   UNL     1       2.639   7.431  18.697  0.00  0.00    +0.000 A 
ATOM     11  C   UNL     1       2.256   8.400  17.742  0.00  0.00    +0.000 A 
ATOM     12  C   UNL     1       1.401   9.463  18.055  0.00  0.00    +0.000 A 
ATOM     13  C   UNL     1       0.878   9.563  19.338  0.00  0.00    +0.000 A 
ATOM     14  C   UNL     1       1.210   8.603  20.290  0.00  0.00    +0.000 A 
ATOM     15  C   UNL     1       2.083   7.538  19.976  0.00  0.00    +0.000 A 
ENDBRANCH   7  10
BRANCH   1  17
ATOM     16  C   UNL     1       6.698   4.342  13.777  0.00  0.00    +0.000 C 
ATOM     17  C   UNL     1       5.535   4.291  14.774  0.00  0.00    +0.000 C 
ENDBRANCH   1  17
TORSDOF 2
ENDMDL
MODEL 4
REMARK VINA RESULT:      -7.1      2.692      3.759
REMARK  Name = 
REMARK  3 active torsions:
REMARK  status: ('A' for Active; 'I' for Inactive)
REMARK    1  A    between atoms: C_1  and  C_2
REMARK    2  A    between atoms: C_2  and  C_3
REMARK    3  A    between atoms: C_9  and  C_10
REMARK                            x       y       z     vdW  Elec       q    Type
REMARK                         _______ _______ _______ _____ _____    ______ ____
ROOT
ATOM      1  C   UNL     1       6.305   3.767  12.556  0.00  0.00    +0.000 C 
ATOM      2  N   UNL     1       7.231   4.382  11.848  0.00  0.00    +0.000 NA
ATOM      3  S   UNL     1       8.084   5.453  12.868  0.00  0.00    +0.000 S 
ATOM      4  C   UNL     1       7.240   4.914  14.307  0.00  0.00    +0.000 C 
ATOM      5  N   UNL     1       7.596   5.219  15.518  0.00  0.00    +0.000 NA
ATOM      6  C   UNL     1       6.719   4.444  16.413  0.00  0.00    +0.000 C 
ATOM      7  C   UNL     1       5.253   4.569  15.934  0.00  0.00    +0.000 C 
ATOM      8  N   UNL     1       4.975   4.193  14.696  0.00  0.00    +0.000 NA
ATOM      9  N   UNL     1       6.173   4.120  13.912  0.00  0.00    +0.000 N 
ENDROOT
BRANCH   7  10
ATOM     10  C   UNL     1       4.255   5.134  16.921  0.00  0.00    +0.000 A 
ATOM     11  C   UNL     1       4.256   6.518  17.213  0.00  0.00    +0.000 A 
ATOM     12  C   UNL     1       3.351   7.094  18.111  0.00  0.00    +0.000 A 
ATOM     13  C   UNL     1       2.391   6.296  18.720  0.00  0.00    +0.000 A 
ATOM     14  C   UNL     1       2.343   4.935  18.424  0.00  0.00    +0.000 A 
ATOM     15  C   UNL     1       3.266   4.354  17.528  0.00  0.00    +0.000 A 
ENDBRANCH   7  10
BRANCH   1  17
ATOM     16  C   UNL     1       4.326   3.031  11.294  0.00  0.00    +0.000 C 
ATOM     17  C   UNL     1       5.651   2.570  11.911  0.00  0.00    +0.000 C 
ENDBRANCH   1  17
TORSDOF 2
ENDMDL
MODEL 5
REMARK VINA RESULT:      -7.1      2.651      3.596
REMARK  Name = 
REMARK  3 active torsions:
REMARK  status: ('A' for Active; 'I' for Inactive)
REMARK    1  A    between atoms: C_1  and  C_2
REMARK    2  A    between atoms: C_2  and  C_3
REMARK    3  A    between atoms: C_9  and  C_10
REMARK                            x       y       z     vdW  Elec       q    Type
REMARK                         _______ _______ _______ _____ _____    ______ ____
ROOT
ATOM      1  C   UNL     1       6.327   3.774  12.540  0.00  0.00    +0.000 C 
ATOM      2  N   UNL     1       7.250   4.405  11.842  0.00  0.00    +0.000 NA
ATOM      3  S   UNL     1       8.090   5.471  12.877  0.00  0.00    +0.000 S 
ATOM      4  C   UNL     1       7.246   4.910  14.306  0.00  0.00    +0.000 C 
ATOM      5  N   UNL     1       7.595   5.204  15.522  0.00  0.00    +0.000 NA
ATOM      6  C   UNL     1       6.722   4.412  16.405  0.00  0.00    +0.000 C 
ATOM      7  C   UNL     1       5.257   4.530  15.923  0.00  0.00    +0.000 C 
ATOM      8  N   UNL     1       4.986   4.166  14.680  0.00  0.00    +0.000 NA
ATOM      9  N   UNL     1       6.187   4.111  13.899  0.00  0.00    +0.000 N 
ENDROOT
BRANCH   7  10
ATOM     10  C   UNL     1       4.251   5.076  16.913  0.00  0.00    +0.000 A 
ATOM     11  C   UNL     1       3.271   4.222  17.469  0.00  0.00    +0.000 A 
ATOM     12  C   UNL     1       2.322   4.673  18.393  0.00  0.00    +0.000 A 
ATOM     13  C   UNL     1       2.352   5.996  18.813  0.00  0.00    +0.000 A 
ATOM     14  C   UNL     1       3.329   6.853  18.309  0.00  0.00    +0.000 A 
ATOM     15  C   UNL     1       4.277   6.399  17.366  0.00  0.00    +0.000 A 
ENDBRANCH   7  10
BRANCH   1  17
ATOM     16  C   UNL     1       4.348   3.031  11.283  0.00  0.00    +0.000 C 
ATOM     17  C   UNL     1       5.685   2.578  11.880  0.00  0.00    +0.000 C 
ENDBRANCH   1  17
TORSDOF 2
ENDMDL
MODEL 6
REMARK VINA RESULT:      -7.0      2.973      3.494
REMARK  Name = 
REMARK  3 active torsions:
REMARK  status: ('A' for Active; 'I' for Inactive)
REMARK    1  A    between atoms: C_1  and  C_2
REMARK    2  A    between atoms: C_2  and  C_3
REMARK    3  A    between atoms: C_9  and  C_10
REMARK                            x       y       z     vdW  Elec       q    Type
REMARK                         _______ _______ _______ _____ _____    ______ ____
ROOT
ATOM      1  C   UNL     1       6.337   5.308  15.916  0.00  0.00    +0.000 C 
ATOM      2  N   UNL     1       7.548   4.974  16.315  0.00  0.00    +0.000 NA
ATOM      3  S   UNL     1       7.552   4.856  18.018  0.00  0.00    +0.000 S 
ATOM      4  C   UNL     1       5.825   5.123  18.142  0.00  0.00    +0.000 C 
ATOM      5  N   UNL     1       5.134   4.940  19.227  0.00  0.00    +0.000 NA
ATOM      6  C   UNL     1       3.722   5.129  18.854  0.00  0.00    +0.000 C 
ATOM      7  C   UNL     1       3.581   6.412  18.001  0.00  0.00    +0.000 C 
ATOM      8  N   UNL     1       4.292   6.492  16.888  0.00  0.00    +0.000 NA
ATOM      9  N   UNL     1       5.359   5.537  16.902  0.00  0.00    +0.000 N 
ENDROOT
BRANCH   7  10
ATOM     10  C   UNL     1       2.652   7.485  18.524  0.00  0.00    +0.000 A 
ATOM     11  C   UNL     1       2.194   7.433  19.861  0.00  0.00    +0.000 A 
ATOM     12  C   UNL     1       1.340   8.403  20.398  0.00  0.00    +0.000 A 
ATOM     13  C   UNL     1       0.947   9.478  19.612  0.00  0.00    +0.000 A 
ATOM     14  C   UNL     1       1.411   9.575  18.302  0.00  0.00    +0.000 A 
ATOM     15  C   UNL     1       2.262   8.588  17.758  0.00  0.00    +0.000 A 
ENDBRANCH   7  10
BRANCH   1  17
ATOM     16  C   UNL     1       6.193   3.686  14.072  0.00  0.00    +0.000 C 
ATOM     17  C   UNL     1       6.054   5.168  14.440  0.00  0.00    +0.000 C 
ENDBRANCH   1  17
TORSDOF 2
ENDMDL
MODEL 7
REMARK VINA RESULT:      -7.0      1.745      2.747
REMARK  Name = 
REMARK  3 active torsions:
REMARK  status: ('A' for Active; 'I' for Inactive)
REMARK    1  A    between atoms: C_1  and  C_2
REMARK    2  A    between atoms: C_2  and  C_3
REMARK    3  A    between atoms: C_9  and  C_10
REMARK                            x       y       z     vdW  Elec       q    Type
REMARK                         _______ _______ _______ _____ _____    ______ ____
ROOT
ATOM      1  C   UNL     1       7.164   5.712  17.580  0.00  0.00    +0.000 C 
ATOM      2  N   UNL     1       7.743   5.288  16.474  0.00  0.00    +0.000 NA
ATOM      3  S   UNL     1       6.608   4.392  15.568  0.00  0.00    +0.000 S 
ATOM      4  C   UNL     1       5.293   4.750  16.670  0.00  0.00    +0.000 C 
ATOM      5  N   UNL     1       4.042   4.510  16.415  0.00  0.00    +0.000 NA
ATOM      6  C   UNL     1       3.274   5.098  17.526  0.00  0.00    +0.000 C 
ATOM      7  C   UNL     1       3.927   4.701  18.871  0.00  0.00    +0.000 C 
ATOM      8  N   UNL     1       5.196   5.026  19.060  0.00  0.00    +0.000 NA
ATOM      9  N   UNL     1       5.828   5.331  17.810  0.00  0.00    +0.000 N 
ENDROOT
BRANCH   7  10
ATOM     10  C   UNL     1       3.061   3.949  19.859  0.00  0.00    +0.000 A 
ATOM     11  C   UNL     1       1.660   4.140  19.859  0.00  0.00    +0.000 A 
ATOM     12  C   UNL     1       0.813   3.466  20.745  0.00  0.00    +0.000 A 
ATOM     13  C   UNL     1       1.350   2.549  21.639  0.00  0.00    +0.000 A 
ATOM     14  C   UNL     1       2.723   2.313  21.638  0.00  0.00    +0.000 A 
ATOM     15  C   UNL     1       3.578   3.005  20.752  0.00  0.00    +0.000 A 
ENDBRANCH   7  10
BRANCH   1  17
ATOM     16  C   UNL     1       7.738   8.103  17.629  0.00  0.00    +0.000 C 
ATOM     17  C   UNL     1       7.904   6.768  18.364  0.00  0.00    +0.000 C 
ENDBRANCH   1  17
TORSDOF 2
ENDMDL
MODEL 8
REMARK VINA RESULT:      -6.9      1.741      2.739
REMARK  Name = 
REMARK  3 active torsions:
REMARK  status: ('A' for Active; 'I' for Inactive)
REMARK    1  A    between atoms: C_1  and  C_2
REMARK    2  A    between atoms: C_2  and  C_3
REMARK    3  A    between atoms: C_9  and  C_10
REMARK                            x       y       z     vdW  Elec       q    Type
REMARK                         _______ _______ _______ _____ _____    ______ ____
ROOT
ATOM      1  C   UNL     1       7.157   5.659  17.557  0.00  0.00    +0.000 C 
ATOM      2  N   UNL     1       7.794   5.190  16.503  0.00  0.00    +0.000 NA
ATOM      3  S   UNL     1       6.717   4.228  15.592  0.00  0.00    +0.000 S 
ATOM      4  C   UNL     1       5.346   4.619  16.612  0.00  0.00    +0.000 C 
ATOM      5  N   UNL     1       4.112   4.344  16.313  0.00  0.00    +0.000 NA
ATOM      6  C   UNL     1       3.284   4.974  17.356  0.00  0.00    +0.000 C 
ATOM      7  C   UNL     1       3.879   4.658  18.748  0.00  0.00    +0.000 C 
ATOM      8  N   UNL     1       5.133   5.014  18.978  0.00  0.00    +0.000 NA
ATOM      9  N   UNL     1       5.818   5.266  17.745  0.00  0.00    +0.000 N 
ENDROOT
BRANCH   7  10
ATOM     10  C   UNL     1       2.980   3.943  19.733  0.00  0.00    +0.000 A 
ATOM     11  C   UNL     1       3.526   2.999  20.632  0.00  0.00    +0.000 A 
ATOM     12  C   UNL     1       2.741   2.314  21.567  0.00  0.00    +0.000 A 
ATOM     13  C   UNL     1       1.381   2.586  21.647  0.00  0.00    +0.000 A 
ATOM     14  C   UNL     1       0.822   3.538  20.798  0.00  0.00    +0.000 A 
ATOM     15  C   UNL     1       1.613   4.217  19.846  0.00  0.00    +0.000 A 
ENDBRANCH   7  10
BRANCH   1  17
ATOM     16  C   UNL     1       7.671   8.064  17.521  0.00  0.00    +0.000 C 
ATOM     17  C   UNL     1       7.843   6.767  18.319  0.00  0.00    +0.000 C 
ENDBRANCH   1  17
TORSDOF 2
ENDMDL
MODEL 9
REMARK VINA RESULT:      -6.7      1.968      5.942
REMARK  Name = 
REMARK  3 active torsions:
REMARK  status: ('A' for Active; 'I' for Inactive)
REMARK    1  A    between atoms: C_1  and  C_2
REMARK    2  A    between atoms: C_2  and  C_3
REMARK    3  A    between atoms: C_9  and  C_10
REMARK                            x       y       z     vdW  Elec       q    Type
REMARK                         _______ _______ _______ _____ _____    ______ ____
ROOT
ATOM      1  C   UNL     1       2.783   3.314  18.650  0.00  0.00    +0.000 C 
ATOM      2  N   UNL     1       3.021   2.653  19.766  0.00  0.00    +0.000 NA
ATOM      3  S   UNL     1       4.700   2.678  20.072  0.00  0.00    +0.000 S 
ATOM      4  C   UNL     1       5.034   3.742  18.720  0.00  0.00    +0.000 C 
ATOM      5  N   UNL     1       6.172   4.335  18.522  0.00  0.00    +0.000 NA
ATOM      6  C   UNL     1       5.973   5.241  17.378  0.00  0.00    +0.000 C 
ATOM      7  C   UNL     1       5.234   4.488  16.247  0.00  0.00    +0.000 C 
ATOM      8  N   UNL     1       4.057   3.952  16.529  0.00  0.00    +0.000 NA
ATOM      9  N   UNL     1       3.885   3.835  17.947  0.00  0.00    +0.000 N 
ENDROOT
BRANCH   7  10
ATOM     10  C   UNL     1       5.933   4.407  14.907  0.00  0.00    +0.000 A 
ATOM     11  C   UNL     1       5.369   3.640  13.861  0.00  0.00    +0.000 A 
ATOM     12  C   UNL     1       5.968   3.536  12.601  0.00  0.00    +0.000 A 
ATOM     13  C   UNL     1       7.143   4.233  12.344  0.00  0.00    +0.000 A 
ATOM     14  C   UNL     1       7.702   5.025  13.344  0.00  0.00    +0.000 A 
ATOM     15  C   UNL     1       7.103   5.117  14.619  0.00  0.00    +0.000 A 
ENDBRANCH   7  10
BRANCH   1  17
ATOM     16  C   UNL     1       0.472   2.496  18.851  0.00  0.00    +0.000 C 
ATOM     17  C   UNL     1       1.342   3.663  18.371  0.00  0.00    +0.000 C 
ENDBRANCH   1  17
TORSDOF 2
ENDMDL
