MODEL 1
REMARK VINA RESULT:      -7.6      0.000      0.000
REMARK  Name = 
REMARK  8 active torsions:
REMARK  status: ('A' for Active; 'I' for Inactive)
REMARK    1  A    between atoms: C_1  and  O_2
REMARK    2  A    between atoms: O_2  and  C_3
REMARK    3  A    between atoms: C_6  and  C_7
REMARK    4  A    between atoms: C_7  and  O_8
REMARK    5  A    between atoms: C_7  and  C_9
REMARK    6  A    between atoms: N_12  and  S_13
REMARK    7  A    between atoms: S_13  and  C_16
REMARK    8  A    between atoms: C_19  and  C_20
REMARK                            x       y       z     vdW  Elec       q    Type
REMARK                         _______ _______ _______ _____ _____    ______ ____
ROOT
ATOM      1  C   UNL     1       2.185   7.301  19.118  0.00  0.00    +0.000 A 
ATOM      2  C   UNL     1       2.530   7.968  17.897  0.00  0.00    +0.000 A 
ATOM      3  C   UNL     1       2.073   9.269  17.971  0.00  0.00    +0.000 A 
ATOM      4  N   UNL     1       1.484   9.419  19.196  0.00  0.00    +0.000 N 
ATOM      5  C   UNL     1       1.487   8.231  19.880  0.00  0.00    +0.000 A 
ENDROOT
BRANCH   4   6
ATOM      6  S   UNL     1       0.761  10.854  19.756  0.00  0.00    +0.000 S 
ATOM      7  O   UNL     1       0.617  10.666  21.188  0.00  0.00    +0.000 OA
ATOM      8  O   UNL     1       1.540  11.940  19.193  0.00  0.00    +0.000 OA
BRANCH   6   9
ATOM      9  C   UNL     1      -0.849  10.893  19.019  0.00  0.00    +0.000 A 
ATOM     10  C   UNL     1      -1.796  11.810  19.487  0.00  0.00    +0.000 A 
ATOM     11  C   UNL     1      -3.041  11.898  18.862  0.00  0.00    +0.000 A 
ATOM     12  C   UNL     1      -3.346  11.076  17.770  0.00  0.00    +0.000 A 
ATOM     13  C   UNL     1      -4.674  11.182  17.077  0.00  0.00    +0.000 C 
ATOM     14  C   UNL     1      -2.385  10.167  17.306  0.00  0.00    +0.000 A 
ATOM     15  C   UNL     1      -1.136  10.074  17.924  0.00  0.00    +0.000 A 
ENDBRANCH   6   9
ENDBRANCH   4   6
BRANCH   1  16
ATOM     16  C   UNL     1       2.478   5.860  19.443  0.00  0.00    +0.000 C 
BRANCH  16  20
ATOM     17  C   UNL     1       5.983   4.616  17.159  0.00  0.00    +0.000 A 
ATOM     18  C   UNL     1       4.699   4.493  16.638  0.00  0.00    +0.000 A 
ATOM     19  C   UNL     1       3.588   4.901  17.383  0.00  0.00    +0.000 A 
ATOM     20  C   UNL     1       3.726   5.405  18.691  0.00  0.00    +0.000 A 
ATOM     21  C   UNL     1       5.034   5.545  19.188  0.00  0.00    +0.000 A 
ATOM     22  C   UNL     1       6.149   5.140  18.439  0.00  0.00    +0.000 A 
BRANCH  17  24
ATOM     23  C   UNL     1       6.706   4.186  14.950  0.00  0.00    +0.000 C 
ATOM     24  O   UNL     1       6.985   4.165  16.344  0.00  0.00    +0.000 OA
ENDBRANCH  17  24
ENDBRANCH  16  20
BRANCH  16  25
ATOM     25  O   UNL     1       2.652   5.728  20.853  0.00  0.00    +0.000 OA
ATOM     26  H   UNL     1       3.400   5.116  20.967  0.00  0.00    +0.000 HD
ENDBRANCH  16  25
ENDBRANCH   1  16
TORSDOF 6
ENDMDL
MODEL 2
REMARK VINA RESULT:      -7.6      0.449      1.067
REMARK  Name = 
REMARK  8 active torsions:
REMARK  status: ('A' for Active; 'I' for Inactive)
REMARK    1  A    between atoms: C_1  and  O_2
REMARK    2  A    between atoms: O_2  and  C_3
REMARK    3  A    between atoms: C_6  and  C_7
REMARK    4  A    between atoms: C_7  and  O_8
REMARK    5  A    between atoms: C_7  and  C_9
REMARK    6  A    between atoms: N_12  and  S_13
REMARK    7  A    between atoms: S_13  and  C_16
REMARK    8  A    between atoms: C_19  and  C_20
REMARK                            x       y       z     vdW  Elec       q    Type
REMARK                         _______ _______ _______ _____ _____    ______ ____
ROOT
ATOM      1  C   UNL     1       2.393   7.165  19.058  0.00  0.00    +0.000 A 
ATOM      2  C   UNL     1       2.675   7.941  17.886  0.00  0.00    +0.000 A 
ATOM      3  C   UNL     1       2.113   9.192  18.050  0.00  0.00    +0.000 A 
ATOM      4  N   UNL     1       1.522   9.207  19.283  0.00  0.00    +0.000 N 
ATOM      5  C   UNL     1       1.627   7.979  19.883  0.00  0.00    +0.000 A 
ENDROOT
BRANCH   4   6
ATOM      6  S   UNL     1       0.687  10.537  19.942  0.00  0.00    +0.000 S 
ATOM      7  O   UNL     1       0.273  10.101  21.263  0.00  0.00    +0.000 OA
ATOM      8  O   UNL     1       1.547  11.687  19.741  0.00  0.00    +0.000 OA
BRANCH   6   9
ATOM      9  C   UNL     1      -0.751  10.742  18.929  0.00  0.00    +0.000 A 
ATOM     10  C   UNL     1      -0.929   9.917  17.814  0.00  0.00    +0.000 A 
ATOM     11  C   UNL     1      -2.095  10.022  17.054  0.00  0.00    +0.000 A 
ATOM     12  C   UNL     1      -3.087  10.947  17.403  0.00  0.00    +0.000 A 
ATOM     13  C   UNL     1      -4.355  11.050  16.605  0.00  0.00    +0.000 C 
ATOM     14  C   UNL     1      -2.900  11.763  18.527  0.00  0.00    +0.000 A 
ATOM     15  C   UNL     1      -1.736  11.663  19.294  0.00  0.00    +0.000 A 
ENDBRANCH   6   9
ENDBRANCH   4   6
BRANCH   1  16
ATOM     16  C   UNL     1       2.806   5.734  19.282  0.00  0.00    +0.000 C 
BRANCH  16  20
ATOM     17  C   UNL     1       6.406   4.958  16.939  0.00  0.00    +0.000 A 
ATOM     18  C   UNL     1       5.137   4.818  16.385  0.00  0.00    +0.000 A 
ATOM     19  C   UNL     1       3.995   5.075  17.150  0.00  0.00    +0.000 A 
ATOM     20  C   UNL     1       4.087   5.439  18.507  0.00  0.00    +0.000 A 
ATOM     21  C   UNL     1       5.379   5.600  19.040  0.00  0.00    +0.000 A 
ATOM     22  C   UNL     1       6.525   5.347  18.271  0.00  0.00    +0.000 A 
BRANCH  17  24
ATOM     23  C   UNL     1       7.133   4.656  14.710  0.00  0.00    +0.000 C 
ATOM     24  O   UNL     1       7.442   4.660  16.098  0.00  0.00    +0.000 OA
ENDBRANCH  17  24
ENDBRANCH  16  20
BRANCH  16  25
ATOM     25  O   UNL     1       2.990   5.517  20.680  0.00  0.00    +0.000 OA
ATOM     26  H   UNL     1       2.101   5.354  21.038  0.00  0.00    +0.000 HD
ENDBRANCH  16  25
ENDBRANCH   1  16
TORSDOF 6
ENDMDL
MODEL 3
REMARK VINA RESULT:      -7.5      3.109      8.630
REMARK  Name = 
REMARK  8 active torsions:
REMARK  status: ('A' for Active; 'I' for Inactive)
REMARK    1  A    between atoms: C_1  and  O_2
REMARK    2  A    between atoms: O_2  and  C_3
REMARK    3  A    between atoms: C_6  and  C_7
REMARK    4  A    between atoms: C_7  and  O_8
REMARK    5  A    between atoms: C_7  and  C_9
REMARK    6  A    between atoms: N_12  and  S_13
REMARK    7  A    between atoms: S_13  and  C_16
REMARK    8  A    between atoms: C_19  and  C_20
REMARK                            x       y       z     vdW  Elec       q    Type
REMARK                         _______ _______ _______ _____ _____    ______ ____
ROOT
ATOM      1  C   UNL     1       2.487   7.066  18.887  0.00  0.00    +0.000 A 
ATOM      2  C   UNL     1       2.101   6.133  19.905  0.00  0.00    +0.000 A 
ATOM      3  C   UNL     1       3.118   5.211  20.055  0.00  0.00    +0.000 A 
ATOM      4  N   UNL     1       4.112   5.564  19.183  0.00  0.00    +0.000 N 
ATOM      5  C   UNL     1       3.729   6.643  18.428  0.00  0.00    +0.000 A 
ENDROOT
BRANCH   4   6
ATOM      6  S   UNL     1       5.579   4.723  18.993  0.00  0.00    +0.000 S 
ATOM      7  O   UNL     1       6.586   5.593  19.574  0.00  0.00    +0.000 OA
ATOM      8  O   UNL     1       5.338   3.382  19.489  0.00  0.00    +0.000 OA
BRANCH   6   9
ATOM      9  C   UNL     1       5.847   4.624  17.246  0.00  0.00    +0.000 A 
ATOM     10  C   UNL     1       7.013   5.168  16.698  0.00  0.00    +0.000 A 
ATOM     11  C   UNL     1       7.266   5.029  15.332  0.00  0.00    +0.000 A 
ATOM     12  C   UNL     1       6.362   4.346  14.509  0.00  0.00    +0.000 A 
ATOM     13  C   UNL     1       6.639   4.170  13.044  0.00  0.00    +0.000 C 
ATOM     14  C   UNL     1       5.200   3.798  15.072  0.00  0.00    +0.000 A 
ATOM     15  C   UNL     1       4.940   3.932  16.439  0.00  0.00    +0.000 A 
ENDBRANCH   6   9
ENDBRANCH   4   6
BRANCH   1  16
ATOM     16  C   UNL     1       1.656   8.222  18.396  0.00  0.00    +0.000 C 
BRANCH  16  20
ATOM     17  C   UNL     1       0.291  10.745  21.685  0.00  0.00    +0.000 A 
ATOM     18  C   UNL     1       0.380  11.235  20.385  0.00  0.00    +0.000 A 
ATOM     19  C   UNL     1       0.815  10.410  19.343  0.00  0.00    +0.000 A 
ATOM     20  C   UNL     1       1.217   9.081  19.578  0.00  0.00    +0.000 A 
ATOM     21  C   UNL     1       1.096   8.599  20.893  0.00  0.00    +0.000 A 
ATOM     22  C   UNL     1       0.654   9.424  21.938  0.00  0.00    +0.000 A 
BRANCH  17  24
ATOM     23  C   UNL     1      -1.495  11.557  23.004  0.00  0.00    +0.000 C 
ATOM     24  O   UNL     1      -0.129  11.652  22.619  0.00  0.00    +0.000 OA
ENDBRANCH  17  24
ENDBRANCH  16  20
BRANCH  16  25
ATOM     25  O   UNL     1       2.423   8.983  17.465  0.00  0.00    +0.000 OA
ATOM     26  H   UNL     1       3.115   9.419  17.990  0.00  0.00    +0.000 HD
ENDBRANCH  16  25
ENDBRANCH   1  16
TORSDOF 6
ENDMDL
MODEL 4
REMARK VINA RESULT:      -7.5      3.095      8.635
REMARK  Name = 
REMARK  8 active torsions:
REMARK  status: ('A' for Active; 'I' for Inactive)
REMARK    1  A    between atoms: C_1  and  O_2
REMARK    2  A    between atoms: O_2  and  C_3
REMARK    3  A    between atoms: C_6  and  C_7
REMARK    4  A    between atoms: C_7  and  O_8
REMARK    5  A    between atoms: C_7  and  C_9
REMARK    6  A    between atoms: N_12  and  S_13
REMARK    7  A    between atoms: S_13  and  C_16
REMARK    8  A    between atoms: C_19  and  C_20
REMARK                            x       y       z     vdW  Elec       q    Type
REMARK                         _______ _______ _______ _____ _____    ______ ____
ROOT
ATOM      1  C   UNL     1       2.735   7.358  18.235  0.00  0.00    +0.000 A 
ATOM      2  C   UNL     1       2.498   6.196  19.041  0.00  0.00    +0.000 A 
ATOM      3  C   UNL     1       3.645   5.427  19.038  0.00  0.00    +0.000 A 
ATOM      4  N   UNL     1       4.571   6.090  18.280  0.00  0.00    +0.000 N 
ATOM      5  C   UNL     1       4.026   7.224  17.738  0.00  0.00    +0.000 A 
ENDROOT
BRANCH   4   6
ATOM      6  S   UNL     1       6.150   5.533  17.973  0.00  0.00    +0.000 S 
ATOM      7  O   UNL     1       6.989   6.713  18.080  0.00  0.00    +0.000 OA
ATOM      8  O   UNL     1       6.337   4.372  18.821  0.00  0.00    +0.000 OA
BRANCH   6   9
ATOM      9  C   UNL     1       6.142   4.987  16.288  0.00  0.00    +0.000 A 
ATOM     10  C   UNL     1       7.252   5.246  15.478  0.00  0.00    +0.000 A 
ATOM     11  C   UNL     1       7.284   4.755  14.172  0.00  0.00    +0.000 A 
ATOM     12  C   UNL     1       6.213   4.004  13.670  0.00  0.00    +0.000 A 
ATOM     13  C   UNL     1       6.251   3.452  12.274  0.00  0.00    +0.000 C 
ATOM     14  C   UNL     1       5.110   3.746  14.495  0.00  0.00    +0.000 A 
ATOM     15  C   UNL     1       5.071   4.232  15.804  0.00  0.00    +0.000 A 
ENDBRANCH   6   9
ENDBRANCH   4   6
BRANCH   1  16
ATOM     16  C   UNL     1       1.735   8.448  17.953  0.00  0.00    +0.000 C 
BRANCH  16  20
ATOM     17  C   UNL     1       0.466  10.114  21.782  0.00  0.00    +0.000 A 
ATOM     18  C   UNL     1       0.984   8.826  21.690  0.00  0.00    +0.000 A 
ATOM     19  C   UNL     1       1.389   8.311  20.455  0.00  0.00    +0.000 A 
ATOM     20  C   UNL     1       1.249   9.054  19.267  0.00  0.00    +0.000 A 
ATOM     21  C   UNL     1       0.748  10.362  19.386  0.00  0.00    +0.000 A 
ATOM     22  C   UNL     1       0.345  10.882  20.626  0.00  0.00    +0.000 A 
BRANCH  17  24
ATOM     23  C   UNL     1      -1.265  10.915  23.179  0.00  0.00    +0.000 C 
ATOM     24  O   UNL     1       0.087  10.498  23.039  0.00  0.00    +0.000 OA
ENDBRANCH  17  24
ENDBRANCH  16  20
BRANCH  16  25
ATOM     25  O   UNL     1       2.347   9.437  17.127  0.00  0.00    +0.000 OA
ATOM     26  H   UNL     1       2.781  10.056  17.739  0.00  0.00    +0.000 HD
ENDBRANCH  16  25
ENDBRANCH   1  16
TORSDOF 6
ENDMDL
MODEL 5
REMARK VINA RESULT:      -7.5      3.075      8.631
REMARK  Name = 
REMARK  8 active torsions:
REMARK  status: ('A' for Active; 'I' for Inactive)
REMARK    1  A    between atoms: C_1  and  O_2
REMARK    2  A    between atoms: O_2  and  C_3
REMARK    3  A    between atoms: C_6  and  C_7
REMARK    4  A    between atoms: C_7  and  O_8
REMARK    5  A    between atoms: C_7  and  C_9
REMARK    6  A    between atoms: N_12  and  S_13
REMARK    7  A    between atoms: S_13  and  C_16
REMARK    8  A    between atoms: C_19  and  C_20
REMARK                            x       y       z     vdW  Elec       q    Type
REMARK                         _______ _______ _______ _____ _____    ______ ____
ROOT
ATOM      1  C   UNL     1       2.550   6.997  18.750  0.00  0.00    +0.000 A 
ATOM      2  C   UNL     1       2.058   6.083  19.738  0.00  0.00    +0.000 A 
ATOM      3  C   UNL     1       3.030   5.129  19.968  0.00  0.00    +0.000 A 
ATOM      4  N   UNL     1       4.098   5.445  19.174  0.00  0.00    +0.000 N 
ATOM      5  C   UNL     1       3.809   6.531  18.389  0.00  0.00    +0.000 A 
ENDROOT
BRANCH   4   6
ATOM      6  S   UNL     1       5.548   4.556  19.100  0.00  0.00    +0.000 S 
ATOM      7  O   UNL     1       6.542   5.412  19.721  0.00  0.00    +0.000 OA
ATOM      8  O   UNL     1       5.233   3.237  19.613  0.00  0.00    +0.000 OA
BRANCH   6   9
ATOM      9  C   UNL     1       5.921   4.400  17.376  0.00  0.00    +0.000 A 
ATOM     10  C   UNL     1       4.980   3.820  16.520  0.00  0.00    +0.000 A 
ATOM     11  C   UNL     1       5.235   3.760  15.149  0.00  0.00    +0.000 A 
ATOM     12  C   UNL     1       6.426   4.280  14.626  0.00  0.00    +0.000 A 
ATOM     13  C   UNL     1       6.698   4.243  13.150  0.00  0.00    +0.000 C 
ATOM     14  C   UNL     1       7.358   4.867  15.495  0.00  0.00    +0.000 A 
ATOM     15  C   UNL     1       7.109   4.931  16.868  0.00  0.00    +0.000 A 
ENDBRANCH   6   9
ENDBRANCH   4   6
BRANCH   1  16
ATOM     16  C   UNL     1       1.797   8.175  18.192  0.00  0.00    +0.000 C 
BRANCH  16  20
ATOM     17  C   UNL     1       0.411  10.600  21.546  0.00  0.00    +0.000 A 
ATOM     18  C   UNL     1       0.994   9.352  21.747  0.00  0.00    +0.000 A 
ATOM     19  C   UNL     1       1.436   8.592  20.660  0.00  0.00    +0.000 A 
ATOM     20  C   UNL     1       1.269   9.038  19.335  0.00  0.00    +0.000 A 
ATOM     21  C   UNL     1       0.701  10.312  19.156  0.00  0.00    +0.000 A 
ATOM     22  C   UNL     1       0.263  11.078  20.246  0.00  0.00    +0.000 A 
BRANCH  17  24
ATOM     23  C   UNL     1      -1.288  10.883  23.165  0.00  0.00    +0.000 C 
ATOM     24  O   UNL     1       0.002  11.239  22.684  0.00  0.00    +0.000 OA
ENDBRANCH  17  24
ENDBRANCH  16  20
BRANCH  16  25
ATOM     25  O   UNL     1       2.666   8.924  17.344  0.00  0.00    +0.000 OA
ATOM     26  H   UNL     1       2.084   9.398  16.726  0.00  0.00    +0.000 HD
ENDBRANCH  16  25
ENDBRANCH   1  16
TORSDOF 6
ENDMDL
MODEL 6
REMARK VINA RESULT:      -7.4      1.890      2.381
REMARK  Name = 
REMARK  8 active torsions:
REMARK  status: ('A' for Active; 'I' for Inactive)
REMARK    1  A    between atoms: C_1  and  O_2
REMARK    2  A    between atoms: O_2  and  C_3
REMARK    3  A    between atoms: C_6  and  C_7
REMARK    4  A    between atoms: C_7  and  O_8
REMARK    5  A    between atoms: C_7  and  C_9
REMARK    6  A    between atoms: N_12  and  S_13
REMARK    7  A    between atoms: S_13  and  C_16
REMARK    8  A    between atoms: C_19  and  C_20
REMARK                            x       y       z     vdW  Elec       q    Type
REMARK                         _______ _______ _______ _____ _____    ______ ____
ROOT
ATOM      1  C   UNL     1       2.367   6.035  19.566  0.00  0.00    +0.000 A 
ATOM      2  C   UNL     1       2.544   7.152  18.684  0.00  0.00    +0.000 A 
ATOM      3  C   UNL     1       1.976   8.263  19.274  0.00  0.00    +0.000 A 
ATOM      4  N   UNL     1       1.482   7.866  20.486  0.00  0.00    +0.000 N 
ATOM      5  C   UNL     1       1.654   6.517  20.657  0.00  0.00    +0.000 A 
ENDROOT
BRANCH   4   6
ATOM      6  S   UNL     1       0.679   8.886  21.587  0.00  0.00    +0.000 S 
ATOM      7  O   UNL     1      -0.566   8.203  21.889  0.00  0.00    +0.000 OA
ATOM      8  O   UNL     1       1.651   9.210  22.613  0.00  0.00    +0.000 OA
BRANCH   6   9
ATOM      9  C   UNL     1       0.317  10.366  20.685  0.00  0.00    +0.000 A 
ATOM     10  C   UNL     1       1.129  11.492  20.860  0.00  0.00    +0.000 A 
ATOM     11  C   UNL     1       0.895  12.638  20.099  0.00  0.00    +0.000 A 
ATOM     12  C   UNL     1      -0.144  12.667  19.160  0.00  0.00    +0.000 A 
ATOM     13  C   UNL     1      -0.386  13.887  18.320  0.00  0.00    +0.000 C 
ATOM     14  C   UNL     1      -0.945  11.529  18.989  0.00  0.00    +0.000 A 
ATOM     15  C   UNL     1      -0.717  10.377  19.746  0.00  0.00    +0.000 A 
ENDBRANCH   6   9
ENDBRANCH   4   6
BRANCH   1  16
ATOM     16  C   UNL     1       2.820   4.625  19.297  0.00  0.00    +0.000 C 
BRANCH  16  20
ATOM     17  C   UNL     1       6.448   4.745  16.874  0.00  0.00    +0.000 A 
ATOM     18  C   UNL     1       5.214   4.428  16.314  0.00  0.00    +0.000 A 
ATOM     19  C   UNL     1       4.062   4.399  17.105  0.00  0.00    +0.000 A 
ATOM     20  C   UNL     1       4.116   4.643  18.491  0.00  0.00    +0.000 A 
ATOM     21  C   UNL     1       5.368   4.986  19.032  0.00  0.00    +0.000 A 
ATOM     22  C   UNL     1       6.524   5.021  18.237  0.00  0.00    +0.000 A 
BRANCH  17  24
ATOM     23  C   UNL     1       7.168   4.767  14.622  0.00  0.00    +0.000 C 
ATOM     24  O   UNL     1       7.503   4.722  16.004  0.00  0.00    +0.000 OA
ENDBRANCH  17  24
ENDBRANCH  16  20
BRANCH  16  25
ATOM     25  O   UNL     1       2.998   3.948  20.540  0.00  0.00    +0.000 OA
ATOM     26  H   UNL     1       2.399   3.182  20.509  0.00  0.00    +0.000 HD
ENDBRANCH  16  25
ENDBRANCH   1  16
TORSDOF 6
ENDMDL
MODEL 7
REMARK VINA RESULT:      -7.4      0.478      1.034
REMARK  Name = 
REMARK  8 active torsions:
REMARK  status: ('A' for Active; 'I' for Inactive)
REMARK    1  A    between atoms: C_1  and  O_2
REMARK    2  A    between atoms: O_2  and  C_3
REMARK    3  A    between atoms: C_6  and  C_7
REMARK    4  A    between atoms: C_7  and  O_8
REMARK    5  A    between atoms: C_7  and  C_9
REMARK    6  A    between atoms: N_12  and  S_13
REMARK    7  A    between atoms: S_13  and  C_16
REMARK    8  A    between atoms: C_19  and  C_20
REMARK                            x       y       z     vdW  Elec       q    Type
REMARK                         _______ _______ _______ _____ _____    ______ ____
ROOT
ATOM      1  C   UNL     1       2.151   7.310  19.014  0.00  0.00    +0.000 A 
ATOM      2  C   UNL     1       2.512   7.964  17.790  0.00  0.00    +0.000 A 
ATOM      3  C   UNL     1       2.088   9.276  17.859  0.00  0.00    +0.000 A 
ATOM      4  N   UNL     1       1.505   9.446  19.085  0.00  0.00    +0.000 N 
ATOM      5  C   UNL     1       1.479   8.261  19.774  0.00  0.00    +0.000 A 
ENDROOT
BRANCH   4   6
ATOM      6  S   UNL     1       0.821  10.902  19.640  0.00  0.00    +0.000 S 
ATOM      7  O   UNL     1       0.751  10.757  21.082  0.00  0.00    +0.000 OA
ATOM      8  O   UNL     1       1.576  11.966  19.005  0.00  0.00    +0.000 OA
BRANCH   6   9
ATOM      9  C   UNL     1      -0.825  10.932  18.987  0.00  0.00    +0.000 A 
ATOM     10  C   UNL     1      -1.749  11.850  19.496  0.00  0.00    +0.000 A 
ATOM     11  C   UNL     1      -3.025  11.930  18.937  0.00  0.00    +0.000 A 
ATOM     12  C   UNL     1      -3.385  11.099  17.868  0.00  0.00    +0.000 A 
ATOM     13  C   UNL     1      -4.747  11.196  17.245  0.00  0.00    +0.000 C 
ATOM     14  C   UNL     1      -2.447  10.188  17.362  0.00  0.00    +0.000 A 
ATOM     15  C   UNL     1      -1.166  10.103  17.916  0.00  0.00    +0.000 A 
ENDBRANCH   6   9
ENDBRANCH   4   6
BRANCH   1  16
ATOM     16  C   UNL     1       2.407   5.864  19.345  0.00  0.00    +0.000 C 
BRANCH  16  20
ATOM     17  C   UNL     1       5.334   4.173  16.584  0.00  0.00    +0.000 A 
ATOM     18  C   UNL     1       5.681   5.180  17.479  0.00  0.00    +0.000 A 
ATOM     19  C   UNL     1       4.731   5.706  18.360  0.00  0.00    +0.000 A 
ATOM     20  C   UNL     1       3.392   5.272  18.341  0.00  0.00    +0.000 A 
ATOM     21  C   UNL     1       3.068   4.236  17.446  0.00  0.00    +0.000 A 
ATOM     22  C   UNL     1       4.023   3.703  16.566  0.00  0.00    +0.000 A 
BRANCH  17  24
ATOM     23  C   UNL     1       7.071   4.781  15.100  0.00  0.00    +0.000 C 
ATOM     24  O   UNL     1       6.344   3.754  15.762  0.00  0.00    +0.000 OA
ENDBRANCH  17  24
ENDBRANCH  16  20
BRANCH  16  25
ATOM     25  O   UNL     1       2.915   5.774  20.675  0.00  0.00    +0.000 OA
ATOM     26  H   UNL     1       2.401   6.416  21.195  0.00  0.00    +0.000 HD
ENDBRANCH  16  25
ENDBRANCH   1  16
TORSDOF 6
ENDMDL
MODEL 8
REMARK VINA RESULT:      -7.3      0.896      1.288
REMARK  Name = 
REMARK  8 active torsions:
REMARK  status: ('A' for Active; 'I' for Inactive)
REMARK    1  A    between atoms: C_1  and  O_2
REMARK    2  A    between atoms: O_2  and  C_3
REMARK    3  A    between atoms: C_6  and  C_7
REMARK    4  A    between atoms: C_7  and  O_8
REMARK    5  A    between atoms: C_7  and  C_9
REMARK    6  A    between atoms: N_12  and  S_13
REMARK    7  A    between atoms: S_13  and  C_16
REMARK    8  A    between atoms: C_19  and  C_20
REMARK                            x       y       z     vdW  Elec       q    Type
REMARK                         _______ _______ _______ _____ _____    ______ ____
ROOT
ATOM      1  C   UNL     1       2.068   6.770  19.796  0.00  0.00    +0.000 A 
ATOM      2  C   UNL     1       1.542   7.317  21.012  0.00  0.00    +0.000 A 
ATOM      3  C   UNL     1       1.219   8.640  20.787  0.00  0.00    +0.000 A 
ATOM      4  N   UNL     1       1.509   8.907  19.476  0.00  0.00    +0.000 N 
ATOM      5  C   UNL     1       2.076   7.813  18.877  0.00  0.00    +0.000 A 
ENDROOT
BRANCH   4   6
ATOM      6  S   UNL     1       1.286  10.416  18.722  0.00  0.00    +0.000 S 
ATOM      7  O   UNL     1       1.661  11.395  19.727  0.00  0.00    +0.000 OA
ATOM      8  O   UNL     1       1.961  10.326  17.441  0.00  0.00    +0.000 OA
BRANCH   6   9
ATOM      9  C   UNL     1      -0.454  10.543  18.419  0.00  0.00    +0.000 A 
ATOM     10  C   UNL     1      -1.198  11.519  19.090  0.00  0.00    +0.000 A 
ATOM     11  C   UNL     1      -2.554  11.674  18.802  0.00  0.00    +0.000 A 
ATOM     12  C   UNL     1      -3.174  10.861  17.845  0.00  0.00    +0.000 A 
ATOM     13  C   UNL     1      -4.627  11.038  17.512  0.00  0.00    +0.000 C 
ATOM     14  C   UNL     1      -2.415   9.892  17.174  0.00  0.00    +0.000 A 
ATOM     15  C   UNL     1      -1.056   9.731  17.455  0.00  0.00    +0.000 A 
ENDBRANCH   6   9
ENDBRANCH   4   6
BRANCH   1  16
ATOM     16  C   UNL     1       2.564   5.360  19.610  0.00  0.00    +0.000 C 
BRANCH  16  20
ATOM     17  C   UNL     1       6.177   5.467  17.164  0.00  0.00    +0.000 A 
ATOM     18  C   UNL     1       4.925   5.254  16.596  0.00  0.00    +0.000 A 
ATOM     19  C   UNL     1       3.778   5.228  17.396  0.00  0.00    +0.000 A 
ATOM     20  C   UNL     1       3.854   5.370  18.794  0.00  0.00    +0.000 A 
ATOM     21  C   UNL     1       5.126   5.610  19.345  0.00  0.00    +0.000 A 
ATOM     22  C   UNL     1       6.277   5.642  18.542  0.00  0.00    +0.000 A 
BRANCH  17  24
ATOM     23  C   UNL     1       6.981   4.798  15.044  0.00  0.00    +0.000 C 
ATOM     24  O   UNL     1       7.223   5.453  16.283  0.00  0.00    +0.000 OA
ENDBRANCH  17  24
ENDBRANCH  16  20
BRANCH  16  25
ATOM     25  O   UNL     1       2.772   4.768  20.891  0.00  0.00    +0.000 OA
ATOM     26  H   UNL     1       2.482   3.844  20.802  0.00  0.00    +0.000 HD
ENDBRANCH  16  25
ENDBRANCH   1  16
TORSDOF 6
ENDMDL
MODEL 9
REMARK VINA RESULT:      -7.3      2.789      8.887
REMARK  Name = 
REMARK  8 active torsions:
REMARK  status: ('A' for Active; 'I' for Inactive)
REMARK    1  A    between atoms: C_1  and  O_2
REMARK    2  A    between atoms: O_2  and  C_3
REMARK    3  A    between atoms: C_6  and  C_7
REMARK    4  A    between atoms: C_7  and  O_8
REMARK    5  A    between atoms: C_7  and  C_9
REMARK    6  A    between atoms: N_12  and  S_13
REMARK    7  A    between atoms: S_13  and  C_16
REMARK    8  A    between atoms: C_19  and  C_20
REMARK                            x       y       z     vdW  Elec       q    Type
REMARK                         _______ _______ _______ _____ _____    ______ ____
ROOT
ATOM      1  C   UNL     1      -0.723  11.239  18.917  0.00  0.00    +0.000 A 
ATOM      2  C   UNL     1       0.240  12.050  19.602  0.00  0.00    +0.000 A 
ATOM      3  C   UNL     1       0.844  11.277  20.574  0.00  0.00    +0.000 A 
ATOM      4  N   UNL     1       0.299  10.025  20.487  0.00  0.00    +0.000 N 
ATOM      5  C   UNL     1      -0.688   9.995  19.537  0.00  0.00    +0.000 A 
ENDROOT
BRANCH   4   6
ATOM      6  S   UNL     1       0.719   8.713  21.487  0.00  0.00    +0.000 S 
ATOM      7  O   UNL     1       1.665   9.260  22.442  0.00  0.00    +0.000 OA
ATOM      8  O   UNL     1      -0.532   8.106  21.897  0.00  0.00    +0.000 OA
BRANCH   6   9
ATOM      9  C   UNL     1       1.566   7.567  20.434  0.00  0.00    +0.000 A 
ATOM     10  C   UNL     1       1.588   6.211  20.774  0.00  0.00    +0.000 A 
ATOM     11  C   UNL     1       2.189   5.292  19.913  0.00  0.00    +0.000 A 
ATOM     12  C   UNL     1       2.767   5.719  18.711  0.00  0.00    +0.000 A 
ATOM     13  C   UNL     1       3.394   4.733  17.768  0.00  0.00    +0.000 C 
ATOM     14  C   UNL     1       2.732   7.080  18.379  0.00  0.00    +0.000 A 
ATOM     15  C   UNL     1       2.130   8.007  19.234  0.00  0.00    +0.000 A 
ENDBRANCH   6   9
ENDBRANCH   4   6
BRANCH   1  16
ATOM     16  C   UNL     1      -1.620  11.698  17.799  0.00  0.00    +0.000 C 
BRANCH  16  20
ATOM     17  C   UNL     1      -5.770  11.725  19.151  0.00  0.00    +0.000 A 
ATOM     18  C   UNL     1      -5.401  11.105  17.961  0.00  0.00    +0.000 A 
ATOM     19  C   UNL     1      -4.065  11.103  17.547  0.00  0.00    +0.000 A 
ATOM     20  C   UNL     1      -3.065  11.760  18.288  0.00  0.00    +0.000 A 
ATOM     21  C   UNL     1      -3.455  12.358  19.500  0.00  0.00    +0.000 A 
ATOM     22  C   UNL     1      -4.794  12.356  19.919  0.00  0.00    +0.000 A 
BRANCH  17  24
ATOM     23  C   UNL     1      -7.438  11.409  20.796  0.00  0.00    +0.000 C 
ATOM     24  O   UNL     1      -7.106  11.677  19.439  0.00  0.00    +0.000 OA
ENDBRANCH  17  24
ENDBRANCH  16  20
BRANCH  16  25
ATOM     25  O   UNL     1      -1.179  12.976  17.343  0.00  0.00    +0.000 OA
ATOM     26  H   UNL     1      -1.980  13.437  17.042  0.00  0.00    +0.000 HD
ENDBRANCH  16  25
ENDBRANCH   1  16
TORSDOF 6
ENDMDL
