MODEL 1
REMARK VINA RESULT:      -5.2      0.000      0.000
REMARK  Name = 
REMARK  14 active torsions:
REMARK  status: ('A' for Active; 'I' for Inactive)
REMARK    1  A    between atoms: C_1  and  C_2
REMARK    2  A    between atoms: C_2  and  O_3
REMARK    3  A    between atoms: O_3  and  C_4
REMARK    4  A    between atoms: C_4  and  C_6
REMARK    5  A    between atoms: C_6  and  C_7
REMARK    6  A    between atoms: C_6  and  N_12
REMARK    7  A    between atoms: C_7  and  O_9
REMARK    8  A    between atoms: O_9  and  C_10
REMARK    9  A    between atoms: C_10  and  C_11
REMARK   10  A    between atoms: N_12  and  C_13
REMARK   11  A    between atoms: N_18  and  C_19
REMARK   12  A    between atoms: N_18  and  C_20
REMARK   13  A    between atoms: N_23  and  C_24
REMARK   14  A    between atoms: N_23  and  C_25
REMARK                            x       y       z     vdW  Elec       q    Type
REMARK                         _______ _______ _______ _____ _____    ______ ____
ROOT
ATOM      1  N   UNL     1      -1.571  12.101  20.271  0.00  0.00    +0.000 N 
ATOM      2  C   UNL     1      -2.918  12.349  20.484  0.00  0.00    +0.000 A 
ATOM      3  N   UNL     1      -3.755  12.256  19.457  0.00  0.00    +0.000 NA
ATOM      4  C   UNL     1      -5.046  12.433  19.710  0.00  0.00    +0.000 A 
ATOM      5  N   UNL     1      -5.950  12.335  18.675  0.00  0.00    +0.000 N 
ATOM      6  C   UNL     1      -5.523  12.107  17.312  0.00  0.00    +0.000 C 
ATOM      7  C   UNL     1      -7.376  12.324  18.939  0.00  0.00    +0.000 C 
ATOM      8  N   UNL     1      -5.499  12.693  20.930  0.00  0.00    +0.000 NA
ATOM      9  C   UNL     1      -4.619  12.798  21.915  0.00  0.00    +0.000 A 
ATOM     10  N   UNL     1      -5.068  13.034  23.198  0.00  0.00    +0.000 N 
ATOM     11  C   UNL     1      -6.471  13.295  23.450  0.00  0.00    +0.000 C 
ATOM     12  C   UNL     1      -4.126  13.343  24.259  0.00  0.00    +0.000 C 
ATOM     13  N   UNL     1      -3.321  12.626  21.716  0.00  0.00    +0.000 NA
ENDROOT
BRANCH   1  14
ATOM     14  C   UNL     1      -0.656  12.115  21.381  0.00  0.00    +0.000 C 
ATOM     15  N   UNL     1       0.020  12.101  22.318  0.00  0.00    +0.000 NA
ENDBRANCH   1  14
BRANCH   1  16
ATOM     16  C   UNL     1      -1.026  11.891  18.926  0.00  0.00    +0.000 C 
BRANCH  16  17
ATOM     17  C   UNL     1       0.080  12.881  18.558  0.00  0.00    +0.000 C 
ATOM     18  O   UNL     1       1.269  12.585  18.473  0.00  0.00    +0.000 OA
BRANCH  17  19
ATOM     19  O   UNL     1      -0.394  14.126  18.258  0.00  0.00    +0.000 OA
BRANCH  19  21
ATOM     20  C   UNL     1      -0.189  16.551  18.505  0.00  0.00    +0.000 C 
ATOM     21  C   UNL     1       0.081  15.184  19.110  0.00  0.00    +0.000 C 
ENDBRANCH  19  21
ENDBRANCH  17  19
ENDBRANCH  16  17
BRANCH  16  22
ATOM     22  C   UNL     1      -0.549  10.451  18.731  0.00  0.00    +0.000 C 
ATOM     23  O   UNL     1       0.095   9.794  19.539  0.00  0.00    +0.000 OA
BRANCH  22  24
ATOM     24  O   UNL     1      -0.933   9.977  17.508  0.00  0.00    +0.000 OA
BRANCH  24  25
ATOM     25  C   UNL     1      -2.352   9.872  17.315  0.00  0.00    +0.000 C 
ATOM     26  C   UNL     1      -2.746   9.912  15.853  0.00  0.00    +0.000 C 
ENDBRANCH  24  25
ENDBRANCH  22  24
ENDBRANCH  16  22
ENDBRANCH   1  16
TORSDOF 8
ENDMDL
MODEL 2
REMARK VINA RESULT:      -5.1      0.843      1.225
REMARK  Name = 
REMARK  14 active torsions:
REMARK  status: ('A' for Active; 'I' for Inactive)
REMARK    1  A    between atoms: C_1  and  C_2
REMARK    2  A    between atoms: C_2  and  O_3
REMARK    3  A    between atoms: O_3  and  C_4
REMARK    4  A    between atoms: C_4  and  C_6
REMARK    5  A    between atoms: C_6  and  C_7
REMARK    6  A    between atoms: C_6  and  N_12
REMARK    7  A    between atoms: C_7  and  O_9
REMARK    8  A    between atoms: O_9  and  C_10
REMARK    9  A    between atoms: C_10  and  C_11
REMARK   10  A    between atoms: N_12  and  C_13
REMARK   11  A    between atoms: N_18  and  C_19
REMARK   12  A    between atoms: N_18  and  C_20
REMARK   13  A    between atoms: N_23  and  C_24
REMARK   14  A    between atoms: N_23  and  C_25
REMARK                            x       y       z     vdW  Elec       q    Type
REMARK                         _______ _______ _______ _____ _____    ______ ____
ROOT
ATOM      1  N   UNL     1      -1.695  12.232  20.253  0.00  0.00    +0.000 N 
ATOM      2  C   UNL     1      -3.042  12.441  20.498  0.00  0.00    +0.000 A 
ATOM      3  N   UNL     1      -3.902  12.323  19.492  0.00  0.00    +0.000 NA
ATOM      4  C   UNL     1      -5.191  12.461  19.777  0.00  0.00    +0.000 A 
ATOM      5  N   UNL     1      -6.117  12.337  18.765  0.00  0.00    +0.000 N 
ATOM      6  C   UNL     1      -5.717  12.122  17.392  0.00  0.00    +0.000 C 
ATOM      7  C   UNL     1      -7.535  12.284  19.064  0.00  0.00    +0.000 C 
ATOM      8  N   UNL     1      -5.622  12.708  21.008  0.00  0.00    +0.000 NA
ATOM      9  C   UNL     1      -4.720  12.839  21.972  0.00  0.00    +0.000 A 
ATOM     10  N   UNL     1      -5.145  13.062  23.266  0.00  0.00    +0.000 N 
ATOM     11  C   UNL     1      -6.547  13.281  23.553  0.00  0.00    +0.000 C 
ATOM     12  C   UNL     1      -4.186  13.398  24.303  0.00  0.00    +0.000 C 
ATOM     13  N   UNL     1      -3.423  12.705  21.740  0.00  0.00    +0.000 NA
ENDROOT
BRANCH   1  14
ATOM     14  C   UNL     1      -0.753  12.274  21.339  0.00  0.00    +0.000 C 
ATOM     15  N   UNL     1       0.062  12.303  22.158  0.00  0.00    +0.000 NA
ENDBRANCH   1  14
BRANCH   1  16
ATOM     16  C   UNL     1      -1.178  12.039  18.894  0.00  0.00    +0.000 C 
BRANCH  16  17
ATOM     17  C   UNL     1      -0.056  13.013  18.528  0.00  0.00    +0.000 C 
ATOM     18  O   UNL     1      -0.223  14.213  18.330  0.00  0.00    +0.000 OA
BRANCH  17  19
ATOM     19  O   UNL     1       1.178  12.426  18.514  0.00  0.00    +0.000 OA
BRANCH  19  21
ATOM     20  C   UNL     1       2.717  13.608  20.003  0.00  0.00    +0.000 C 
ATOM     21  C   UNL     1       2.289  13.338  18.570  0.00  0.00    +0.000 C 
ENDBRANCH  19  21
ENDBRANCH  17  19
ENDBRANCH  16  17
BRANCH  16  22
ATOM     22  C   UNL     1      -0.736  10.594  18.661  0.00  0.00    +0.000 C 
ATOM     23  O   UNL     1      -0.156   9.882  19.472  0.00  0.00    +0.000 OA
BRANCH  22  24
ATOM     24  O   UNL     1      -1.068  10.185  17.400  0.00  0.00    +0.000 OA
BRANCH  24  25
ATOM     25  C   UNL     1      -2.462   9.906  17.199  0.00  0.00    +0.000 C 
ATOM     26  C   UNL     1      -2.854   9.913  15.737  0.00  0.00    +0.000 C 
ENDBRANCH  24  25
ENDBRANCH  22  24
ENDBRANCH  16  22
ENDBRANCH   1  16
TORSDOF 8
ENDMDL
MODEL 3
REMARK VINA RESULT:      -5.1      8.610     11.196
REMARK  Name = 
REMARK  14 active torsions:
REMARK  status: ('A' for Active; 'I' for Inactive)
REMARK    1  A    between atoms: C_1  and  C_2
REMARK    2  A    between atoms: C_2  and  O_3
REMARK    3  A    between atoms: O_3  and  C_4
REMARK    4  A    between atoms: C_4  and  C_6
REMARK    5  A    between atoms: C_6  and  C_7
REMARK    6  A    between atoms: C_6  and  N_12
REMARK    7  A    between atoms: C_7  and  O_9
REMARK    8  A    between atoms: O_9  and  C_10
REMARK    9  A    between atoms: C_10  and  C_11
REMARK   10  A    between atoms: N_12  and  C_13
REMARK   11  A    between atoms: N_18  and  C_19
REMARK   12  A    between atoms: N_18  and  C_20
REMARK   13  A    between atoms: N_23  and  C_24
REMARK   14  A    between atoms: N_23  and  C_25
REMARK                            x       y       z     vdW  Elec       q    Type
REMARK                         _______ _______ _______ _____ _____    ______ ____
ROOT
ATOM      1  N   UNL     1       5.048   5.694  17.021  0.00  0.00    +0.000 N 
ATOM      2  C   UNL     1       4.147   5.529  18.061  0.00  0.00    +0.000 A 
ATOM      3  N   UNL     1       4.125   4.370  18.709  0.00  0.00    +0.000 NA
ATOM      4  C   UNL     1       3.299   4.271  19.744  0.00  0.00    +0.000 A 
ATOM      5  N   UNL     1       3.251   3.089  20.451  0.00  0.00    +0.000 N 
ATOM      6  C   UNL     1       4.030   1.936  20.056  0.00  0.00    +0.000 C 
ATOM      7  C   UNL     1       2.516   3.004  21.697  0.00  0.00    +0.000 C 
ATOM      8  N   UNL     1       2.521   5.275  20.129  0.00  0.00    +0.000 NA
ATOM      9  C   UNL     1       2.566   6.403  19.432  0.00  0.00    +0.000 A 
ATOM     10  N   UNL     1       1.793   7.472  19.833  0.00  0.00    +0.000 N 
ATOM     11  C   UNL     1       0.844   7.330  20.919  0.00  0.00    +0.000 C 
ATOM     12  C   UNL     1       1.674   8.647  18.988  0.00  0.00    +0.000 C 
ATOM     13  N   UNL     1       3.376   6.554  18.396  0.00  0.00    +0.000 NA
ENDROOT
BRANCH   1  14
ATOM     14  C   UNL     1       5.149   6.965  16.356  0.00  0.00    +0.000 C 
ATOM     15  N   UNL     1       5.219   8.021  15.892  0.00  0.00    +0.000 NA
ENDBRANCH   1  14
BRANCH   1  16
ATOM     16  C   UNL     1       5.862   4.582  16.519  0.00  0.00    +0.000 C 
BRANCH  16  17
ATOM     17  C   UNL     1       6.151   4.670  15.019  0.00  0.00    +0.000 C 
ATOM     18  O   UNL     1       7.064   5.331  14.532  0.00  0.00    +0.000 OA
BRANCH  17  19
ATOM     19  O   UNL     1       5.332   3.875  14.269  0.00  0.00    +0.000 OA
BRANCH  19  21
ATOM     20  C   UNL     1       4.780   3.385  11.937  0.00  0.00    +0.000 C 
ATOM     21  C   UNL     1       5.867   3.476  12.995  0.00  0.00    +0.000 C 
ENDBRANCH  19  21
ENDBRANCH  17  19
ENDBRANCH  16  17
BRANCH  16  22
ATOM     22  C   UNL     1       7.161   4.434  17.312  0.00  0.00    +0.000 C 
ATOM     23  O   UNL     1       8.233   4.046  16.865  0.00  0.00    +0.000 OA
BRANCH  22  24
ATOM     24  O   UNL     1       6.972   4.791  18.617  0.00  0.00    +0.000 OA
BRANCH  24  25
ATOM     25  C   UNL     1       7.986   5.648  19.166  0.00  0.00    +0.000 C 
ATOM     26  C   UNL     1       8.020   7.009  18.503  0.00  0.00    +0.000 C 
ENDBRANCH  24  25
ENDBRANCH  22  24
ENDBRANCH  16  22
ENDBRANCH   1  16
TORSDOF 8
ENDMDL
MODEL 4
REMARK VINA RESULT:      -4.9      1.601      4.555
REMARK  Name = 
REMARK  14 active torsions:
REMARK  status: ('A' for Active; 'I' for Inactive)
REMARK    1  A    between atoms: C_1  and  C_2
REMARK    2  A    between atoms: C_2  and  O_3
REMARK    3  A    between atoms: O_3  and  C_4
REMARK    4  A    between atoms: C_4  and  C_6
REMARK    5  A    between atoms: C_6  and  C_7
REMARK    6  A    between atoms: C_6  and  N_12
REMARK    7  A    between atoms: C_7  and  O_9
REMARK    8  A    between atoms: O_9  and  C_10
REMARK    9  A    between atoms: C_10  and  C_11
REMARK   10  A    between atoms: N_12  and  C_13
REMARK   11  A    between atoms: N_18  and  C_19
REMARK   12  A    between atoms: N_18  and  C_20
REMARK   13  A    between atoms: N_23  and  C_24
REMARK   14  A    between atoms: N_23  and  C_25
REMARK                            x       y       z     vdW  Elec       q    Type
REMARK                         _______ _______ _______ _____ _____    ______ ____
ROOT
ATOM      1  N   UNL     1      -2.102  11.732  18.868  0.00  0.00    +0.000 N 
ATOM      2  C   UNL     1      -3.152  12.161  19.663  0.00  0.00    +0.000 A 
ATOM      3  N   UNL     1      -2.887  12.607  20.886  0.00  0.00    +0.000 NA
ATOM      4  C   UNL     1      -3.907  13.075  21.594  0.00  0.00    +0.000 A 
ATOM      5  N   UNL     1      -3.676  13.556  22.864  0.00  0.00    +0.000 N 
ATOM      6  C   UNL     1      -2.362  13.506  23.467  0.00  0.00    +0.000 C 
ATOM      7  C   UNL     1      -4.719  14.253  23.591  0.00  0.00    +0.000 C 
ATOM      8  N   UNL     1      -5.146  13.104  21.118  0.00  0.00    +0.000 NA
ATOM      9  C   UNL     1      -5.359  12.627  19.899  0.00  0.00    +0.000 A 
ATOM     10  N   UNL     1      -6.632  12.677  19.369  0.00  0.00    +0.000 N 
ATOM     11  C   UNL     1      -7.748  13.125  20.176  0.00  0.00    +0.000 C 
ATOM     12  C   UNL     1      -6.934  11.994  18.125  0.00  0.00    +0.000 C 
ATOM     13  N   UNL     1      -4.375  12.153  19.151  0.00  0.00    +0.000 NA
ENDROOT
BRANCH   1  14
ATOM     14  C   UNL     1      -2.351  11.321  17.511  0.00  0.00    +0.000 C 
ATOM     15  N   UNL     1      -2.528  11.064  16.399  0.00  0.00    +0.000 NA
ENDBRANCH   1  14
BRANCH   1  16
ATOM     16  C   UNL     1      -0.736  11.610  19.389  0.00  0.00    +0.000 C 
BRANCH  16  17
ATOM     17  C   UNL     1      -0.127  10.223  19.176  0.00  0.00    +0.000 C 
ATOM     18  O   UNL     1       0.266   9.802  18.091  0.00  0.00    +0.000 OA
BRANCH  17  19
ATOM     19  O   UNL     1       0.007   9.514  20.336  0.00  0.00    +0.000 OA
BRANCH  19  21
ATOM     20  C   UNL     1      -0.401   9.338  22.741  0.00  0.00    +0.000 C 
ATOM     21  C   UNL     1      -0.253  10.257  21.540  0.00  0.00    +0.000 C 
ENDBRANCH  19  21
ENDBRANCH  17  19
ENDBRANCH  16  17
BRANCH  16  22
ATOM     22  C   UNL     1       0.180  12.695  18.822  0.00  0.00    +0.000 C 
ATOM     23  O   UNL     1      -0.168  13.626  18.107  0.00  0.00    +0.000 OA
BRANCH  22  24
ATOM     24  O   UNL     1       1.472  12.488  19.216  0.00  0.00    +0.000 OA
BRANCH  24  25
ATOM     25  C   UNL     1       2.460  12.709  18.198  0.00  0.00    +0.000 C 
ATOM     26  C   UNL     1       3.186  14.028  18.365  0.00  0.00    +0.000 C 
ENDBRANCH  24  25
ENDBRANCH  22  24
ENDBRANCH  16  22
ENDBRANCH   1  16
TORSDOF 8
ENDMDL
MODEL 5
REMARK VINA RESULT:      -4.9      1.448      1.986
REMARK  Name = 
REMARK  14 active torsions:
REMARK  status: ('A' for Active; 'I' for Inactive)
REMARK    1  A    between atoms: C_1  and  C_2
REMARK    2  A    between atoms: C_2  and  O_3
REMARK    3  A    between atoms: O_3  and  C_4
REMARK    4  A    between atoms: C_4  and  C_6
REMARK    5  A    between atoms: C_6  and  C_7
REMARK    6  A    between atoms: C_6  and  N_12
REMARK    7  A    between atoms: C_7  and  O_9
REMARK    8  A    between atoms: O_9  and  C_10
REMARK    9  A    between atoms: C_10  and  C_11
REMARK   10  A    between atoms: N_12  and  C_13
REMARK   11  A    between atoms: N_18  and  C_19
REMARK   12  A    between atoms: N_18  and  C_20
REMARK   13  A    between atoms: N_23  and  C_24
REMARK   14  A    between atoms: N_23  and  C_25
REMARK                            x       y       z     vdW  Elec       q    Type
REMARK                         _______ _______ _______ _____ _____    ______ ____
ROOT
ATOM      1  N   UNL     1      -1.463  12.326  20.514  0.00  0.00    +0.000 N 
ATOM      2  C   UNL     1      -2.841  12.403  20.401  0.00  0.00    +0.000 A 
ATOM      3  N   UNL     1      -3.404  12.107  19.235  0.00  0.00    +0.000 NA
ATOM      4  C   UNL     1      -4.731  12.124  19.182  0.00  0.00    +0.000 A 
ATOM      5  N   UNL     1      -5.356  11.814  17.994  0.00  0.00    +0.000 N 
ATOM      6  C   UNL     1      -4.605  11.531  16.791  0.00  0.00    +0.000 C 
ATOM      7  C   UNL     1      -6.794  11.628  17.944  0.00  0.00    +0.000 C 
ATOM      8  N   UNL     1      -5.479  12.422  20.237  0.00  0.00    +0.000 NA
ATOM      9  C   UNL     1      -4.865  12.732  21.371  0.00  0.00    +0.000 A 
ATOM     10  N   UNL     1      -5.621  13.012  22.491  0.00  0.00    +0.000 N 
ATOM     11  C   UNL     1      -7.064  13.097  22.403  0.00  0.00    +0.000 C 
ATOM     12  C   UNL     1      -4.989  13.539  23.687  0.00  0.00    +0.000 C 
ATOM     13  N   UNL     1      -3.545  12.725  21.477  0.00  0.00    +0.000 NA
ENDROOT
BRANCH   1  14
ATOM     14  C   UNL     1      -0.833  12.562  21.786  0.00  0.00    +0.000 C 
ATOM     15  N   UNL     1      -0.377  12.698  22.839  0.00  0.00    +0.000 NA
ENDBRANCH   1  14
BRANCH   1  16
ATOM     16  C   UNL     1      -0.604  12.080  19.351  0.00  0.00    +0.000 C 
BRANCH  16  17
ATOM     17  C   UNL     1       0.336  13.245  19.033  0.00  0.00    +0.000 C 
ATOM     18  O   UNL     1      -0.030  14.313  18.549  0.00  0.00    +0.000 OA
BRANCH  17  19
ATOM     19  O   UNL     1       1.627  13.009  19.412  0.00  0.00    +0.000 OA
BRANCH  19  21
ATOM     20  C   UNL     1       3.529  14.509  19.071  0.00  0.00    +0.000 C 
ATOM     21  C   UNL     1       2.628  13.441  18.474  0.00  0.00    +0.000 C 
ENDBRANCH  19  21
ENDBRANCH  17  19
ENDBRANCH  16  17
BRANCH  16  22
ATOM     22  C   UNL     1       0.183  10.777  19.499  0.00  0.00    +0.000 C 
ATOM     23  O   UNL     1       0.578  10.294  20.553  0.00  0.00    +0.000 OA
BRANCH  22  24
ATOM     24  O   UNL     1       0.404  10.205  18.278  0.00  0.00    +0.000 OA
BRANCH  24  25
ATOM     25  C   UNL     1       1.771   9.863  18.005  0.00  0.00    +0.000 C 
ATOM     26  C   UNL     1       1.980   8.371  17.850  0.00  0.00    +0.000 C 
ENDBRANCH  24  25
ENDBRANCH  22  24
ENDBRANCH  16  22
ENDBRANCH   1  16
TORSDOF 8
ENDMDL
MODEL 6
REMARK VINA RESULT:      -4.9      3.276      6.295
REMARK  Name = 
REMARK  14 active torsions:
REMARK  status: ('A' for Active; 'I' for Inactive)
REMARK    1  A    between atoms: C_1  and  C_2
REMARK    2  A    between atoms: C_2  and  O_3
REMARK    3  A    between atoms: O_3  and  C_4
REMARK    4  A    between atoms: C_4  and  C_6
REMARK    5  A    between atoms: C_6  and  C_7
REMARK    6  A    between atoms: C_6  and  N_12
REMARK    7  A    between atoms: C_7  and  O_9
REMARK    8  A    between atoms: O_9  and  C_10
REMARK    9  A    between atoms: C_10  and  C_11
REMARK   10  A    between atoms: N_12  and  C_13
REMARK   11  A    between atoms: N_18  and  C_19
REMARK   12  A    between atoms: N_18  and  C_20
REMARK   13  A    between atoms: N_23  and  C_24
REMARK   14  A    between atoms: N_23  and  C_25
REMARK                            x       y       z     vdW  Elec       q    Type
REMARK                         _______ _______ _______ _____ _____    ______ ____
ROOT
ATOM      1  N   UNL     1      -3.055  13.140  21.404  0.00  0.00    +0.000 N 
ATOM      2  C   UNL     1      -2.672  12.366  20.321  0.00  0.00    +0.000 A 
ATOM      3  N   UNL     1      -3.492  12.272  19.280  0.00  0.00    +0.000 NA
ATOM      4  C   UNL     1      -3.064  11.579  18.232  0.00  0.00    +0.000 A 
ATOM      5  N   UNL     1      -3.878  11.465  17.127  0.00  0.00    +0.000 N 
ATOM      6  C   UNL     1      -5.211  12.028  17.105  0.00  0.00    +0.000 C 
ATOM      7  C   UNL     1      -3.375  10.890  15.895  0.00  0.00    +0.000 C 
ATOM      8  N   UNL     1      -1.871  10.998  18.207  0.00  0.00    +0.000 NA
ATOM      9  C   UNL     1      -1.101  11.103  19.282  0.00  0.00    +0.000 A 
ATOM     10  N   UNL     1       0.157  10.536  19.267  0.00  0.00    +0.000 N 
ATOM     11  C   UNL     1       0.585   9.724  18.147  0.00  0.00    +0.000 C 
ATOM     12  C   UNL     1       0.944  10.469  20.485  0.00  0.00    +0.000 C 
ATOM     13  N   UNL     1      -1.480  11.787  20.350  0.00  0.00    +0.000 NA
ENDROOT
BRANCH   1  14
ATOM     14  C   UNL     1      -2.152  13.324  22.509  0.00  0.00    +0.000 C 
ATOM     15  N   UNL     1      -1.432  13.551  23.384  0.00  0.00    +0.000 NA
ENDBRANCH   1  14
BRANCH   1  16
ATOM     16  C   UNL     1      -4.396  13.728  21.499  0.00  0.00    +0.000 C 
BRANCH  16  17
ATOM     17  C   UNL     1      -5.378  12.873  22.302  0.00  0.00    +0.000 C 
ATOM     18  O   UNL     1      -5.066  12.205  23.284  0.00  0.00    +0.000 OA
BRANCH  17  19
ATOM     19  O   UNL     1      -6.666  12.983  21.861  0.00  0.00    +0.000 OA
BRANCH  19  21
ATOM     20  C   UNL     1      -7.285  11.040  20.510  0.00  0.00    +0.000 C 
ATOM     21  C   UNL     1      -6.897  12.509  20.522  0.00  0.00    +0.000 C 
ENDBRANCH  19  21
ENDBRANCH  17  19
ENDBRANCH  16  17
BRANCH  16  22
ATOM     22  C   UNL     1      -4.346  15.154  22.050  0.00  0.00    +0.000 C 
ATOM     23  O   UNL     1      -3.818  16.115  21.504  0.00  0.00    +0.000 OA
BRANCH  22  24
ATOM     24  O   UNL     1      -4.973  15.225  23.262  0.00  0.00    +0.000 OA
BRANCH  24  25
ATOM     25  C   UNL     1      -4.208  15.846  24.306  0.00  0.00    +0.000 C 
ATOM     26  C   UNL     1      -4.914  17.039  24.916  0.00  0.00    +0.000 C 
ENDBRANCH  24  25
ENDBRANCH  22  24
ENDBRANCH  16  22
ENDBRANCH   1  16
TORSDOF 8
ENDMDL
MODEL 7
REMARK VINA RESULT:      -4.9      2.083      4.994
REMARK  Name = 
REMARK  14 active torsions:
REMARK  status: ('A' for Active; 'I' for Inactive)
REMARK    1  A    between atoms: C_1  and  C_2
REMARK    2  A    between atoms: C_2  and  O_3
REMARK    3  A    between atoms: O_3  and  C_4
REMARK    4  A    between atoms: C_4  and  C_6
REMARK    5  A    between atoms: C_6  and  C_7
REMARK    6  A    between atoms: C_6  and  N_12
REMARK    7  A    between atoms: C_7  and  O_9
REMARK    8  A    between atoms: O_9  and  C_10
REMARK    9  A    between atoms: C_10  and  C_11
REMARK   10  A    between atoms: N_12  and  C_13
REMARK   11  A    between atoms: N_18  and  C_19
REMARK   12  A    between atoms: N_18  and  C_20
REMARK   13  A    between atoms: N_23  and  C_24
REMARK   14  A    between atoms: N_23  and  C_25
REMARK                            x       y       z     vdW  Elec       q    Type
REMARK                         _______ _______ _______ _____ _____    ______ ____
ROOT
ATOM      1  N   UNL     1      -1.869  12.568  20.591  0.00  0.00    +0.000 N 
ATOM      2  C   UNL     1      -3.254  12.541  20.619  0.00  0.00    +0.000 A 
ATOM      3  N   UNL     1      -3.873  12.660  21.788  0.00  0.00    +0.000 NA
ATOM      4  C   UNL     1      -5.199  12.700  21.769  0.00  0.00    +0.000 A 
ATOM      5  N   UNL     1      -5.881  12.832  22.959  0.00  0.00    +0.000 N 
ATOM      6  C   UNL     1      -5.192  12.866  24.230  0.00  0.00    +0.000 C 
ATOM      7  C   UNL     1      -7.310  13.078  22.967  0.00  0.00    +0.000 C 
ATOM      8  N   UNL     1      -5.895  12.625  20.641  0.00  0.00    +0.000 NA
ATOM      9  C   UNL     1      -5.228  12.484  19.504  0.00  0.00    +0.000 A 
ATOM     10  N   UNL     1      -5.927  12.439  18.315  0.00  0.00    +0.000 N 
ATOM     11  C   UNL     1      -7.375  12.412  18.313  0.00  0.00    +0.000 C 
ATOM     12  C   UNL     1      -5.247  12.095  17.079  0.00  0.00    +0.000 C 
ATOM     13  N   UNL     1      -3.905  12.444  19.468  0.00  0.00    +0.000 NA
ENDROOT
BRANCH   1  14
ATOM     14  C   UNL     1      -1.175  12.523  19.332  0.00  0.00    +0.000 C 
ATOM     15  N   UNL     1      -0.674  12.536  18.291  0.00  0.00    +0.000 NA
ENDBRANCH   1  14
BRANCH   1  16
ATOM     16  C   UNL     1      -1.071  12.568  21.822  0.00  0.00    +0.000 C 
BRANCH  16  17
ATOM     17  C   UNL     1      -0.589  11.175  22.232  0.00  0.00    +0.000 C 
ATOM     18  O   UNL     1      -0.368  10.836  23.392  0.00  0.00    +0.000 OA
BRANCH  17  19
ATOM     19  O   UNL     1      -0.497  10.309  21.180  0.00  0.00    +0.000 OA
BRANCH  19  21
ATOM     20  C   UNL     1       0.927   8.322  21.237  0.00  0.00    +0.000 C 
ATOM     21  C   UNL     1       0.824   9.804  20.917  0.00  0.00    +0.000 C 
ENDBRANCH  19  21
ENDBRANCH  17  19
ENDBRANCH  16  17
BRANCH  16  22
ATOM     22  C   UNL     1       0.105  13.540  21.729  0.00  0.00    +0.000 C 
ATOM     23  O   UNL     1       1.279  13.232  21.562  0.00  0.00    +0.000 OA
BRANCH  22  24
ATOM     24  O   UNL     1      -0.324  14.830  21.867  0.00  0.00    +0.000 OA
BRANCH  24  25
ATOM     25  C   UNL     1      -1.040  15.106  23.081  0.00  0.00    +0.000 C 
ATOM     26  C   UNL     1      -2.357  15.811  22.834  0.00  0.00    +0.000 C 
ENDBRANCH  24  25
ENDBRANCH  22  24
ENDBRANCH  16  22
ENDBRANCH   1  16
TORSDOF 8
ENDMDL
MODEL 8
REMARK VINA RESULT:      -4.9      2.098      5.205
REMARK  Name = 
REMARK  14 active torsions:
REMARK  status: ('A' for Active; 'I' for Inactive)
REMARK    1  A    between atoms: C_1  and  C_2
REMARK    2  A    between atoms: C_2  and  O_3
REMARK    3  A    between atoms: O_3  and  C_4
REMARK    4  A    between atoms: C_4  and  C_6
REMARK    5  A    between atoms: C_6  and  C_7
REMARK    6  A    between atoms: C_6  and  N_12
REMARK    7  A    between atoms: C_7  and  O_9
REMARK    8  A    between atoms: O_9  and  C_10
REMARK    9  A    between atoms: C_10  and  C_11
REMARK   10  A    between atoms: N_12  and  C_13
REMARK   11  A    between atoms: N_18  and  C_19
REMARK   12  A    between atoms: N_18  and  C_20
REMARK   13  A    between atoms: N_23  and  C_24
REMARK   14  A    between atoms: N_23  and  C_25
REMARK                            x       y       z     vdW  Elec       q    Type
REMARK                         _______ _______ _______ _____ _____    ______ ____
ROOT
ATOM      1  N   UNL     1      -1.568  12.936  20.598  0.00  0.00    +0.000 N 
ATOM      2  C   UNL     1      -2.912  12.728  20.863  0.00  0.00    +0.000 A 
ATOM      3  N   UNL     1      -3.331  12.784  22.123  0.00  0.00    +0.000 NA
ATOM      4  C   UNL     1      -4.635  12.649  22.333  0.00  0.00    +0.000 A 
ATOM      5  N   UNL     1      -5.114  12.710  23.623  0.00  0.00    +0.000 N 
ATOM      6  C   UNL     1      -4.227  12.855  24.757  0.00  0.00    +0.000 C 
ATOM      7  C   UNL     1      -6.540  12.765  23.879  0.00  0.00    +0.000 C 
ATOM      8  N   UNL     1      -5.497  12.465  21.341  0.00  0.00    +0.000 NA
ATOM      9  C   UNL     1      -5.023  12.394  20.105  0.00  0.00    +0.000 A 
ATOM     10  N   UNL     1      -5.903  12.238  19.054  0.00  0.00    +0.000 N 
ATOM     11  C   UNL     1      -7.314  12.021  19.301  0.00  0.00    +0.000 C 
ATOM     12  C   UNL     1      -5.406  11.967  17.717  0.00  0.00    +0.000 C 
ATOM     13  N   UNL     1      -3.732  12.528  19.841  0.00  0.00    +0.000 NA
ENDROOT
BRANCH   1  14
ATOM     14  C   UNL     1      -1.101  12.962  19.238  0.00  0.00    +0.000 C 
ATOM     15  N   UNL     1      -0.653  12.994  18.173  0.00  0.00    +0.000 NA
ENDBRANCH   1  14
BRANCH   1  16
ATOM     16  C   UNL     1      -0.578  13.061  21.673  0.00  0.00    +0.000 C 
BRANCH  16  17
ATOM     17  C   UNL     1       0.659  12.185  21.463  0.00  0.00    +0.000 C 
ATOM     18  O   UNL     1       1.736  12.602  21.045  0.00  0.00    +0.000 OA
BRANCH  17  19
ATOM     19  O   UNL     1       0.472  10.891  21.860  0.00  0.00    +0.000 OA
BRANCH  19  21
ATOM     20  C   UNL     1       1.186   8.587  21.459  0.00  0.00    +0.000 C 
ATOM     21  C   UNL     1       0.722   9.899  20.849  0.00  0.00    +0.000 C 
ENDBRANCH  19  21
ENDBRANCH  17  19
ENDBRANCH  16  17
BRANCH  16  22
ATOM     22  C   UNL     1      -0.175  14.518  21.899  0.00  0.00    +0.000 C 
ATOM     23  O   UNL     1       0.084  15.335  21.024  0.00  0.00    +0.000 OA
BRANCH  22  24
ATOM     24  O   UNL     1      -0.130  14.804  23.235  0.00  0.00    +0.000 OA
BRANCH  24  25
ATOM     25  C   UNL     1      -1.369  15.262  23.800  0.00  0.00    +0.000 C 
ATOM     26  C   UNL     1      -1.317  15.367  25.310  0.00  0.00    +0.000 C 
ENDBRANCH  24  25
ENDBRANCH  22  24
ENDBRANCH  16  22
ENDBRANCH   1  16
TORSDOF 8
ENDMDL
MODEL 9
REMARK VINA RESULT:      -4.8      1.755      4.549
REMARK  Name = 
REMARK  14 active torsions:
REMARK  status: ('A' for Active; 'I' for Inactive)
REMARK    1  A    between atoms: C_1  and  C_2
REMARK    2  A    between atoms: C_2  and  O_3
REMARK    3  A    between atoms: O_3  and  C_4
REMARK    4  A    between atoms: C_4  and  C_6
REMARK    5  A    between atoms: C_6  and  C_7
REMARK    6  A    between atoms: C_6  and  N_12
REMARK    7  A    between atoms: C_7  and  O_9
REMARK    8  A    between atoms: O_9  and  C_10
REMARK    9  A    between atoms: C_10  and  C_11
REMARK   10  A    between atoms: N_12  and  C_13
REMARK   11  A    between atoms: N_18  and  C_19
REMARK   12  A    between atoms: N_18  and  C_20
REMARK   13  A    between atoms: N_23  and  C_24
REMARK   14  A    between atoms: N_23  and  C_25
REMARK                            x       y       z     vdW  Elec       q    Type
REMARK                         _______ _______ _______ _____ _____    ______ ____
ROOT
ATOM      1  N   UNL     1      -2.290  12.018  19.492  0.00  0.00    +0.000 N 
ATOM      2  C   UNL     1      -3.113  12.583  20.452  0.00  0.00    +0.000 A 
ATOM      3  N   UNL     1      -2.560  13.121  21.533  0.00  0.00    +0.000 NA
ATOM      4  C   UNL     1      -3.374  13.715  22.398  0.00  0.00    +0.000 A 
ATOM      5  N   UNL     1      -2.841  14.294  23.528  0.00  0.00    +0.000 N 
ATOM      6  C   UNL     1      -1.427  14.218  23.826  0.00  0.00    +0.000 C 
ATOM      7  C   UNL     1      -3.662  15.119  24.393  0.00  0.00    +0.000 C 
ATOM      8  N   UNL     1      -4.686  13.778  22.208  0.00  0.00    +0.000 NA
ATOM      9  C   UNL     1      -5.189  13.204  21.123  0.00  0.00    +0.000 A 
ATOM     10  N   UNL     1      -6.546  13.286  20.887  0.00  0.00    +0.000 N 
ATOM     11  C   UNL     1      -7.431  13.873  21.871  0.00  0.00    +0.000 C 
ATOM     12  C   UNL     1      -7.150  12.511  19.818  0.00  0.00    +0.000 C 
ATOM     13  N   UNL     1      -4.420  12.604  20.228  0.00  0.00    +0.000 NA
ENDROOT
BRANCH   1  14
ATOM     14  C   UNL     1      -2.856  11.502  18.275  0.00  0.00    +0.000 C 
ATOM     15  N   UNL     1      -3.251  11.121  17.258  0.00  0.00    +0.000 NA
ENDBRANCH   1  14
BRANCH   1  16
ATOM     16  C   UNL     1      -0.847  11.860  19.707  0.00  0.00    +0.000 C 
BRANCH  16  17
ATOM     17  C   UNL     1      -0.357  10.426  19.500  0.00  0.00    +0.000 C 
ATOM     18  O   UNL     1       0.116  10.005  18.447  0.00  0.00    +0.000 OA
BRANCH  17  19
ATOM     19  O   UNL     1      -0.427   9.667  20.634  0.00  0.00    +0.000 OA
BRANCH  19  21
ATOM     20  C   UNL     1      -0.693  10.101  23.026  0.00  0.00    +0.000 C 
ATOM     21  C   UNL     1       0.188  10.249  21.797  0.00  0.00    +0.000 C 
ENDBRANCH  19  21
ENDBRANCH  17  19
ENDBRANCH  16  17
BRANCH  16  22
ATOM     22  C   UNL     1      -0.041  12.836  18.849  0.00  0.00    +0.000 C 
ATOM     23  O   UNL     1      -0.478  13.502  17.919  0.00  0.00    +0.000 OA
BRANCH  22  24
ATOM     24  O   UNL     1       1.264  12.868  19.253  0.00  0.00    +0.000 OA
BRANCH  24  25
ATOM     25  C   UNL     1       2.226  12.971  18.191  0.00  0.00    +0.000 C 
ATOM     26  C   UNL     1       3.308  13.989  18.481  0.00  0.00    +0.000 C 
ENDBRANCH  24  25
ENDBRANCH  22  24
ENDBRANCH  16  22
ENDBRANCH   1  16
TORSDOF 8
ENDMDL
