MODEL 1
REMARK VINA RESULT:      -7.5      0.000      0.000
REMARK  Name = 
REMARK  6 active torsions:
REMARK  status: ('A' for Active; 'I' for Inactive)
REMARK    1  A    between atoms: C_1  and  O_2
REMARK    2  A    between atoms: O_2  and  C_3
REMARK    3  A    between atoms: C_6  and  C_7
REMARK    4  A    between atoms: C_9  and  N_10
REMARK    5  A    between atoms: C_14  and  C_15
REMARK    6  A    between atoms: C_15  and  O_17
REMARK                            x       y       z     vdW  Elec       q    Type
REMARK                         _______ _______ _______ _____ _____    ______ ____
ROOT
ATOM      1  C   UNL     1       3.435   6.392  18.444  0.00  0.00    +0.000 A 
ATOM      2  C   UNL     1       3.431   5.100  18.931  0.00  0.00    +0.000 A 
ATOM      3  C   UNL     1       4.392   4.242  18.311  0.00  0.00    +0.000 A 
ATOM      4  C   UNL     1       5.169   4.954  17.405  0.00  0.00    +0.000 A 
ATOM      5  S   UNL     1       4.673   6.590  17.291  0.00  0.00    +0.000 S 
ENDROOT
BRANCH   3   6
ATOM      6  N   UNL     1       4.544   2.871  18.554  0.00  0.00    +0.000 N 
ATOM      7  C   UNL     1       3.645   1.907  18.170  0.00  0.00    +0.000 C 
ATOM      8  N   UNL     1       4.049   0.641  18.480  0.00  0.00    +0.000 N 
ATOM      9  O   UNL     1       2.582   2.055  17.584  0.00  0.00    +0.000 OA
ATOM     10  H   UNL     1       5.433   2.564  18.935  0.00  0.00    +0.000 HD
ATOM     11  H   UNL     1       4.511   0.490  19.364  0.00  0.00    +0.000 HD
ATOM     12  H   UNL     1       3.340  -0.050  18.258  0.00  0.00    +0.000 HD
ENDBRANCH   3   6
BRANCH   1  16
ATOM     13  C   UNL     1       0.868   9.716  19.298  0.00  0.00    +0.000 A 
ATOM     14  C   UNL     1       1.148   8.782  20.294  0.00  0.00    +0.000 A 
ATOM     15  C   UNL     1       1.967   7.684  20.023  0.00  0.00    +0.000 A 
ATOM     16  C   UNL     1       2.515   7.497  18.746  0.00  0.00    +0.000 A 
ATOM     17  C   UNL     1       2.193   8.422  17.744  0.00  0.00    +0.000 A 
ATOM     18  C   UNL     1       1.375   9.523  18.015  0.00  0.00    +0.000 A 
BRANCH  13  20
ATOM     19  C   UNL     1      -1.001  11.057  18.783  0.00  0.00    +0.000 C 
ATOM     20  O   UNL     1       0.063  10.753  19.678  0.00  0.00    +0.000 OA
ENDBRANCH  13  20
ENDBRANCH   1  16
BRANCH   4  21
ATOM     21  C   UNL     1       6.274   4.487  16.591  0.00  0.00    +0.000 C 
ATOM     22  O   UNL     1       7.366   5.044  16.511  0.00  0.00    +0.000 OA
BRANCH  21  23
ATOM     23  O   UNL     1       5.999   3.347  15.899  0.00  0.00    +0.000 OA
ATOM     24  H   UNL     1       6.787   2.774  15.811  0.00  0.00    +0.000 HD
ENDBRANCH  21  23
ENDBRANCH   4  21
TORSDOF 5
ENDMDL
MODEL 2
REMARK VINA RESULT:      -7.5      0.142      1.085
REMARK  Name = 
REMARK  6 active torsions:
REMARK  status: ('A' for Active; 'I' for Inactive)
REMARK    1  A    between atoms: C_1  and  O_2
REMARK    2  A    between atoms: O_2  and  C_3
REMARK    3  A    between atoms: C_6  and  C_7
REMARK    4  A    between atoms: C_9  and  N_10
REMARK    5  A    between atoms: C_14  and  C_15
REMARK    6  A    between atoms: C_15  and  O_17
REMARK                            x       y       z     vdW  Elec       q    Type
REMARK                         _______ _______ _______ _____ _____    ______ ____
ROOT
ATOM      1  C   UNL     1       3.488   6.439  18.399  0.00  0.00    +0.000 A 
ATOM      2  C   UNL     1       3.458   5.152  18.899  0.00  0.00    +0.000 A 
ATOM      3  C   UNL     1       4.399   4.267  18.285  0.00  0.00    +0.000 A 
ATOM      4  C   UNL     1       5.188   4.954  17.370  0.00  0.00    +0.000 A 
ATOM      5  S   UNL     1       4.726   6.598  17.240  0.00  0.00    +0.000 S 
ENDROOT
BRANCH   3   6
ATOM      6  N   UNL     1       4.522   2.896  18.542  0.00  0.00    +0.000 N 
ATOM      7  C   UNL     1       3.621   1.943  18.138  0.00  0.00    +0.000 C 
ATOM      8  N   UNL     1       3.996   0.674  18.469  0.00  0.00    +0.000 N 
ATOM      9  O   UNL     1       2.578   2.103  17.520  0.00  0.00    +0.000 OA
ATOM     10  H   UNL     1       5.396   2.578  18.952  0.00  0.00    +0.000 HD
ATOM     11  H   UNL     1       4.430   0.522  19.367  0.00  0.00    +0.000 HD
ATOM     12  H   UNL     1       3.284  -0.008  18.230  0.00  0.00    +0.000 HD
ENDBRANCH   3   6
BRANCH   1  16
ATOM     13  C   UNL     1       0.760   9.624  19.281  0.00  0.00    +0.000 A 
ATOM     14  C   UNL     1       1.348   9.544  18.019  0.00  0.00    +0.000 A 
ATOM     15  C   UNL     1       2.254   8.522  17.725  0.00  0.00    +0.000 A 
ATOM     16  C   UNL     1       2.593   7.566  18.693  0.00  0.00    +0.000 A 
ATOM     17  C   UNL     1       2.025   7.682  19.969  0.00  0.00    +0.000 A 
ATOM     18  C   UNL     1       1.116   8.704  20.263  0.00  0.00    +0.000 A 
BRANCH  13  20
ATOM     19  C   UNL     1      -1.111  10.787  18.444  0.00  0.00    +0.000 C 
ATOM     20  O   UNL     1      -0.116  10.660  19.453  0.00  0.00    +0.000 OA
ENDBRANCH  13  20
ENDBRANCH   1  16
BRANCH   4  21
ATOM     21  C   UNL     1       6.281   4.455  16.557  0.00  0.00    +0.000 C 
ATOM     22  O   UNL     1       7.372   5.007  16.441  0.00  0.00    +0.000 OA
BRANCH  21  23
ATOM     23  O   UNL     1       5.995   3.291  15.913  0.00  0.00    +0.000 OA
ATOM     24  H   UNL     1       5.039   3.202  15.725  0.00  0.00    +0.000 HD
ENDBRANCH  21  23
ENDBRANCH   4  21
TORSDOF 5
ENDMDL
MODEL 3
REMARK VINA RESULT:      -7.4      1.642      3.178
REMARK  Name = 
REMARK  6 active torsions:
REMARK  status: ('A' for Active; 'I' for Inactive)
REMARK    1  A    between atoms: C_1  and  O_2
REMARK    2  A    between atoms: O_2  and  C_3
REMARK    3  A    between atoms: C_6  and  C_7
REMARK    4  A    between atoms: C_9  and  N_10
REMARK    5  A    between atoms: C_14  and  C_15
REMARK    6  A    between atoms: C_15  and  O_17
REMARK                            x       y       z     vdW  Elec       q    Type
REMARK                         _______ _______ _______ _____ _____    ______ ____
ROOT
ATOM      1  C   UNL     1       3.120   6.211  18.940  0.00  0.00    +0.000 A 
ATOM      2  C   UNL     1       4.466   6.051  18.676  0.00  0.00    +0.000 A 
ATOM      3  C   UNL     1       4.921   4.699  18.772  0.00  0.00    +0.000 A 
ATOM      4  C   UNL     1       3.856   3.844  19.034  0.00  0.00    +0.000 A 
ATOM      5  S   UNL     1       2.384   4.700  19.217  0.00  0.00    +0.000 S 
ENDROOT
BRANCH   3   6
ATOM      6  N   UNL     1       6.246   4.269  18.638  0.00  0.00    +0.000 N 
ATOM      7  C   UNL     1       7.091   4.648  17.624  0.00  0.00    +0.000 C 
ATOM      8  N   UNL     1       8.347   4.131  17.749  0.00  0.00    +0.000 N 
ATOM      9  O   UNL     1       6.853   5.386  16.679  0.00  0.00    +0.000 OA
ATOM     10  H   UNL     1       6.640   3.735  19.407  0.00  0.00    +0.000 HD
ATOM     11  H   UNL     1       8.442   3.180  18.074  0.00  0.00    +0.000 HD
ATOM     12  H   UNL     1       8.934   4.360  16.953  0.00  0.00    +0.000 HD
ENDBRANCH   3   6
BRANCH   1  16
ATOM     13  C   UNL     1       0.727   9.745  19.328  0.00  0.00    +0.000 A 
ATOM     14  C   UNL     1       1.300   9.427  18.097  0.00  0.00    +0.000 A 
ATOM     15  C   UNL     1       2.098   8.289  17.962  0.00  0.00    +0.000 A 
ATOM     16  C   UNL     1       2.343   7.452  19.060  0.00  0.00    +0.000 A 
ATOM     17  C   UNL     1       1.793   7.805  20.300  0.00  0.00    +0.000 A 
ATOM     18  C   UNL     1       0.992   8.944  20.435  0.00  0.00    +0.000 A 
BRANCH  13  20
ATOM     19  C   UNL     1      -1.261  10.791  18.612  0.00  0.00    +0.000 C 
ATOM     20  O   UNL     1      -0.041  10.876  19.340  0.00  0.00    +0.000 OA
ENDBRANCH  13  20
ENDBRANCH   1  16
BRANCH   4  21
ATOM     21  C   UNL     1       3.861   2.401  19.172  0.00  0.00    +0.000 C 
ATOM     22  O   UNL     1       2.962   1.660  18.786  0.00  0.00    +0.000 OA
BRANCH  21  23
ATOM     23  O   UNL     1       4.977   1.915  19.782  0.00  0.00    +0.000 OA
ATOM     24  H   UNL     1       5.796   2.247  19.364  0.00  0.00    +0.000 HD
ENDBRANCH  21  23
ENDBRANCH   4  21
TORSDOF 5
ENDMDL
MODEL 4
REMARK VINA RESULT:      -7.3      1.687      3.011
REMARK  Name = 
REMARK  6 active torsions:
REMARK  status: ('A' for Active; 'I' for Inactive)
REMARK    1  A    between atoms: C_1  and  O_2
REMARK    2  A    between atoms: O_2  and  C_3
REMARK    3  A    between atoms: C_6  and  C_7
REMARK    4  A    between atoms: C_9  and  N_10
REMARK    5  A    between atoms: C_14  and  C_15
REMARK    6  A    between atoms: C_15  and  O_17
REMARK                            x       y       z     vdW  Elec       q    Type
REMARK                         _______ _______ _______ _____ _____    ______ ____
ROOT
ATOM      1  C   UNL     1       3.106   6.087  19.028  0.00  0.00    +0.000 A 
ATOM      2  C   UNL     1       4.448   5.964  18.725  0.00  0.00    +0.000 A 
ATOM      3  C   UNL     1       4.943   4.625  18.810  0.00  0.00    +0.000 A 
ATOM      4  C   UNL     1       3.911   3.742  19.105  0.00  0.00    +0.000 A 
ATOM      5  S   UNL     1       2.422   4.557  19.330  0.00  0.00    +0.000 S 
ENDROOT
BRANCH   3   6
ATOM      6  N   UNL     1       6.276   4.232  18.638  0.00  0.00    +0.000 N 
ATOM      7  C   UNL     1       7.084   4.644  17.607  0.00  0.00    +0.000 C 
ATOM      8  N   UNL     1       8.356   4.159  17.694  0.00  0.00    +0.000 N 
ATOM      9  O   UNL     1       6.802   5.385  16.676  0.00  0.00    +0.000 OA
ATOM     10  H   UNL     1       6.703   3.701  19.391  0.00  0.00    +0.000 HD
ATOM     11  H   UNL     1       8.485   3.208  18.006  0.00  0.00    +0.000 HD
ATOM     12  H   UNL     1       8.916   4.411  16.886  0.00  0.00    +0.000 HD
ENDBRANCH   3   6
BRANCH   1  16
ATOM     13  C   UNL     1       0.877   9.728  19.404  0.00  0.00    +0.000 A 
ATOM     14  C   UNL     1       1.017   8.883  20.504  0.00  0.00    +0.000 A 
ATOM     15  C   UNL     1       1.724   7.684  20.389  0.00  0.00    +0.000 A 
ATOM     16  C   UNL     1       2.299   7.305  19.168  0.00  0.00    +0.000 A 
ATOM     17  C   UNL     1       2.116   8.145  18.060  0.00  0.00    +0.000 A 
ATOM     18  C   UNL     1       1.410   9.347  18.175  0.00  0.00    +0.000 A 
BRANCH  13  20
ATOM     19  C   UNL     1      -0.877  11.141  18.711  0.00  0.00    +0.000 C 
ATOM     20  O   UNL     1       0.173  10.876  19.634  0.00  0.00    +0.000 OA
ENDBRANCH  13  20
ENDBRANCH   1  16
BRANCH   4  21
ATOM     21  C   UNL     1       3.961   2.299  19.246  0.00  0.00    +0.000 C 
ATOM     22  O   UNL     1       3.178   1.519  18.713  0.00  0.00    +0.000 OA
BRANCH  21  23
ATOM     23  O   UNL     1       4.977   1.863  20.040  0.00  0.00    +0.000 OA
ATOM     24  H   UNL     1       4.858   0.930  20.306  0.00  0.00    +0.000 HD
ENDBRANCH  21  23
ENDBRANCH   4  21
TORSDOF 5
ENDMDL
MODEL 5
REMARK VINA RESULT:      -7.3      1.953      3.009
REMARK  Name = 
REMARK  6 active torsions:
REMARK  status: ('A' for Active; 'I' for Inactive)
REMARK    1  A    between atoms: C_1  and  O_2
REMARK    2  A    between atoms: O_2  and  C_3
REMARK    3  A    between atoms: C_6  and  C_7
REMARK    4  A    between atoms: C_9  and  N_10
REMARK    5  A    between atoms: C_14  and  C_15
REMARK    6  A    between atoms: C_15  and  O_17
REMARK                            x       y       z     vdW  Elec       q    Type
REMARK                         _______ _______ _______ _____ _____    ______ ____
ROOT
ATOM      1  C   UNL     1       2.873   6.570  18.783  0.00  0.00    +0.000 A 
ATOM      2  C   UNL     1       3.968   6.436  17.952  0.00  0.00    +0.000 A 
ATOM      3  C   UNL     1       4.571   5.139  17.989  0.00  0.00    +0.000 A 
ATOM      4  C   UNL     1       3.842   4.287  18.810  0.00  0.00    +0.000 A 
ATOM      5  S   UNL     1       2.519   5.088  19.545  0.00  0.00    +0.000 S 
ENDROOT
BRANCH   3   6
ATOM      6  N   UNL     1       5.737   4.758  17.314  0.00  0.00    +0.000 N 
ATOM      7  C   UNL     1       6.987   4.716  17.880  0.00  0.00    +0.000 C 
ATOM      8  N   UNL     1       7.948   4.263  17.025  0.00  0.00    +0.000 N 
ATOM      9  O   UNL     1       7.310   5.006  19.023  0.00  0.00    +0.000 OA
ATOM     10  H   UNL     1       5.627   4.377  16.380  0.00  0.00    +0.000 HD
ATOM     11  H   UNL     1       7.907   4.555  16.060  0.00  0.00    +0.000 HD
ATOM     12  H   UNL     1       8.876   4.310  17.434  0.00  0.00    +0.000 HD
ENDBRANCH   3   6
BRANCH   1  16
ATOM     13  C   UNL     1       0.725  10.172  19.667  0.00  0.00    +0.000 A 
ATOM     14  C   UNL     1       0.918   9.217  20.664  0.00  0.00    +0.000 A 
ATOM     15  C   UNL     1       1.599   8.029  20.383  0.00  0.00    +0.000 A 
ATOM     16  C   UNL     1       2.093   7.774  19.097  0.00  0.00    +0.000 A 
ATOM     17  C   UNL     1       1.858   8.726  18.095  0.00  0.00    +0.000 A 
ATOM     18  C   UNL     1       1.179   9.916  18.375  0.00  0.00    +0.000 A 
BRANCH  13  20
ATOM     19  C   UNL     1      -0.183  11.409  21.455  0.00  0.00    +0.000 C 
ATOM     20  O   UNL     1       0.054  11.297  20.057  0.00  0.00    +0.000 OA
ENDBRANCH  13  20
ENDBRANCH   1  16
BRANCH   4  21
ATOM     21  C   UNL     1       4.075   2.885  19.102  0.00  0.00    +0.000 C 
ATOM     22  O   UNL     1       3.291   1.978  18.840  0.00  0.00    +0.000 OA
BRANCH  21  23
ATOM     23  O   UNL     1       5.271   2.646  19.708  0.00  0.00    +0.000 OA
ATOM     24  H   UNL     1       5.262   2.907  20.649  0.00  0.00    +0.000 HD
ENDBRANCH  21  23
ENDBRANCH   4  21
TORSDOF 5
ENDMDL
MODEL 6
REMARK VINA RESULT:      -7.2      1.829      3.074
REMARK  Name = 
REMARK  6 active torsions:
REMARK  status: ('A' for Active; 'I' for Inactive)
REMARK    1  A    between atoms: C_1  and  O_2
REMARK    2  A    between atoms: O_2  and  C_3
REMARK    3  A    between atoms: C_6  and  C_7
REMARK    4  A    between atoms: C_9  and  N_10
REMARK    5  A    between atoms: C_14  and  C_15
REMARK    6  A    between atoms: C_15  and  O_17
REMARK                            x       y       z     vdW  Elec       q    Type
REMARK                         _______ _______ _______ _____ _____    ______ ____
ROOT
ATOM      1  C   UNL     1       2.909   6.616  18.702  0.00  0.00    +0.000 A 
ATOM      2  C   UNL     1       4.010   6.465  17.883  0.00  0.00    +0.000 A 
ATOM      3  C   UNL     1       4.609   5.167  17.946  0.00  0.00    +0.000 A 
ATOM      4  C   UNL     1       3.872   4.331  18.775  0.00  0.00    +0.000 A 
ATOM      5  S   UNL     1       2.545   5.148  19.485  0.00  0.00    +0.000 S 
ENDROOT
BRANCH   3   6
ATOM      6  N   UNL     1       5.780   4.772  17.286  0.00  0.00    +0.000 N 
ATOM      7  C   UNL     1       7.022   4.716  17.868  0.00  0.00    +0.000 C 
ATOM      8  N   UNL     1       7.989   4.251  17.027  0.00  0.00    +0.000 N 
ATOM      9  O   UNL     1       7.333   5.004  19.015  0.00  0.00    +0.000 OA
ATOM     10  H   UNL     1       5.678   4.391  16.351  0.00  0.00    +0.000 HD
ATOM     11  H   UNL     1       7.964   4.543  16.061  0.00  0.00    +0.000 HD
ATOM     12  H   UNL     1       8.911   4.288  17.449  0.00  0.00    +0.000 HD
ENDBRANCH   3   6
BRANCH   1  16
ATOM     13  C   UNL     1       0.515  10.061  19.580  0.00  0.00    +0.000 A 
ATOM     14  C   UNL     1       1.009   9.869  18.290  0.00  0.00    +0.000 A 
ATOM     15  C   UNL     1       1.807   8.760  17.995  0.00  0.00    +0.000 A 
ATOM     16  C   UNL     1       2.131   7.827  18.990  0.00  0.00    +0.000 A 
ATOM     17  C   UNL     1       1.661   8.054  20.291  0.00  0.00    +0.000 A 
ATOM     18  C   UNL     1       0.861   9.162  20.586  0.00  0.00    +0.000 A 
BRANCH  13  20
ATOM     19  C   UNL     1      -1.400  11.255  18.903  0.00  0.00    +0.000 C 
ATOM     20  O   UNL     1      -0.260  11.174  19.750  0.00  0.00    +0.000 OA
ENDBRANCH  13  20
ENDBRANCH   1  16
BRANCH   4  21
ATOM     21  C   UNL     1       4.099   2.934  19.091  0.00  0.00    +0.000 C 
ATOM     22  O   UNL     1       4.100   2.467  20.226  0.00  0.00    +0.000 OA
BRANCH  21  23
ATOM     23  O   UNL     1       4.317   2.155  17.996  0.00  0.00    +0.000 OA
ATOM     24  H   UNL     1       4.744   2.654  17.271  0.00  0.00    +0.000 HD
ENDBRANCH  21  23
ENDBRANCH   4  21
TORSDOF 5
ENDMDL
MODEL 7
REMARK VINA RESULT:      -7.2      0.955      1.550
REMARK  Name = 
REMARK  6 active torsions:
REMARK  status: ('A' for Active; 'I' for Inactive)
REMARK    1  A    between atoms: C_1  and  O_2
REMARK    2  A    between atoms: O_2  and  C_3
REMARK    3  A    between atoms: C_6  and  C_7
REMARK    4  A    between atoms: C_9  and  N_10
REMARK    5  A    between atoms: C_14  and  C_15
REMARK    6  A    between atoms: C_15  and  O_17
REMARK                            x       y       z     vdW  Elec       q    Type
REMARK                         _______ _______ _______ _____ _____    ______ ____
ROOT
ATOM      1  C   UNL     1       3.539   6.590  18.577  0.00  0.00    +0.000 A 
ATOM      2  C   UNL     1       3.906   5.555  19.414  0.00  0.00    +0.000 A 
ATOM      3  C   UNL     1       4.792   4.607  18.813  0.00  0.00    +0.000 A 
ATOM      4  C   UNL     1       5.140   5.010  17.530  0.00  0.00    +0.000 A 
ATOM      5  S   UNL     1       4.345   6.460  17.082  0.00  0.00    +0.000 S 
ENDROOT
BRANCH   3   6
ATOM      6  N   UNL     1       5.251   3.424  19.406  0.00  0.00    +0.000 N 
ATOM      7  C   UNL     1       4.458   2.344  19.707  0.00  0.00    +0.000 C 
ATOM      8  N   UNL     1       5.156   1.296  20.233  0.00  0.00    +0.000 N 
ATOM      9  O   UNL     1       3.254   2.220  19.538  0.00  0.00    +0.000 OA
ATOM     10  H   UNL     1       6.255   3.318  19.511  0.00  0.00    +0.000 HD
ATOM     11  H   UNL     1       5.900   1.495  20.884  0.00  0.00    +0.000 HD
ATOM     12  H   UNL     1       4.545   0.537  20.518  0.00  0.00    +0.000 HD
ENDBRANCH   3   6
BRANCH   1  16
ATOM     13  C   UNL     1       0.570   9.601  19.273  0.00  0.00    +0.000 A 
ATOM     14  C   UNL     1       1.163   9.489  18.016  0.00  0.00    +0.000 A 
ATOM     15  C   UNL     1       2.147   8.525  17.782  0.00  0.00    +0.000 A 
ATOM     16  C   UNL     1       2.559   7.660  18.805  0.00  0.00    +0.000 A 
ATOM     17  C   UNL     1       1.983   7.810  20.074  0.00  0.00    +0.000 A 
ATOM     18  C   UNL     1       0.997   8.774  20.308  0.00  0.00    +0.000 A 
BRANCH  13  20
ATOM     19  C   UNL     1      -1.294  10.660  18.294  0.00  0.00    +0.000 C 
ATOM     20  O   UNL     1      -0.384  10.574  19.384  0.00  0.00    +0.000 OA
ENDBRANCH  13  20
ENDBRANCH   1  16
BRANCH   4  21
ATOM     21  C   UNL     1       6.036   4.370  16.587  0.00  0.00    +0.000 C 
ATOM     22  O   UNL     1       5.727   4.040  15.445  0.00  0.00    +0.000 OA
BRANCH  21  23
ATOM     23  O   UNL     1       7.286   4.156  17.081  0.00  0.00    +0.000 OA
ATOM     24  H   UNL     1       7.833   4.966  17.053  0.00  0.00    +0.000 HD
ENDBRANCH  21  23
ENDBRANCH   4  21
TORSDOF 5
ENDMDL
MODEL 8
REMARK VINA RESULT:      -7.1      1.857      3.120
REMARK  Name = 
REMARK  6 active torsions:
REMARK  status: ('A' for Active; 'I' for Inactive)
REMARK    1  A    between atoms: C_1  and  O_2
REMARK    2  A    between atoms: O_2  and  C_3
REMARK    3  A    between atoms: C_6  and  C_7
REMARK    4  A    between atoms: C_9  and  N_10
REMARK    5  A    between atoms: C_14  and  C_15
REMARK    6  A    between atoms: C_15  and  O_17
REMARK                            x       y       z     vdW  Elec       q    Type
REMARK                         _______ _______ _______ _____ _____    ______ ____
ROOT
ATOM      1  C   UNL     1       2.860   6.570  18.423  0.00  0.00    +0.000 A 
ATOM      2  C   UNL     1       4.090   6.451  17.807  0.00  0.00    +0.000 A 
ATOM      3  C   UNL     1       4.546   5.101  17.675  0.00  0.00    +0.000 A 
ATOM      4  C   UNL     1       3.581   4.214  18.137  0.00  0.00    +0.000 A 
ATOM      5  S   UNL     1       2.212   5.032  18.763  0.00  0.00    +0.000 S 
ENDROOT
BRANCH   3   6
ATOM      6  N   UNL     1       5.788   4.702  17.167  0.00  0.00    +0.000 N 
ATOM      7  C   UNL     1       6.961   4.708  17.881  0.00  0.00    +0.000 C 
ATOM      8  N   UNL     1       8.022   4.224  17.174  0.00  0.00    +0.000 N 
ATOM      9  O   UNL     1       7.140   5.062  19.037  0.00  0.00    +0.000 OA
ATOM     10  H   UNL     1       5.795   4.270  16.248  0.00  0.00    +0.000 HD
ATOM     11  H   UNL     1       8.096   4.465  16.197  0.00  0.00    +0.000 HD
ATOM     12  H   UNL     1       8.892   4.306  17.690  0.00  0.00    +0.000 HD
ENDBRANCH   3   6
BRANCH   1  16
ATOM     13  C   UNL     1       0.660  10.031  19.667  0.00  0.00    +0.000 A 
ATOM     14  C   UNL     1       1.100   9.926  18.349  0.00  0.00    +0.000 A 
ATOM     15  C   UNL     1       1.835   8.813  17.935  0.00  0.00    +0.000 A 
ATOM     16  C   UNL     1       2.149   7.787  18.838  0.00  0.00    +0.000 A 
ATOM     17  C   UNL     1       1.734   7.924  20.170  0.00  0.00    +0.000 A 
ATOM     18  C   UNL     1       0.996   9.038  20.583  0.00  0.00    +0.000 A 
BRANCH  13  20
ATOM     19  C   UNL     1       0.705  12.250  20.461  0.00  0.00    +0.000 C 
ATOM     20  O   UNL     1      -0.057  11.159  19.957  0.00  0.00    +0.000 OA
ENDBRANCH  13  20
ENDBRANCH   1  16
BRANCH   4  21
ATOM     21  C   UNL     1       3.613   2.764  18.156  0.00  0.00    +0.000 C 
ATOM     22  O   UNL     1       2.776   2.041  17.623  0.00  0.00    +0.000 OA
BRANCH  21  23
ATOM     23  O   UNL     1       4.678   2.251  18.831  0.00  0.00    +0.000 OA
ATOM     24  H   UNL     1       5.500   2.746  18.648  0.00  0.00    +0.000 HD
ENDBRANCH  21  23
ENDBRANCH   4  21
TORSDOF 5
ENDMDL
MODEL 9
REMARK VINA RESULT:      -6.9      1.065      1.518
REMARK  Name = 
REMARK  6 active torsions:
REMARK  status: ('A' for Active; 'I' for Inactive)
REMARK    1  A    between atoms: C_1  and  O_2
REMARK    2  A    between atoms: O_2  and  C_3
REMARK    3  A    between atoms: C_6  and  C_7
REMARK    4  A    between atoms: C_9  and  N_10
REMARK    5  A    between atoms: C_14  and  C_15
REMARK    6  A    between atoms: C_15  and  O_17
REMARK                            x       y       z     vdW  Elec       q    Type
REMARK                         _______ _______ _______ _____ _____    ______ ____
ROOT
ATOM      1  C   UNL     1       3.030   6.628  18.230  0.00  0.00    +0.000 A 
ATOM      2  C   UNL     1       2.810   5.280  18.428  0.00  0.00    +0.000 A 
ATOM      3  C   UNL     1       3.691   4.431  17.686  0.00  0.00    +0.000 A 
ATOM      4  C   UNL     1       4.628   5.189  16.994  0.00  0.00    +0.000 A 
ATOM      5  S   UNL     1       4.371   6.869  17.208  0.00  0.00    +0.000 S 
ENDROOT
BRANCH   3   6
ATOM      6  N   UNL     1       3.633   3.033  17.637  0.00  0.00    +0.000 N 
ATOM      7  C   UNL     1       4.025   2.200  18.656  0.00  0.00    +0.000 C 
ATOM      8  N   UNL     1       3.821   0.880  18.379  0.00  0.00    +0.000 N 
ATOM      9  O   UNL     1       4.493   2.504  19.744  0.00  0.00    +0.000 OA
ATOM     10  H   UNL     1       3.161   2.617  16.840  0.00  0.00    +0.000 HD
ATOM     11  H   UNL     1       4.006   0.553  17.442  0.00  0.00    +0.000 HD
ATOM     12  H   UNL     1       4.184   0.277  19.109  0.00  0.00    +0.000 HD
ENDBRANCH   3   6
BRANCH   1  16
ATOM     13  C   UNL     1       0.634   9.870  19.685  0.00  0.00    +0.000 A 
ATOM     14  C   UNL     1       1.034   9.848  18.350  0.00  0.00    +0.000 A 
ATOM     15  C   UNL     1       1.832   8.807  17.868  0.00  0.00    +0.000 A 
ATOM     16  C   UNL     1       2.249   7.773  18.717  0.00  0.00    +0.000 A 
ATOM     17  C   UNL     1       1.873   7.829  20.066  0.00  0.00    +0.000 A 
ATOM     18  C   UNL     1       1.072   8.870  20.548  0.00  0.00    +0.000 A 
BRANCH  13  20
ATOM     19  C   UNL     1      -0.016  12.089  19.226  0.00  0.00    +0.000 C 
ATOM     20  O   UNL     1      -0.150  10.931  20.043  0.00  0.00    +0.000 OA
ENDBRANCH  13  20
ENDBRANCH   1  16
BRANCH   4  21
ATOM     21  C   UNL     1       5.720   4.738  16.154  0.00  0.00    +0.000 C 
ATOM     22  O   UNL     1       5.905   5.100  14.995  0.00  0.00    +0.000 OA
BRANCH  21  23
ATOM     23  O   UNL     1       6.553   3.853  16.769  0.00  0.00    +0.000 OA
ATOM     24  H   UNL     1       7.285   4.303  17.235  0.00  0.00    +0.000 HD
ENDBRANCH  21  23
ENDBRANCH   4  21
TORSDOF 5
ENDMDL
