MODEL 1
REMARK VINA RESULT:      -9.5      0.000      0.000
REMARK  Name = 
REMARK  4 active torsions:
REMARK  status: ('A' for Active; 'I' for Inactive)
REMARK    1  A    between atoms: C_1  and  N_2
REMARK    2  A    between atoms: C_4  and  C_5
REMARK    3  A    between atoms: C_8  and  C_9
REMARK    4  A    between atoms: N_11  and  C_12
REMARK                            x       y       z     vdW  Elec       q    Type
REMARK                         _______ _______ _______ _____ _____    ______ ____
ROOT
ATOM      1  C   UNL     1       4.010   4.591  18.165  0.00  0.00    +0.000 A 
ATOM      2  C   UNL     1       5.110   5.458  18.308  0.00  0.00    +0.000 A 
ATOM      3  C   UNL     1       6.014   5.636  17.238  0.00  0.00    +0.000 A 
ATOM      4  C   UNL     1       7.186   6.416  17.004  0.00  0.00    +0.000 A 
ATOM      5  N   UNL     1       7.660   6.230  15.750  0.00  0.00    +0.000 NA
ATOM      6  N   UNL     1       6.822   5.316  15.225  0.00  0.00    +0.000 N 
ATOM      7  C   UNL     1       5.805   4.937  16.057  0.00  0.00    +0.000 A 
ATOM      8  C   UNL     1       4.737   4.054  15.883  0.00  0.00    +0.000 A 
ATOM      9  C   UNL     1       3.852   3.901  16.956  0.00  0.00    +0.000 A 
ATOM     10  F   UNL     1       2.813   3.069  16.779  0.00  0.00    +0.000 F 
ATOM     11  H   UNL     1       6.993   4.995  14.278  0.00  0.00    +0.000 HD
ENDROOT
BRANCH   1  15
ATOM     12  C   UNL     1       1.405   2.624  21.911  0.00  0.00    +0.000 C 
ATOM     13  N   UNL     1       1.924   3.527  20.912  0.00  0.00    +0.000 N 
ATOM     14  C   UNL     1       2.905   3.267  19.999  0.00  0.00    +0.000 A 
ATOM     15  C   UNL     1       3.060   4.419  19.253  0.00  0.00    +0.000 A 
ATOM     16  C   UNL     1       2.125   5.315  19.821  0.00  0.00    +0.000 A 
ATOM     17  N   UNL     1       1.425   4.772  20.821  0.00  0.00    +0.000 NA
ENDBRANCH   1  15
BRANCH   4  18
ATOM     18  C   UNL     1       7.840   7.335  17.954  0.00  0.00    +0.000 C 
ATOM     19  O   UNL     1       8.309   6.926  19.013  0.00  0.00    +0.000 OA
ATOM     20  N   UNL     1       7.816   8.650  17.526  0.00  0.00    +0.000 N 
ATOM     21  H   UNL     1       7.314   8.790  16.654  0.00  0.00    +0.000 HD
BRANCH  20  22
ATOM     22  C   UNL     1       8.409   9.765  18.140  0.00  0.00    +0.000 A 
ATOM     23  C   UNL     1       9.270   9.669  19.252  0.00  0.00    +0.000 A 
ATOM     24  C   UNL     1       9.941  10.790  19.754  0.00  0.00    +0.000 A 
ATOM     25  C   UNL     1       9.726  12.004  19.136  0.00  0.00    +0.000 A 
ATOM     26  C   UNL     1       8.803  12.132  18.102  0.00  0.00    +0.000 A 
ATOM     27  C   UNL     1       8.154  11.026  17.575  0.00  0.00    +0.000 A 
ATOM     28  C   UNL     1       8.703  13.575  17.742  0.00  0.00    +0.000 C 
ATOM     29  N   UNL     1      10.000  14.147  18.184  0.00  0.00    +0.000 NA
ATOM     30  C   UNL     1      10.384  13.325  19.367  0.00  0.00    +0.000 C 
ATOM     31  H   UNL     1      10.671  13.907  17.448  0.00  0.00    +0.000 HD
ENDBRANCH  20  22
ENDBRANCH   4  18
TORSDOF 3
ENDMDL
MODEL 2
REMARK VINA RESULT:      -9.2      4.919      7.049
REMARK  Name = 
REMARK  4 active torsions:
REMARK  status: ('A' for Active; 'I' for Inactive)
REMARK    1  A    between atoms: C_1  and  N_2
REMARK    2  A    between atoms: C_4  and  C_5
REMARK    3  A    between atoms: C_8  and  C_9
REMARK    4  A    between atoms: N_11  and  C_12
REMARK                            x       y       z     vdW  Elec       q    Type
REMARK                         _______ _______ _______ _____ _____    ______ ____
ROOT
ATOM      1  C   UNL     1       4.626   5.363  17.651  0.00  0.00    +0.000 A 
ATOM      2  C   UNL     1       3.851   6.535  17.740  0.00  0.00    +0.000 A 
ATOM      3  C   UNL     1       2.989   6.731  18.841  0.00  0.00    +0.000 A 
ATOM      4  C   UNL     1       2.099   7.758  19.277  0.00  0.00    +0.000 A 
ATOM      5  N   UNL     1       1.525   7.443  20.461  0.00  0.00    +0.000 NA
ATOM      6  N   UNL     1       2.016   6.220  20.738  0.00  0.00    +0.000 N 
ATOM      7  C   UNL     1       2.912   5.749  19.819  0.00  0.00    +0.000 A 
ATOM      8  C   UNL     1       3.650   4.565  19.757  0.00  0.00    +0.000 A 
ATOM      9  C   UNL     1       4.503   4.399  18.660  0.00  0.00    +0.000 A 
ATOM     10  F   UNL     1       5.228   3.269  18.613  0.00  0.00    +0.000 F 
ATOM     11  H   UNL     1       1.705   5.758  21.586  0.00  0.00    +0.000 HD
ENDROOT
BRANCH   1  15
ATOM     12  C   UNL     1       6.507   3.978  13.266  0.00  0.00    +0.000 C 
ATOM     13  N   UNL     1       6.343   4.543  14.584  0.00  0.00    +0.000 N 
ATOM     14  C   UNL     1       5.223   4.499  15.363  0.00  0.00    +0.000 A 
ATOM     15  C   UNL     1       5.535   5.163  16.533  0.00  0.00    +0.000 A 
ATOM     16  C   UNL     1       6.874   5.578  16.337  0.00  0.00    +0.000 A 
ATOM     17  N   UNL     1       7.370   5.193  15.159  0.00  0.00    +0.000 NA
ENDBRANCH   1  15
BRANCH   4  18
ATOM     18  C   UNL     1       1.808   9.027  18.585  0.00  0.00    +0.000 C 
ATOM     19  O   UNL     1       2.057   9.172  17.391  0.00  0.00    +0.000 OA
ATOM     20  N   UNL     1       1.281   9.988  19.430  0.00  0.00    +0.000 N 
ATOM     21  H   UNL     1       1.221   9.693  20.400  0.00  0.00    +0.000 HD
BRANCH  20  22
ATOM     22  C   UNL     1       0.822  11.271  19.093  0.00  0.00    +0.000 A 
ATOM     23  C   UNL     1      -0.540  11.578  18.899  0.00  0.00    +0.000 A 
ATOM     24  C   UNL     1      -0.969  12.894  18.693  0.00  0.00    +0.000 A 
ATOM     25  C   UNL     1      -0.015  13.890  18.670  0.00  0.00    +0.000 A 
ATOM     26  C   UNL     1       1.341  13.590  18.760  0.00  0.00    +0.000 A 
ATOM     27  C   UNL     1       1.778  12.295  18.996  0.00  0.00    +0.000 A 
ATOM     28  C   UNL     1       2.112  14.852  18.571  0.00  0.00    +0.000 C 
ATOM     29  N   UNL     1       1.156  15.919  18.962  0.00  0.00    +0.000 NA
ATOM     30  C   UNL     1      -0.181  15.373  18.594  0.00  0.00    +0.000 C 
ATOM     31  H   UNL     1       1.175  15.944  19.986  0.00  0.00    +0.000 HD
ENDBRANCH  20  22
ENDBRANCH   4  18
TORSDOF 3
ENDMDL
MODEL 3
REMARK VINA RESULT:      -8.8      6.153      9.782
REMARK  Name = 
REMARK  4 active torsions:
REMARK  status: ('A' for Active; 'I' for Inactive)
REMARK    1  A    between atoms: C_1  and  N_2
REMARK    2  A    between atoms: C_4  and  C_5
REMARK    3  A    between atoms: C_8  and  C_9
REMARK    4  A    between atoms: N_11  and  C_12
REMARK                            x       y       z     vdW  Elec       q    Type
REMARK                         _______ _______ _______ _____ _____    ______ ____
ROOT
ATOM      1  C   UNL     1      -1.777  10.925  19.004  0.00  0.00    +0.000 A 
ATOM      2  C   UNL     1      -0.782   9.940  19.151  0.00  0.00    +0.000 A 
ATOM      3  C   UNL     1      -0.005   9.891  20.329  0.00  0.00    +0.000 A 
ATOM      4  C   UNL     1       1.038   9.059  20.836  0.00  0.00    +0.000 A 
ATOM      5  N   UNL     1       1.418   9.446  22.076  0.00  0.00    +0.000 NA
ATOM      6  N   UNL     1       0.654  10.527  22.321  0.00  0.00    +0.000 N 
ATOM      7  C   UNL     1      -0.232  10.831  21.324  0.00  0.00    +0.000 A 
ATOM      8  C   UNL     1      -1.196  11.835  21.208  0.00  0.00    +0.000 A 
ATOM      9  C   UNL     1      -1.958  11.857  20.034  0.00  0.00    +0.000 A 
ATOM     10  F   UNL     1      -2.900  12.809  19.932  0.00  0.00    +0.000 F 
ATOM     11  H   UNL     1       0.779  11.014  23.202  0.00  0.00    +0.000 HD
ENDROOT
BRANCH   1  15
ATOM     12  C   UNL     1      -3.425  10.254  14.364  0.00  0.00    +0.000 C 
ATOM     13  N   UNL     1      -3.309  10.654  15.746  0.00  0.00    +0.000 N 
ATOM     14  C   UNL     1      -2.275  10.384  16.595  0.00  0.00    +0.000 A 
ATOM     15  C   UNL     1      -2.599  10.969  17.804  0.00  0.00    +0.000 A 
ATOM     16  C   UNL     1      -3.866  11.553  17.565  0.00  0.00    +0.000 A 
ATOM     17  N   UNL     1      -4.294  11.373  16.313  0.00  0.00    +0.000 NA
ENDBRANCH   1  15
BRANCH   4  18
ATOM     18  C   UNL     1       1.657   7.905  20.157  0.00  0.00    +0.000 C 
ATOM     19  O   UNL     1       2.274   8.044  19.104  0.00  0.00    +0.000 OA
ATOM     20  N   UNL     1       1.424   6.711  20.815  0.00  0.00    +0.000 N 
ATOM     21  H   UNL     1       0.827   6.801  21.632  0.00  0.00    +0.000 HD
BRANCH  20  22
ATOM     22  C   UNL     1       1.925   5.440  20.493  0.00  0.00    +0.000 A 
ATOM     23  C   UNL     1       1.267   4.241  20.835  0.00  0.00    +0.000 A 
ATOM     24  C   UNL     1       1.731   3.000  20.384  0.00  0.00    +0.000 A 
ATOM     25  C   UNL     1       2.867   2.978  19.603  0.00  0.00    +0.000 A 
ATOM     26  C   UNL     1       3.582   4.143  19.340  0.00  0.00    +0.000 A 
ATOM     27  C   UNL     1       3.118   5.382  19.754  0.00  0.00    +0.000 A 
ATOM     28  C   UNL     1       4.817   3.773  18.591  0.00  0.00    +0.000 C 
ATOM     29  N   UNL     1       4.472   2.482  17.943  0.00  0.00    +0.000 NA
ATOM     30  C   UNL     1       3.515   1.838  18.888  0.00  0.00    +0.000 C 
ATOM     31  H   UNL     1       3.923   2.729  17.114  0.00  0.00    +0.000 HD
ENDBRANCH  20  22
ENDBRANCH   4  18
TORSDOF 3
ENDMDL
MODEL 4
REMARK VINA RESULT:      -8.5      6.072      9.321
REMARK  Name = 
REMARK  4 active torsions:
REMARK  status: ('A' for Active; 'I' for Inactive)
REMARK    1  A    between atoms: C_1  and  N_2
REMARK    2  A    between atoms: C_4  and  C_5
REMARK    3  A    between atoms: C_8  and  C_9
REMARK    4  A    between atoms: N_11  and  C_12
REMARK                            x       y       z     vdW  Elec       q    Type
REMARK                         _______ _______ _______ _____ _____    ______ ____
ROOT
ATOM      1  C   UNL     1      -1.796  10.848  18.867  0.00  0.00    +0.000 A 
ATOM      2  C   UNL     1      -0.844   9.850  19.148  0.00  0.00    +0.000 A 
ATOM      3  C   UNL     1      -0.118   9.887  20.359  0.00  0.00    +0.000 A 
ATOM      4  C   UNL     1       0.873   9.073  20.985  0.00  0.00    +0.000 A 
ATOM      5  N   UNL     1       1.216   9.561  22.200  0.00  0.00    +0.000 NA
ATOM      6  N   UNL     1       0.481  10.684  22.311  0.00  0.00    +0.000 N 
ATOM      7  C   UNL     1      -0.351  10.923  21.252  0.00  0.00    +0.000 A 
ATOM      8  C   UNL     1      -1.273  11.941  21.002  0.00  0.00    +0.000 A 
ATOM      9  C   UNL     1      -1.985  11.878  19.798  0.00  0.00    +0.000 A 
ATOM     10  F   UNL     1      -2.887  12.846  19.569  0.00  0.00    +0.000 F 
ATOM     11  H   UNL     1       0.588  11.247  23.148  0.00  0.00    +0.000 HD
ENDROOT
BRANCH   1  15
ATOM     12  C   UNL     1      -3.170  10.002  14.168  0.00  0.00    +0.000 C 
ATOM     13  N   UNL     1      -3.153  10.416  15.550  0.00  0.00    +0.000 N 
ATOM     14  C   UNL     1      -2.134  10.253  16.445  0.00  0.00    +0.000 A 
ATOM     15  C   UNL     1      -2.566  10.807  17.634  0.00  0.00    +0.000 A 
ATOM     16  C   UNL     1      -3.873  11.261  17.337  0.00  0.00    +0.000 A 
ATOM     17  N   UNL     1      -4.227  11.035  16.069  0.00  0.00    +0.000 NA
ENDBRANCH   1  15
BRANCH   4  18
ATOM     18  C   UNL     1       1.477   7.842  20.443  0.00  0.00    +0.000 C 
ATOM     19  O   UNL     1       1.352   6.765  21.021  0.00  0.00    +0.000 OA
ATOM     20  N   UNL     1       2.193   8.065  19.281  0.00  0.00    +0.000 N 
ATOM     21  H   UNL     1       2.236   9.042  19.006  0.00  0.00    +0.000 HD
BRANCH  20  22
ATOM     22  C   UNL     1       2.826   7.114  18.464  0.00  0.00    +0.000 A 
ATOM     23  C   UNL     1       3.840   7.442  17.542  0.00  0.00    +0.000 A 
ATOM     24  C   UNL     1       4.535   6.451  16.840  0.00  0.00    +0.000 A 
ATOM     25  C   UNL     1       4.191   5.135  17.066  0.00  0.00    +0.000 A 
ATOM     26  C   UNL     1       3.125   4.802  17.898  0.00  0.00    +0.000 A 
ATOM     27  C   UNL     1       2.448   5.771  18.623  0.00  0.00    +0.000 A 
ATOM     28  C   UNL     1       2.923   3.327  17.830  0.00  0.00    +0.000 C 
ATOM     29  N   UNL     1       4.249   2.800  17.416  0.00  0.00    +0.000 NA
ATOM     30  C   UNL     1       4.827   3.879  16.565  0.00  0.00    +0.000 C 
ATOM     31  H   UNL     1       4.816   2.783  18.269  0.00  0.00    +0.000 HD
ENDBRANCH  20  22
ENDBRANCH   4  18
TORSDOF 3
ENDMDL
MODEL 5
REMARK VINA RESULT:      -8.4      1.094      1.492
REMARK  Name = 
REMARK  4 active torsions:
REMARK  status: ('A' for Active; 'I' for Inactive)
REMARK    1  A    between atoms: C_1  and  N_2
REMARK    2  A    between atoms: C_4  and  C_5
REMARK    3  A    between atoms: C_8  and  C_9
REMARK    4  A    between atoms: N_11  and  C_12
REMARK                            x       y       z     vdW  Elec       q    Type
REMARK                         _______ _______ _______ _____ _____    ______ ____
ROOT
ATOM      1  C   UNL     1       4.227   4.865  18.293  0.00  0.00    +0.000 A 
ATOM      2  C   UNL     1       5.348   5.698  18.467  0.00  0.00    +0.000 A 
ATOM      3  C   UNL     1       6.228   5.932  17.388  0.00  0.00    +0.000 A 
ATOM      4  C   UNL     1       7.411   6.703  17.177  0.00  0.00    +0.000 A 
ATOM      5  N   UNL     1       7.848   6.597  15.901  0.00  0.00    +0.000 NA
ATOM      6  N   UNL     1       6.977   5.739  15.336  0.00  0.00    +0.000 N 
ATOM      7  C   UNL     1       5.974   5.322  16.167  0.00  0.00    +0.000 A 
ATOM      8  C   UNL     1       4.883   4.476  15.960  0.00  0.00    +0.000 A 
ATOM      9  C   UNL     1       4.022   4.265  17.044  0.00  0.00    +0.000 A 
ATOM     10  F   UNL     1       2.961   3.468  16.837  0.00  0.00    +0.000 F 
ATOM     11  H   UNL     1       7.118   5.481  14.365  0.00  0.00    +0.000 HD
ENDROOT
BRANCH   1  15
ATOM     12  C   UNL     1       1.614   2.671  21.905  0.00  0.00    +0.000 C 
ATOM     13  N   UNL     1       2.160   3.643  20.988  0.00  0.00    +0.000 N 
ATOM     14  C   UNL     1       3.093   3.422  20.017  0.00  0.00    +0.000 A 
ATOM     15  C   UNL     1       3.301   4.636  19.392  0.00  0.00    +0.000 A 
ATOM     16  C   UNL     1       2.443   5.522  20.086  0.00  0.00    +0.000 A 
ATOM     17  N   UNL     1       1.741   4.919  21.048  0.00  0.00    +0.000 NA
ENDBRANCH   1  15
BRANCH   4  18
ATOM     18  C   UNL     1       8.108   7.541  18.171  0.00  0.00    +0.000 C 
ATOM     19  O   UNL     1       8.465   7.079  19.253  0.00  0.00    +0.000 OA
ATOM     20  N   UNL     1       8.260   8.851  17.754  0.00  0.00    +0.000 N 
ATOM     21  H   UNL     1       7.828   9.048  16.855  0.00  0.00    +0.000 HD
BRANCH  20  22
ATOM     22  C   UNL     1       8.938   9.890  18.410  0.00  0.00    +0.000 A 
ATOM     23  C   UNL     1       9.785  10.799  17.746  0.00  0.00    +0.000 A 
ATOM     24  C   UNL     1      10.340  11.898  18.412  0.00  0.00    +0.000 A 
ATOM     25  C   UNL     1      10.046  12.062  19.749  0.00  0.00    +0.000 A 
ATOM     26  C   UNL     1       9.292  11.118  20.441  0.00  0.00    +0.000 A 
ATOM     27  C   UNL     1       8.711  10.042  19.788  0.00  0.00    +0.000 A 
ATOM     28  C   UNL     1       9.264  11.507  21.880  0.00  0.00    +0.000 C 
ATOM     29  N   UNL     1       9.511  12.972  21.862  0.00  0.00    +0.000 NA
ATOM     30  C   UNL     1      10.386  13.185  20.674  0.00  0.00    +0.000 C 
ATOM     31  H   UNL     1       8.610  13.399  21.625  0.00  0.00    +0.000 HD
ENDBRANCH  20  22
ENDBRANCH   4  18
TORSDOF 3
ENDMDL
MODEL 6
REMARK VINA RESULT:      -8.4      5.150      7.164
REMARK  Name = 
REMARK  4 active torsions:
REMARK  status: ('A' for Active; 'I' for Inactive)
REMARK    1  A    between atoms: C_1  and  N_2
REMARK    2  A    between atoms: C_4  and  C_5
REMARK    3  A    between atoms: C_8  and  C_9
REMARK    4  A    between atoms: N_11  and  C_12
REMARK                            x       y       z     vdW  Elec       q    Type
REMARK                         _______ _______ _______ _____ _____    ______ ____
ROOT
ATOM      1  C   UNL     1       4.503   5.428  17.688  0.00  0.00    +0.000 A 
ATOM      2  C   UNL     1       3.762   6.617  17.823  0.00  0.00    +0.000 A 
ATOM      3  C   UNL     1       2.871   6.777  18.907  0.00  0.00    +0.000 A 
ATOM      4  C   UNL     1       2.000   7.805  19.376  0.00  0.00    +0.000 A 
ATOM      5  N   UNL     1       1.379   7.440  20.521  0.00  0.00    +0.000 NA
ATOM      6  N   UNL     1       1.823   6.188  20.740  0.00  0.00    +0.000 N 
ATOM      7  C   UNL     1       2.733   5.742  19.821  0.00  0.00    +0.000 A 
ATOM      8  C   UNL     1       3.435   4.541  19.712  0.00  0.00    +0.000 A 
ATOM      9  C   UNL     1       4.317   4.411  18.633  0.00  0.00    +0.000 A 
ATOM     10  F   UNL     1       5.008   3.263  18.542  0.00  0.00    +0.000 F 
ATOM     11  H   UNL     1       1.470   5.687  21.548  0.00  0.00    +0.000 HD
ENDROOT
BRANCH   1  15
ATOM     12  C   UNL     1       6.560   4.031  13.386  0.00  0.00    +0.000 C 
ATOM     13  N   UNL     1       6.327   4.635  14.676  0.00  0.00    +0.000 N 
ATOM     14  C   UNL     1       5.206   4.523  15.446  0.00  0.00    +0.000 A 
ATOM     15  C   UNL     1       5.441   5.264  16.588  0.00  0.00    +0.000 A 
ATOM     16  C   UNL     1       6.738   5.791  16.385  0.00  0.00    +0.000 A 
ATOM     17  N   UNL     1       7.283   5.402  15.230  0.00  0.00    +0.000 NA
ENDBRANCH   1  15
BRANCH   4  18
ATOM     18  C   UNL     1       1.771   9.122  18.751  0.00  0.00    +0.000 C 
ATOM     19  O   UNL     1       1.680   9.239  17.532  0.00  0.00    +0.000 OA
ATOM     20  N   UNL     1       1.714  10.148  19.676  0.00  0.00    +0.000 N 
ATOM     21  H   UNL     1       1.886   9.851  20.632  0.00  0.00    +0.000 HD
BRANCH  20  22
ATOM     22  C   UNL     1       1.435  11.504  19.441  0.00  0.00    +0.000 A 
ATOM     23  C   UNL     1       2.156  12.293  18.522  0.00  0.00    +0.000 A 
ATOM     24  C   UNL     1       1.765  13.603  18.222  0.00  0.00    +0.000 A 
ATOM     25  C   UNL     1       0.656  14.111  18.864  0.00  0.00    +0.000 A 
ATOM     26  C   UNL     1      -0.006  13.379  19.846  0.00  0.00    +0.000 A 
ATOM     27  C   UNL     1       0.351  12.071  20.131  0.00  0.00    +0.000 A 
ATOM     28  C   UNL     1      -1.067  14.245  20.437  0.00  0.00    +0.000 C 
ATOM     29  N   UNL     1      -1.357  15.237  19.371  0.00  0.00    +0.000 NA
ATOM     30  C   UNL     1      -0.058  15.408  18.660  0.00  0.00    +0.000 C 
ATOM     31  H   UNL     1      -1.976  14.758  18.710  0.00  0.00    +0.000 HD
ENDBRANCH  20  22
ENDBRANCH   4  18
TORSDOF 3
ENDMDL
MODEL 7
REMARK VINA RESULT:      -8.3      4.898      7.501
REMARK  Name = 
REMARK  4 active torsions:
REMARK  status: ('A' for Active; 'I' for Inactive)
REMARK    1  A    between atoms: C_1  and  N_2
REMARK    2  A    between atoms: C_4  and  C_5
REMARK    3  A    between atoms: C_8  and  C_9
REMARK    4  A    between atoms: N_11  and  C_12
REMARK                            x       y       z     vdW  Elec       q    Type
REMARK                         _______ _______ _______ _____ _____    ______ ____
ROOT
ATOM      1  C   UNL     1       4.172   3.933  17.778  0.00  0.00    +0.000 A 
ATOM      2  C   UNL     1       3.510   4.961  18.474  0.00  0.00    +0.000 A 
ATOM      3  C   UNL     1       2.403   4.659  19.297  0.00  0.00    +0.000 A 
ATOM      4  C   UNL     1       1.524   5.397  20.145  0.00  0.00    +0.000 A 
ATOM      5  N   UNL     1       0.626   4.584  20.750  0.00  0.00    +0.000 NA
ATOM      6  N   UNL     1       0.914   3.366  20.254  0.00  0.00    +0.000 N 
ATOM      7  C   UNL     1       1.979   3.341  19.397  0.00  0.00    +0.000 A 
ATOM      8  C   UNL     1       2.598   2.296  18.708  0.00  0.00    +0.000 A 
ATOM      9  C   UNL     1       3.697   2.621  17.905  0.00  0.00    +0.000 A 
ATOM     10  F   UNL     1       4.305   1.612  17.260  0.00  0.00    +0.000 F 
ATOM     11  H   UNL     1       0.346   2.580  20.551  0.00  0.00    +0.000 HD
ENDROOT
BRANCH   1  15
ATOM     12  C   UNL     1       7.078   4.787  13.839  0.00  0.00    +0.000 C 
ATOM     13  N   UNL     1       6.592   4.610  15.186  0.00  0.00    +0.000 N 
ATOM     14  C   UNL     1       5.317   4.303  15.566  0.00  0.00    +0.000 A 
ATOM     15  C   UNL     1       5.328   4.231  16.945  0.00  0.00    +0.000 A 
ATOM     16  C   UNL     1       6.668   4.530  17.287  0.00  0.00    +0.000 A 
ATOM     17  N   UNL     1       7.440   4.749  16.220  0.00  0.00    +0.000 NA
ENDBRANCH   1  15
BRANCH   4  18
ATOM     18  C   UNL     1       1.544   6.851  20.388  0.00  0.00    +0.000 C 
ATOM     19  O   UNL     1       2.501   7.539  20.043  0.00  0.00    +0.000 OA
ATOM     20  N   UNL     1       0.417   7.297  21.053  0.00  0.00    +0.000 N 
ATOM     21  H   UNL     1      -0.226   6.555  21.316  0.00  0.00    +0.000 HD
BRANCH  20  22
ATOM     22  C   UNL     1       0.074   8.620  21.374  0.00  0.00    +0.000 A 
ATOM     23  C   UNL     1      -0.263   9.036  22.678  0.00  0.00    +0.000 A 
ATOM     24  C   UNL     1      -0.472  10.386  22.982  0.00  0.00    +0.000 A 
ATOM     25  C   UNL     1      -0.354  11.305  21.961  0.00  0.00    +0.000 A 
ATOM     26  C   UNL     1      -0.121  10.899  20.650  0.00  0.00    +0.000 A 
ATOM     27  C   UNL     1       0.119   9.569  20.340  0.00  0.00    +0.000 A 
ATOM     28  C   UNL     1      -0.179  12.102  19.771  0.00  0.00    +0.000 C 
ATOM     29  N   UNL     1       0.136  13.231  20.684  0.00  0.00    +0.000 NA
ATOM     30  C   UNL     1      -0.399  12.798  22.006  0.00  0.00    +0.000 C 
ATOM     31  H   UNL     1       1.156  13.228  20.781  0.00  0.00    +0.000 HD
ENDBRANCH  20  22
ENDBRANCH   4  18
TORSDOF 3
ENDMDL
MODEL 8
REMARK VINA RESULT:      -8.3      6.678      8.670
REMARK  Name = 
REMARK  4 active torsions:
REMARK  status: ('A' for Active; 'I' for Inactive)
REMARK    1  A    between atoms: C_1  and  N_2
REMARK    2  A    between atoms: C_4  and  C_5
REMARK    3  A    between atoms: C_8  and  C_9
REMARK    4  A    between atoms: N_11  and  C_12
REMARK                            x       y       z     vdW  Elec       q    Type
REMARK                         _______ _______ _______ _____ _____    ______ ____
ROOT
ATOM      1  C   UNL     1       2.338   6.685  19.318  0.00  0.00    +0.000 A 
ATOM      2  C   UNL     1       1.778   7.770  20.018  0.00  0.00    +0.000 A 
ATOM      3  C   UNL     1       1.655   9.029  19.389  0.00  0.00    +0.000 A 
ATOM      4  C   UNL     1       1.139  10.310  19.750  0.00  0.00    +0.000 A 
ATOM      5  N   UNL     1       1.240  11.188  18.726  0.00  0.00    +0.000 NA
ATOM      6  N   UNL     1       1.849  10.479  17.757  0.00  0.00    +0.000 N 
ATOM      7  C   UNL     1       2.104   9.176  18.084  0.00  0.00    +0.000 A 
ATOM      8  C   UNL     1       2.682   8.130  17.364  0.00  0.00    +0.000 A 
ATOM      9  C   UNL     1       2.786   6.891  18.006  0.00  0.00    +0.000 A 
ATOM     10  F   UNL     1       3.322   5.879  17.304  0.00  0.00    +0.000 F 
ATOM     11  H   UNL     1       2.057  10.945  16.880  0.00  0.00    +0.000 HD
ENDROOT
BRANCH   1  15
ATOM     12  C   UNL     1       1.299   2.576  21.911  0.00  0.00    +0.000 C 
ATOM     13  N   UNL     1       1.962   3.567  21.098  0.00  0.00    +0.000 N 
ATOM     14  C   UNL     1       1.460   4.774  20.702  0.00  0.00    +0.000 A 
ATOM     15  C   UNL     1       2.448   5.378  19.948  0.00  0.00    +0.000 A 
ATOM     16  C   UNL     1       3.497   4.430  19.946  0.00  0.00    +0.000 A 
ATOM     17  N   UNL     1       3.209   3.334  20.653  0.00  0.00    +0.000 NA
ENDBRANCH   1  15
BRANCH   4  18
ATOM     18  C   UNL     1       0.545  10.690  21.046  0.00  0.00    +0.000 C 
ATOM     19  O   UNL     1       0.713  10.000  22.048  0.00  0.00    +0.000 OA
ATOM     20  N   UNL     1      -0.213  11.844  20.968  0.00  0.00    +0.000 N 
ATOM     21  H   UNL     1      -0.287  12.225  20.029  0.00  0.00    +0.000 HD
BRANCH  20  22
ATOM     22  C   UNL     1      -0.851  12.527  22.015  0.00  0.00    +0.000 A 
ATOM     23  C   UNL     1      -0.386  13.751  22.535  0.00  0.00    +0.000 A 
ATOM     24  C   UNL     1      -1.121  14.464  23.490  0.00  0.00    +0.000 A 
ATOM     25  C   UNL     1      -2.314  13.926  23.923  0.00  0.00    +0.000 A 
ATOM     26  C   UNL     1      -2.737  12.672  23.492  0.00  0.00    +0.000 A 
ATOM     27  C   UNL     1      -2.036  11.969  22.524  0.00  0.00    +0.000 A 
ATOM     28  C   UNL     1      -3.981  12.318  24.234  0.00  0.00    +0.000 C 
ATOM     29  N   UNL     1      -4.547  13.632  24.634  0.00  0.00    +0.000 NA
ATOM     30  C   UNL     1      -3.355  14.506  24.824  0.00  0.00    +0.000 C 
ATOM     31  H   UNL     1      -5.026  13.989  23.802  0.00  0.00    +0.000 HD
ENDBRANCH  20  22
ENDBRANCH   4  18
TORSDOF 3
ENDMDL
MODEL 9
REMARK VINA RESULT:      -8.3      6.072      9.728
REMARK  Name = 
REMARK  4 active torsions:
REMARK  status: ('A' for Active; 'I' for Inactive)
REMARK    1  A    between atoms: C_1  and  N_2
REMARK    2  A    between atoms: C_4  and  C_5
REMARK    3  A    between atoms: C_8  and  C_9
REMARK    4  A    between atoms: N_11  and  C_12
REMARK                            x       y       z     vdW  Elec       q    Type
REMARK                         _______ _______ _______ _____ _____    ______ ____
ROOT
ATOM      1  C   UNL     1      -1.858  10.874  18.430  0.00  0.00    +0.000 A 
ATOM      2  C   UNL     1      -0.752  10.006  18.487  0.00  0.00    +0.000 A 
ATOM      3  C   UNL     1       0.071   9.983  19.635  0.00  0.00    +0.000 A 
ATOM      4  C   UNL     1       1.221   9.253  20.058  0.00  0.00    +0.000 A 
ATOM      5  N   UNL     1       1.602   9.612  21.306  0.00  0.00    +0.000 NA
ATOM      6  N   UNL     1       0.729  10.582  21.638  0.00  0.00    +0.000 N 
ATOM      7  C   UNL     1      -0.224  10.835  20.690  0.00  0.00    +0.000 A 
ATOM      8  C   UNL     1      -1.300  11.724  20.664  0.00  0.00    +0.000 A 
ATOM      9  C   UNL     1      -2.104  11.722  19.518  0.00  0.00    +0.000 A 
ATOM     10  F   UNL     1      -3.152  12.561  19.504  0.00  0.00    +0.000 F 
ATOM     11  H   UNL     1       0.831  11.031  22.542  0.00  0.00    +0.000 HD
ENDROOT
BRANCH   1  15
ATOM     12  C   UNL     1      -3.679  10.093  13.874  0.00  0.00    +0.000 C 
ATOM     13  N   UNL     1      -3.512  10.524  15.241  0.00  0.00    +0.000 N 
ATOM     14  C   UNL     1      -2.445  10.278  16.055  0.00  0.00    +0.000 A 
ATOM     15  C   UNL     1      -2.726  10.888  17.262  0.00  0.00    +0.000 A 
ATOM     16  C   UNL     1      -4.004  11.460  17.060  0.00  0.00    +0.000 A 
ATOM     17  N   UNL     1      -4.479  11.250  15.829  0.00  0.00    +0.000 NA
ENDBRANCH   1  15
BRANCH   4  18
ATOM     18  C   UNL     1       1.941   8.217  19.293  0.00  0.00    +0.000 C 
ATOM     19  O   UNL     1       2.461   8.474  18.210  0.00  0.00    +0.000 OA
ATOM     20  N   UNL     1       1.916   6.981  19.913  0.00  0.00    +0.000 N 
ATOM     21  H   UNL     1       1.369   6.962  20.769  0.00  0.00    +0.000 HD
BRANCH  20  22
ATOM     22  C   UNL     1       2.559   5.801  19.506  0.00  0.00    +0.000 A 
ATOM     23  C   UNL     1       3.955   5.618  19.580  0.00  0.00    +0.000 A 
ATOM     24  C   UNL     1       4.544   4.383  19.286  0.00  0.00    +0.000 A 
ATOM     25  C   UNL     1       3.719   3.345  18.907  0.00  0.00    +0.000 A 
ATOM     26  C   UNL     1       2.352   3.539  18.734  0.00  0.00    +0.000 A 
ATOM     27  C   UNL     1       1.750   4.748  19.050  0.00  0.00    +0.000 A 
ATOM     28  C   UNL     1       1.766   2.278  18.197  0.00  0.00    +0.000 C 
ATOM     29  N   UNL     1       2.717   1.224  18.634  0.00  0.00    +0.000 NA
ATOM     30  C   UNL     1       4.042   1.908  18.657  0.00  0.00    +0.000 C 
ATOM     31  H   UNL     1       2.485   1.033  19.613  0.00  0.00    +0.000 HD
ENDBRANCH  20  22
ENDBRANCH   4  18
TORSDOF 3
ENDMDL
