MODEL 1
REMARK VINA RESULT:      -5.6      0.000      0.000
REMARK  Name = 
REMARK  9 active torsions:
REMARK  status: ('A' for Active; 'I' for Inactive)
REMARK    1  A    between atoms: C_1  and  C_2
REMARK    2  A    between atoms: C_2  and  S_3
REMARK    3  A    between atoms: S_3  and  N_6
REMARK    4  A    between atoms: N_6  and  C_7
REMARK    5  A    between atoms: C_7  and  C_8
REMARK    6  A    between atoms: C_8  and  N_9
REMARK    7  A    between atoms: N_9  and  S_10
REMARK    8  A    between atoms: S_10  and  C_13
REMARK    9  A    between atoms: C_13  and  C_14
REMARK                            x       y       z     vdW  Elec       q    Type
REMARK                         _______ _______ _______ _____ _____    ______ ____
ROOT
ATOM      1  C   UNL     1       4.977   5.472  17.080  0.00  0.00    +0.000 C 
ENDROOT
BRANCH   1   2
ATOM      2  N   UNL     1       6.150   6.072  16.349  0.00  0.00    +0.000 NA
ATOM      3  H   UNL     1       5.801   6.728  15.646  0.00  0.00    +0.000 HD
BRANCH   2   4
ATOM      4  S   UNL     1       7.191   4.925  15.665  0.00  0.00    +0.000 S 
ATOM      5  O   UNL     1       7.947   4.363  16.761  0.00  0.00    +0.000 OA
ATOM      6  O   UNL     1       7.830   5.559  14.534  0.00  0.00    +0.000 OA
BRANCH   4   8
ATOM      7  C   UNL     1       5.886   3.834  13.553  0.00  0.00    +0.000 C 
ATOM      8  C   UNL     1       6.053   3.687  15.052  0.00  0.00    +0.000 C 
ENDBRANCH   4   8
ENDBRANCH   2   4
ENDBRANCH   1   2
BRANCH   1   9
ATOM      9  C   UNL     1       5.250   5.303  18.583  0.00  0.00    +0.000 C 
BRANCH   9  10
ATOM     10  N   UNL     1       5.630   3.895  18.905  0.00  0.00    +0.000 NA
ATOM     11  H   UNL     1       6.362   3.918  19.622  0.00  0.00    +0.000 HD
BRANCH  10  12
ATOM     12  S   UNL     1       4.336   2.901  19.331  0.00  0.00    +0.000 S 
ATOM     13  O   UNL     1       3.791   2.361  18.107  0.00  0.00    +0.000 OA
ATOM     14  O   UNL     1       4.788   2.036  20.399  0.00  0.00    +0.000 OA
BRANCH  12  15
ATOM     15  C   UNL     1       3.160   4.076  19.987  0.00  0.00    +0.000 C 
ATOM     16  C   UNL     1       2.393   3.453  21.139  0.00  0.00    +0.000 C 
ENDBRANCH  12  15
ENDBRANCH  10  12
ENDBRANCH   9  10
ENDBRANCH   1   9
TORSDOF 7
ENDMDL
MODEL 2
REMARK VINA RESULT:      -5.6      2.422      5.883
REMARK  Name = 
REMARK  9 active torsions:
REMARK  status: ('A' for Active; 'I' for Inactive)
REMARK    1  A    between atoms: C_1  and  C_2
REMARK    2  A    between atoms: C_2  and  S_3
REMARK    3  A    between atoms: S_3  and  N_6
REMARK    4  A    between atoms: N_6  and  C_7
REMARK    5  A    between atoms: C_7  and  C_8
REMARK    6  A    between atoms: C_8  and  N_9
REMARK    7  A    between atoms: N_9  and  S_10
REMARK    8  A    between atoms: S_10  and  C_13
REMARK    9  A    between atoms: C_13  and  C_14
REMARK                            x       y       z     vdW  Elec       q    Type
REMARK                         _______ _______ _______ _____ _____    ______ ____
ROOT
ATOM      1  C   UNL     1       4.115   3.671  18.421  0.00  0.00    +0.000 C 
ENDROOT
BRANCH   1   2
ATOM      2  N   UNL     1       3.036   2.664  18.120  0.00  0.00    +0.000 NA
ATOM      3  H   UNL     1       3.136   2.352  17.150  0.00  0.00    +0.000 HD
BRANCH   2   4
ATOM      4  S   UNL     1       1.468   3.225  18.431  0.00  0.00    +0.000 S 
ATOM      5  O   UNL     1       0.660   2.051  18.667  0.00  0.00    +0.000 OA
ATOM      6  O   UNL     1       1.152   4.182  17.395  0.00  0.00    +0.000 OA
BRANCH   4   8
ATOM      7  C   UNL     1       1.419   3.173  21.141  0.00  0.00    +0.000 C 
ATOM      8  C   UNL     1       1.672   4.107  19.974  0.00  0.00    +0.000 C 
ENDBRANCH   4   8
ENDBRANCH   2   4
ENDBRANCH   1   2
BRANCH   1   9
ATOM      9  C   UNL     1       4.560   4.442  17.168  0.00  0.00    +0.000 C 
BRANCH   9  10
ATOM     10  N   UNL     1       5.794   3.842  16.577  0.00  0.00    +0.000 NA
ATOM     11  H   UNL     1       5.561   3.484  15.646  0.00  0.00    +0.000 HD
BRANCH  10  12
ATOM     12  S   UNL     1       7.132   4.868  16.562  0.00  0.00    +0.000 S 
ATOM     13  O   UNL     1       8.156   4.247  17.371  0.00  0.00    +0.000 OA
ATOM     14  O   UNL     1       7.380   5.234  15.184  0.00  0.00    +0.000 OA
BRANCH  12  15
ATOM     15  C   UNL     1       6.521   6.296  17.446  0.00  0.00    +0.000 C 
ATOM     16  C   UNL     1       7.635   7.313  17.621  0.00  0.00    +0.000 C 
ENDBRANCH  12  15
ENDBRANCH  10  12
ENDBRANCH   9  10
ENDBRANCH   1   9
TORSDOF 7
ENDMDL
MODEL 3
REMARK VINA RESULT:      -5.4      2.485      5.888
REMARK  Name = 
REMARK  9 active torsions:
REMARK  status: ('A' for Active; 'I' for Inactive)
REMARK    1  A    between atoms: C_1  and  C_2
REMARK    2  A    between atoms: C_2  and  S_3
REMARK    3  A    between atoms: S_3  and  N_6
REMARK    4  A    between atoms: N_6  and  C_7
REMARK    5  A    between atoms: C_7  and  C_8
REMARK    6  A    between atoms: C_8  and  N_9
REMARK    7  A    between atoms: N_9  and  S_10
REMARK    8  A    between atoms: S_10  and  C_13
REMARK    9  A    between atoms: C_13  and  C_14
REMARK                            x       y       z     vdW  Elec       q    Type
REMARK                         _______ _______ _______ _____ _____    ______ ____
ROOT
ATOM      1  C   UNL     1       3.932   4.490  19.238  0.00  0.00    +0.000 C 
ENDROOT
BRANCH   1   2
ATOM      2  N   UNL     1       3.104   4.897  20.430  0.00  0.00    +0.000 NA
ATOM      3  H   UNL     1       3.728   5.074  21.221  0.00  0.00    +0.000 HD
BRANCH   2   4
ATOM      4  S   UNL     1       1.892   3.785  20.834  0.00  0.00    +0.000 S 
ATOM      5  O   UNL     1       0.635   4.437  20.546  0.00  0.00    +0.000 OA
ATOM      6  O   UNL     1       2.211   3.274  22.148  0.00  0.00    +0.000 OA
BRANCH   4   8
ATOM      7  C   UNL     1       0.920   2.319  18.770  0.00  0.00    +0.000 C 
ATOM      8  C   UNL     1       2.151   2.478  19.639  0.00  0.00    +0.000 C 
ENDBRANCH   4   8
ENDBRANCH   2   4
ENDBRANCH   1   2
BRANCH   1   9
ATOM      9  C   UNL     1       5.364   5.041  19.308  0.00  0.00    +0.000 C 
BRANCH   9  10
ATOM     10  N   UNL     1       6.311   4.176  18.541  0.00  0.00    +0.000 NA
ATOM     11  H   UNL     1       5.969   3.211  18.587  0.00  0.00    +0.000 HD
BRANCH  10  12
ATOM     12  S   UNL     1       6.601   4.687  16.961  0.00  0.00    +0.000 S 
ATOM     13  O   UNL     1       8.010   4.496  16.703  0.00  0.00    +0.000 OA
ATOM     14  O   UNL     1       5.593   4.081  16.119  0.00  0.00    +0.000 OA
BRANCH  12  15
ATOM     15  C   UNL     1       6.294   6.443  17.071  0.00  0.00    +0.000 C 
ATOM     16  C   UNL     1       7.568   7.168  17.468  0.00  0.00    +0.000 C 
ENDBRANCH  12  15
ENDBRANCH  10  12
ENDBRANCH   9  10
ENDBRANCH   1   9
TORSDOF 7
ENDMDL
MODEL 4
REMARK VINA RESULT:      -5.4      2.040      2.292
REMARK  Name = 
REMARK  9 active torsions:
REMARK  status: ('A' for Active; 'I' for Inactive)
REMARK    1  A    between atoms: C_1  and  C_2
REMARK    2  A    between atoms: C_2  and  S_3
REMARK    3  A    between atoms: S_3  and  N_6
REMARK    4  A    between atoms: N_6  and  C_7
REMARK    5  A    between atoms: C_7  and  C_8
REMARK    6  A    between atoms: C_8  and  N_9
REMARK    7  A    between atoms: N_9  and  S_10
REMARK    8  A    between atoms: S_10  and  C_13
REMARK    9  A    between atoms: C_13  and  C_14
REMARK                            x       y       z     vdW  Elec       q    Type
REMARK                         _______ _______ _______ _____ _____    ______ ____
ROOT
ATOM      1  C   UNL     1       5.287   5.161  19.211  0.00  0.00    +0.000 C 
ENDROOT
BRANCH   1   2
ATOM      2  N   UNL     1       6.151   4.130  18.531  0.00  0.00    +0.000 NA
ATOM      3  H   UNL     1       6.705   3.643  19.241  0.00  0.00    +0.000 HD
BRANCH   2   4
ATOM      4  S   UNL     1       7.133   4.761  17.304  0.00  0.00    +0.000 S 
ATOM      5  O   UNL     1       8.406   4.088  17.423  0.00  0.00    +0.000 OA
ATOM      6  O   UNL     1       7.013   6.199  17.367  0.00  0.00    +0.000 OA
BRANCH   4   8
ATOM      7  C   UNL     1       5.654   5.354  15.110  0.00  0.00    +0.000 C 
ATOM      8  C   UNL     1       6.313   4.188  15.820  0.00  0.00    +0.000 C 
ENDBRANCH   4   8
ENDBRANCH   2   4
ENDBRANCH   1   2
BRANCH   1   9
ATOM      9  C   UNL     1       3.897   5.276  18.566  0.00  0.00    +0.000 C 
BRANCH   9  10
ATOM     10  N   UNL     1       3.481   3.979  17.952  0.00  0.00    +0.000 NA
ATOM     11  H   UNL     1       4.164   3.264  18.221  0.00  0.00    +0.000 HD
BRANCH  10  12
ATOM     12  S   UNL     1       1.895   3.521  18.296  0.00  0.00    +0.000 S 
ATOM     13  O   UNL     1       1.048   4.135  17.299  0.00  0.00    +0.000 OA
ATOM     14  O   UNL     1       1.894   2.089  18.505  0.00  0.00    +0.000 OA
BRANCH  12  15
ATOM     15  C   UNL     1       1.596   4.341  19.855  0.00  0.00    +0.000 C 
ATOM     16  C   UNL     1       1.219   3.320  20.914  0.00  0.00    +0.000 C 
ENDBRANCH  12  15
ENDBRANCH  10  12
ENDBRANCH   9  10
ENDBRANCH   1   9
TORSDOF 7
ENDMDL
MODEL 5
REMARK VINA RESULT:      -5.3      2.239      2.930
REMARK  Name = 
REMARK  9 active torsions:
REMARK  status: ('A' for Active; 'I' for Inactive)
REMARK    1  A    between atoms: C_1  and  C_2
REMARK    2  A    between atoms: C_2  and  S_3
REMARK    3  A    between atoms: S_3  and  N_6
REMARK    4  A    between atoms: N_6  and  C_7
REMARK    5  A    between atoms: C_7  and  C_8
REMARK    6  A    between atoms: C_8  and  N_9
REMARK    7  A    between atoms: N_9  and  S_10
REMARK    8  A    between atoms: S_10  and  C_13
REMARK    9  A    between atoms: C_13  and  C_14
REMARK                            x       y       z     vdW  Elec       q    Type
REMARK                         _______ _______ _______ _____ _____    ______ ____
ROOT
ATOM      1  C   UNL     1       4.754   4.050  17.579  0.00  0.00    +0.000 C 
ENDROOT
BRANCH   1   2
ATOM      2  N   UNL     1       5.786   3.802  16.509  0.00  0.00    +0.000 NA
ATOM      3  H   UNL     1       6.081   2.824  16.555  0.00  0.00    +0.000 HD
BRANCH   2   4
ATOM      4  S   UNL     1       7.112   4.853  16.579  0.00  0.00    +0.000 S 
ATOM      5  O   UNL     1       7.346   5.296  15.223  0.00  0.00    +0.000 OA
ATOM      6  O   UNL     1       8.132   4.192  17.360  0.00  0.00    +0.000 OA
BRANCH   4   8
ATOM      7  C   UNL     1       7.487   7.347  17.576  0.00  0.00    +0.000 C 
ATOM      8  C   UNL     1       6.469   6.225  17.531  0.00  0.00    +0.000 C 
ENDBRANCH   4   8
ENDBRANCH   2   4
ENDBRANCH   1   2
BRANCH   1   9
ATOM      9  C   UNL     1       3.392   3.431  17.231  0.00  0.00    +0.000 C 
BRANCH   9  10
ATOM     10  N   UNL     1       2.307   4.003  18.085  0.00  0.00    +0.000 NA
ATOM     11  H   UNL     1       1.642   4.488  17.474  0.00  0.00    +0.000 HD
BRANCH  10  12
ATOM     12  S   UNL     1       1.557   2.887  19.103  0.00  0.00    +0.000 S 
ATOM     13  O   UNL     1       0.359   2.437  18.434  0.00  0.00    +0.000 OA
ATOM     14  O   UNL     1       2.571   1.952  19.540  0.00  0.00    +0.000 OA
BRANCH  12  15
ATOM     15  C   UNL     1       1.068   3.909  20.484  0.00  0.00    +0.000 C 
ATOM     16  C   UNL     1       1.856   5.207  20.474  0.00  0.00    +0.000 C 
ENDBRANCH  12  15
ENDBRANCH  10  12
ENDBRANCH   9  10
ENDBRANCH   1   9
TORSDOF 7
ENDMDL
MODEL 6
REMARK VINA RESULT:      -5.3      2.444      5.525
REMARK  Name = 
REMARK  9 active torsions:
REMARK  status: ('A' for Active; 'I' for Inactive)
REMARK    1  A    between atoms: C_1  and  C_2
REMARK    2  A    between atoms: C_2  and  S_3
REMARK    3  A    between atoms: S_3  and  N_6
REMARK    4  A    between atoms: N_6  and  C_7
REMARK    5  A    between atoms: C_7  and  C_8
REMARK    6  A    between atoms: C_8  and  N_9
REMARK    7  A    between atoms: N_9  and  S_10
REMARK    8  A    between atoms: S_10  and  C_13
REMARK    9  A    between atoms: C_13  and  C_14
REMARK                            x       y       z     vdW  Elec       q    Type
REMARK                         _______ _______ _______ _____ _____    ______ ____
ROOT
ATOM      1  C   UNL     1       4.420   3.619  19.388  0.00  0.00    +0.000 C 
ENDROOT
BRANCH   1   2
ATOM      2  N   UNL     1       3.434   3.570  18.250  0.00  0.00    +0.000 NA
ATOM      3  H   UNL     1       3.783   4.154  17.485  0.00  0.00    +0.000 HD
BRANCH   2   4
ATOM      4  S   UNL     1       1.857   4.003  18.690  0.00  0.00    +0.000 S 
ATOM      5  O   UNL     1       1.102   4.074  17.460  0.00  0.00    +0.000 OA
ATOM      6  O   UNL     1       1.966   5.126  19.593  0.00  0.00    +0.000 OA
BRANCH   4   8
ATOM      7  C   UNL     1       1.207   2.928  21.093  0.00  0.00    +0.000 C 
ATOM      8  C   UNL     1       1.310   2.577  19.623  0.00  0.00    +0.000 C 
ENDBRANCH   4   8
ENDBRANCH   2   4
ENDBRANCH   1   2
BRANCH   1   9
ATOM      9  C   UNL     1       5.525   4.662  19.159  0.00  0.00    +0.000 C 
BRANCH   9  10
ATOM     10  N   UNL     1       6.617   4.109  18.303  0.00  0.00    +0.000 NA
ATOM     11  H   UNL     1       6.606   3.088  18.391  0.00  0.00    +0.000 HD
BRANCH  10  12
ATOM     12  S   UNL     1       6.574   4.621  16.697  0.00  0.00    +0.000 S 
ATOM     13  O   UNL     1       7.919   4.517  16.180  0.00  0.00    +0.000 OA
ATOM     14  O   UNL     1       5.467   3.945  16.057  0.00  0.00    +0.000 OA
BRANCH  12  15
ATOM     15  C   UNL     1       6.182   6.356  16.866  0.00  0.00    +0.000 C 
ATOM     16  C   UNL     1       4.875   6.664  16.157  0.00  0.00    +0.000 C 
ENDBRANCH  12  15
ENDBRANCH  10  12
ENDBRANCH   9  10
ENDBRANCH   1   9
TORSDOF 7
ENDMDL
MODEL 7
REMARK VINA RESULT:      -5.3      1.607      5.205
REMARK  Name = 
REMARK  9 active torsions:
REMARK  status: ('A' for Active; 'I' for Inactive)
REMARK    1  A    between atoms: C_1  and  C_2
REMARK    2  A    between atoms: C_2  and  S_3
REMARK    3  A    between atoms: S_3  and  N_6
REMARK    4  A    between atoms: N_6  and  C_7
REMARK    5  A    between atoms: C_7  and  C_8
REMARK    6  A    between atoms: C_8  and  N_9
REMARK    7  A    between atoms: N_9  and  S_10
REMARK    8  A    between atoms: S_10  and  C_13
REMARK    9  A    between atoms: C_13  and  C_14
REMARK                            x       y       z     vdW  Elec       q    Type
REMARK                         _______ _______ _______ _____ _____    ______ ____
ROOT
ATOM      1  C   UNL     1       4.912   4.563  19.521  0.00  0.00    +0.000 C 
ENDROOT
BRANCH   1   2
ATOM      2  N   UNL     1       5.002   3.165  18.965  0.00  0.00    +0.000 NA
ATOM      3  H   UNL     1       5.486   3.198  18.064  0.00  0.00    +0.000 HD
BRANCH   2   4
ATOM      4  S   UNL     1       3.506   2.382  18.834  0.00  0.00    +0.000 S 
ATOM      5  O   UNL     1       2.772   2.714  20.035  0.00  0.00    +0.000 OA
ATOM      6  O   UNL     1       3.778   1.016  18.451  0.00  0.00    +0.000 OA
BRANCH   4   8
ATOM      7  C   UNL     1       1.586   4.067  17.923  0.00  0.00    +0.000 C 
ATOM      8  C   UNL     1       2.750   3.220  17.446  0.00  0.00    +0.000 C 
ENDBRANCH   4   8
ENDBRANCH   2   4
ENDBRANCH   1   2
BRANCH   1   9
ATOM      9  C   UNL     1       5.734   5.570  18.703  0.00  0.00    +0.000 C 
BRANCH   9  10
ATOM     10  N   UNL     1       5.725   5.219  17.251  0.00  0.00    +0.000 NA
ATOM     11  H   UNL     1       5.057   5.836  16.777  0.00  0.00    +0.000 HD
BRANCH  10  12
ATOM     12  S   UNL     1       7.244   5.225  16.519  0.00  0.00    +0.000 S 
ATOM     13  O   UNL     1       7.654   6.606  16.399  0.00  0.00    +0.000 OA
ATOM     14  O   UNL     1       8.062   4.255  17.214  0.00  0.00    +0.000 OA
BRANCH  12  15
ATOM     15  C   UNL     1       6.875   4.616  14.881  0.00  0.00    +0.000 C 
ATOM     16  C   UNL     1       5.399   4.279  14.773  0.00  0.00    +0.000 C 
ENDBRANCH  12  15
ENDBRANCH  10  12
ENDBRANCH   9  10
ENDBRANCH   1   9
TORSDOF 7
ENDMDL
MODEL 8
REMARK VINA RESULT:      -5.3      1.901      2.196
REMARK  Name = 
REMARK  9 active torsions:
REMARK  status: ('A' for Active; 'I' for Inactive)
REMARK    1  A    between atoms: C_1  and  C_2
REMARK    2  A    between atoms: C_2  and  S_3
REMARK    3  A    between atoms: S_3  and  N_6
REMARK    4  A    between atoms: N_6  and  C_7
REMARK    5  A    between atoms: C_7  and  C_8
REMARK    6  A    between atoms: C_8  and  N_9
REMARK    7  A    between atoms: N_9  and  S_10
REMARK    8  A    between atoms: S_10  and  C_13
REMARK    9  A    between atoms: C_13  and  C_14
REMARK                            x       y       z     vdW  Elec       q    Type
REMARK                         _______ _______ _______ _____ _____    ______ ____
ROOT
ATOM      1  C   UNL     1       5.546   4.407  18.594  0.00  0.00    +0.000 C 
ENDROOT
BRANCH   1   2
ATOM      2  N   UNL     1       5.542   4.631  17.104  0.00  0.00    +0.000 NA
ATOM      3  H   UNL     1       5.225   3.775  16.642  0.00  0.00    +0.000 HD
BRANCH   2   4
ATOM      4  S   UNL     1       7.030   5.153  16.486  0.00  0.00    +0.000 S 
ATOM      5  O   UNL     1       8.042   4.375  17.164  0.00  0.00    +0.000 OA
ATOM      6  O   UNL     1       7.017   6.598  16.523  0.00  0.00    +0.000 OA
BRANCH   4   8
ATOM      7  C   UNL     1       5.508   4.328  14.399  0.00  0.00    +0.000 C 
ATOM      8  C   UNL     1       6.945   4.628  14.778  0.00  0.00    +0.000 C 
ENDBRANCH   4   8
ENDBRANCH   2   4
ENDBRANCH   1   2
BRANCH   1   9
ATOM      9  C   UNL     1       4.411   3.475  19.047  0.00  0.00    +0.000 C 
BRANCH   9  10
ATOM     10  N   UNL     1       3.083   4.150  18.935  0.00  0.00    +0.000 NA
ATOM     11  H   UNL     1       3.229   5.074  18.517  0.00  0.00    +0.000 HD
BRANCH  10  12
ATOM     12  S   UNL     1       1.909   3.251  18.125  0.00  0.00    +0.000 S 
ATOM     13  O   UNL     1       1.194   4.163  17.261  0.00  0.00    +0.000 OA
ATOM     14  O   UNL     1       2.555   2.068  17.600  0.00  0.00    +0.000 OA
BRANCH  12  15
ATOM     15  C   UNL     1       0.813   2.779  19.455  0.00  0.00    +0.000 C 
ATOM     16  C   UNL     1       1.069   3.652  20.671  0.00  0.00    +0.000 C 
ENDBRANCH  12  15
ENDBRANCH  10  12
ENDBRANCH   9  10
ENDBRANCH   1   9
TORSDOF 7
ENDMDL
MODEL 9
REMARK VINA RESULT:      -5.3      2.278      3.019
REMARK  Name = 
REMARK  9 active torsions:
REMARK  status: ('A' for Active; 'I' for Inactive)
REMARK    1  A    between atoms: C_1  and  C_2
REMARK    2  A    between atoms: C_2  and  S_3
REMARK    3  A    between atoms: S_3  and  N_6
REMARK    4  A    between atoms: N_6  and  C_7
REMARK    5  A    between atoms: C_7  and  C_8
REMARK    6  A    between atoms: C_8  and  N_9
REMARK    7  A    between atoms: N_9  and  S_10
REMARK    8  A    between atoms: S_10  and  C_13
REMARK    9  A    between atoms: C_13  and  C_14
REMARK                            x       y       z     vdW  Elec       q    Type
REMARK                         _______ _______ _______ _____ _____    ______ ____
ROOT
ATOM      1  C   UNL     1       4.483   5.639  17.310  0.00  0.00    +0.000 C 
ENDROOT
BRANCH   1   2
ATOM      2  N   UNL     1       5.652   4.787  17.733  0.00  0.00    +0.000 NA
ATOM      3  H   UNL     1       5.663   4.725  18.754  0.00  0.00    +0.000 HD
BRANCH   2   4
ATOM      4  S   UNL     1       7.141   5.318  17.128  0.00  0.00    +0.000 S 
ATOM      5  O   UNL     1       6.856   5.959  15.864  0.00  0.00    +0.000 OA
ATOM      6  O   UNL     1       8.060   4.208  17.238  0.00  0.00    +0.000 OA
BRANCH   4   8
ATOM      7  C   UNL     1       7.750   7.913  17.627  0.00  0.00    +0.000 C 
ATOM      8  C   UNL     1       7.617   6.569  18.315  0.00  0.00    +0.000 C 
ENDBRANCH   4   8
ENDBRANCH   2   4
ENDBRANCH   1   2
BRANCH   1   9
ATOM      9  C   UNL     1       3.332   5.597  18.328  0.00  0.00    +0.000 C 
BRANCH   9  10
ATOM     10  N   UNL     1       3.157   4.222  18.885  0.00  0.00    +0.000 NA
ATOM     11  H   UNL     1       3.007   4.303  19.896  0.00  0.00    +0.000 HD
BRANCH  10  12
ATOM     12  S   UNL     1       1.963   3.306  18.125  0.00  0.00    +0.000 S 
ATOM     13  O   UNL     1       1.191   4.209  17.303  0.00  0.00    +0.000 OA
ATOM     14  O   UNL     1       2.606   2.139  17.562  0.00  0.00    +0.000 OA
BRANCH  12  15
ATOM     15  C   UNL     1       0.940   2.804  19.502  0.00  0.00    +0.000 C 
ATOM     16  C   UNL     1       1.219   3.688  20.704  0.00  0.00    +0.000 C 
ENDBRANCH  12  15
ENDBRANCH  10  12
ENDBRANCH   9  10
ENDBRANCH   1   9
TORSDOF 7
ENDMDL
