MODEL 1
REMARK VINA RESULT:      -7.4      0.000      0.000
REMARK  Name = 
REMARK  9 active torsions:
REMARK  status: ('A' for Active; 'I' for Inactive)
REMARK    1  A    between atoms: C_2  and  C_12
REMARK    2  A    between atoms: N_3  and  C_4
REMARK    3  A    between atoms: C_4  and  C_5
REMARK    4  A    between atoms: C_5  and  C_6
REMARK    5  A    between atoms: N_14  and  C_15
REMARK    6  A    between atoms: C_15  and  C_16
REMARK    7  A    between atoms: C_16  and  N_17
REMARK    8  A    between atoms: N_17  and  C_18
REMARK    9  A    between atoms: C_18  and  C_19
REMARK                            x       y       z     vdW  Elec       q    Type
REMARK                         _______ _______ _______ _____ _____    ______ ____
ROOT
ATOM      1  C   UNL     1       6.950   5.247  17.559  0.00  0.00    +0.000 A 
ATOM      2  C   UNL     1       5.671   4.766  17.755  0.00  0.00    +0.000 A 
ATOM      3  N   UNL     1       5.440   3.972  16.677  0.00  0.00    +0.000 N 
ATOM      4  N   UNL     1       6.507   3.938  15.859  0.00  0.00    +0.000 NA
ATOM      5  N   UNL     1       7.445   4.718  16.390  0.00  0.00    +0.000 NA
ENDROOT
BRANCH   1   7
ATOM      6  O   UNL     1       7.953   5.885  19.578  0.00  0.00    +0.000 OA
ATOM      7  C   UNL     1       7.644   6.185  18.426  0.00  0.00    +0.000 C 
ATOM      8  N   UNL     1       7.920   7.429  17.888  0.00  0.00    +0.000 N 
ATOM      9  H   UNL     1       7.673   7.606  16.919  0.00  0.00    +0.000 HD
BRANCH   8  10
ATOM     10  C   UNL     1       8.561   8.429  18.721  0.00  0.00    +0.000 C 
BRANCH  10  11
ATOM     11  C   UNL     1       8.487   9.853  18.173  0.00  0.00    +0.000 C 
BRANCH  11  12
ATOM     12  C   UNL     1       9.575  10.731  18.755  0.00  0.00    +0.000 A 
ATOM     13  C   UNL     1       9.587  11.022  20.126  0.00  0.00    +0.000 A 
ATOM     14  C   UNL     1      10.566  11.857  20.670  0.00  0.00    +0.000 A 
ATOM     15  C   UNL     1      11.543  12.414  19.849  0.00  0.00    +0.000 A 
ATOM     16  C   UNL     1      11.544  12.135  18.484  0.00  0.00    +0.000 A 
ATOM     17  C   UNL     1      10.565  11.299  17.938  0.00  0.00    +0.000 A 
ENDBRANCH  11  12
ENDBRANCH  10  11
ENDBRANCH   8  10
ENDBRANCH   1   7
BRANCH   3  18
ATOM     18  C   UNL     1       4.214   3.268  16.347  0.00  0.00    +0.000 C 
BRANCH  18  19
ATOM     19  C   UNL     1       3.539   2.718  17.606  0.00  0.00    +0.000 C 
BRANCH  19  20
ATOM     20  N   UNL     1       2.080   2.899  17.594  0.00  0.00    +0.000 NA
ATOM     21  H   UNL     1       1.613   2.033  17.322  0.00  0.00    +0.000 HD
BRANCH  20  22
ATOM     22  C   UNL     1       1.610   3.283  18.931  0.00  0.00    +0.000 C 
BRANCH  22  23
ATOM     23  C   UNL     1       1.837   4.743  19.208  0.00  0.00    +0.000 A 
ATOM     24  C   UNL     1       1.711   5.275  20.494  0.00  0.00    +0.000 A 
ATOM     25  C   UNL     1       1.903   6.639  20.702  0.00  0.00    +0.000 A 
ATOM     26  C   UNL     1       2.215   7.430  19.610  0.00  0.00    +0.000 A 
ATOM     27  N   UNL     1       2.340   6.957  18.351  0.00  0.00    +0.000 NA
ATOM     28  C   UNL     1       2.146   5.630  18.180  0.00  0.00    +0.000 A 
ENDBRANCH  22  23
ENDBRANCH  20  22
ENDBRANCH  19  20
ENDBRANCH  18  19
ENDBRANCH   3  18
TORSDOF 9
ENDMDL
MODEL 2
REMARK VINA RESULT:      -7.3      3.753      8.197
REMARK  Name = 
REMARK  9 active torsions:
REMARK  status: ('A' for Active; 'I' for Inactive)
REMARK    1  A    between atoms: C_2  and  C_12
REMARK    2  A    between atoms: N_3  and  C_4
REMARK    3  A    between atoms: C_4  and  C_5
REMARK    4  A    between atoms: C_5  and  C_6
REMARK    5  A    between atoms: N_14  and  C_15
REMARK    6  A    between atoms: C_15  and  C_16
REMARK    7  A    between atoms: C_16  and  N_17
REMARK    8  A    between atoms: N_17  and  C_18
REMARK    9  A    between atoms: C_18  and  C_19
REMARK                            x       y       z     vdW  Elec       q    Type
REMARK                         _______ _______ _______ _____ _____    ______ ____
ROOT
ATOM      1  C   UNL     1       2.232   7.148  18.909  0.00  0.00    +0.000 A 
ATOM      2  C   UNL     1       2.704   6.125  18.110  0.00  0.00    +0.000 A 
ATOM      3  N   UNL     1       2.921   5.098  18.972  0.00  0.00    +0.000 N 
ATOM      4  N   UNL     1       2.595   5.439  20.231  0.00  0.00    +0.000 NA
ATOM      5  N   UNL     1       2.167   6.699  20.207  0.00  0.00    +0.000 NA
ENDROOT
BRANCH   1   7
ATOM      6  O   UNL     1       2.276   8.911  17.368  0.00  0.00    +0.000 OA
ATOM      7  C   UNL     1       1.894   8.488  18.458  0.00  0.00    +0.000 C 
ATOM      8  N   UNL     1       1.137   9.255  19.323  0.00  0.00    +0.000 N 
ATOM      9  H   UNL     1       0.821   8.838  20.193  0.00  0.00    +0.000 HD
BRANCH   8  10
ATOM     10  C   UNL     1       0.813  10.620  18.954  0.00  0.00    +0.000 C 
BRANCH  10  11
ATOM     11  C   UNL     1      -0.535  11.116  19.474  0.00  0.00    +0.000 C 
BRANCH  11  12
ATOM     12  C   UNL     1      -1.627  10.947  18.439  0.00  0.00    +0.000 A 
ATOM     13  C   UNL     1      -2.835  11.647  18.570  0.00  0.00    +0.000 A 
ATOM     14  C   UNL     1      -3.863  11.476  17.641  0.00  0.00    +0.000 A 
ATOM     15  C   UNL     1      -3.699  10.599  16.571  0.00  0.00    +0.000 A 
ATOM     16  C   UNL     1      -2.505   9.895  16.429  0.00  0.00    +0.000 A 
ATOM     17  C   UNL     1      -1.474  10.066  17.358  0.00  0.00    +0.000 A 
ENDBRANCH  11  12
ENDBRANCH  10  11
ENDBRANCH   8  10
ENDBRANCH   1   7
BRANCH   3  18
ATOM     18  C   UNL     1       3.485   3.795  18.666  0.00  0.00    +0.000 C 
BRANCH  18  19
ATOM     19  C   UNL     1       3.883   3.700  17.191  0.00  0.00    +0.000 C 
BRANCH  19  20
ATOM     20  N   UNL     1       5.336   3.799  16.987  0.00  0.00    +0.000 NA
ATOM     21  H   UNL     1       5.549   4.456  16.235  0.00  0.00    +0.000 HD
BRANCH  20  22
ATOM     22  C   UNL     1       5.985   4.272  18.218  0.00  0.00    +0.000 C 
BRANCH  22  23
ATOM     23  C   UNL     1       6.661   5.599  18.021  0.00  0.00    +0.000 A 
ATOM     24  C   UNL     1       7.699   6.026  18.854  0.00  0.00    +0.000 A 
ATOM     25  C   UNL     1       8.280   7.275  18.653  0.00  0.00    +0.000 A 
ATOM     26  C   UNL     1       7.800   8.063  17.621  0.00  0.00    +0.000 A 
ATOM     27  N   UNL     1       6.796   7.692  16.798  0.00  0.00    +0.000 NA
ATOM     28  C   UNL     1       6.251   6.474  17.019  0.00  0.00    +0.000 A 
ENDBRANCH  22  23
ENDBRANCH  20  22
ENDBRANCH  19  20
ENDBRANCH  18  19
ENDBRANCH   3  18
TORSDOF 9
ENDMDL
MODEL 3
REMARK VINA RESULT:      -7.2      5.117      8.586
REMARK  Name = 
REMARK  9 active torsions:
REMARK  status: ('A' for Active; 'I' for Inactive)
REMARK    1  A    between atoms: C_2  and  C_12
REMARK    2  A    between atoms: N_3  and  C_4
REMARK    3  A    between atoms: C_4  and  C_5
REMARK    4  A    between atoms: C_5  and  C_6
REMARK    5  A    between atoms: N_14  and  C_15
REMARK    6  A    between atoms: C_15  and  C_16
REMARK    7  A    between atoms: C_16  and  N_17
REMARK    8  A    between atoms: N_17  and  C_18
REMARK    9  A    between atoms: C_18  and  C_19
REMARK                            x       y       z     vdW  Elec       q    Type
REMARK                         _______ _______ _______ _____ _____    ______ ____
ROOT
ATOM      1  C   UNL     1       3.080   6.735  18.610  0.00  0.00    +0.000 A 
ATOM      2  C   UNL     1       2.343   6.956  19.757  0.00  0.00    +0.000 A 
ATOM      3  N   UNL     1       1.826   8.201  19.591  0.00  0.00    +0.000 N 
ATOM      4  N   UNL     1       2.196   8.730  18.411  0.00  0.00    +0.000 NA
ATOM      5  N   UNL     1       2.968   7.838  17.796  0.00  0.00    +0.000 NA
ENDROOT
BRANCH   1   7
ATOM      6  O   UNL     1       4.992   5.397  18.814  0.00  0.00    +0.000 OA
ATOM      7  C   UNL     1       3.872   5.550  18.328  0.00  0.00    +0.000 C 
ATOM      8  N   UNL     1       3.303   4.618  17.480  0.00  0.00    +0.000 N 
ATOM      9  H   UNL     1       2.360   4.783  17.140  0.00  0.00    +0.000 HD
BRANCH   8  10
ATOM     10  C   UNL     1       4.065   3.439  17.115  0.00  0.00    +0.000 C 
BRANCH  10  11
ATOM     11  C   UNL     1       3.616   2.154  17.807  0.00  0.00    +0.000 C 
BRANCH  11  12
ATOM     12  C   UNL     1       2.795   2.444  19.046  0.00  0.00    +0.000 A 
ATOM     13  C   UNL     1       3.407   2.463  20.307  0.00  0.00    +0.000 A 
ATOM     14  C   UNL     1       2.657   2.697  21.461  0.00  0.00    +0.000 A 
ATOM     15  C   UNL     1       1.284   2.913  21.370  0.00  0.00    +0.000 A 
ATOM     16  C   UNL     1       0.661   2.896  20.123  0.00  0.00    +0.000 A 
ATOM     17  C   UNL     1       1.412   2.662  18.967  0.00  0.00    +0.000 A 
ENDBRANCH  11  12
ENDBRANCH  10  11
ENDBRANCH   8  10
ENDBRANCH   1   7
BRANCH   3  18
ATOM     18  C   UNL     1       1.022   8.955  20.536  0.00  0.00    +0.000 C 
BRANCH  18  19
ATOM     19  C   UNL     1       0.581  10.293  19.938  0.00  0.00    +0.000 C 
BRANCH  19  20
ATOM     20  N   UNL     1      -0.816  10.277  19.479  0.00  0.00    +0.000 NA
ATOM     21  H   UNL     1      -1.278  11.159  19.704  0.00  0.00    +0.000 HD
BRANCH  20  22
ATOM     22  C   UNL     1      -0.865  10.082  18.024  0.00  0.00    +0.000 C 
BRANCH  22  23
ATOM     23  C   UNL     1      -2.179  10.522  17.442  0.00  0.00    +0.000 A 
ATOM     24  C   UNL     1      -2.531  10.235  16.121  0.00  0.00    +0.000 A 
ATOM     25  C   UNL     1      -3.747  10.685  15.614  0.00  0.00    +0.000 A 
ATOM     26  C   UNL     1      -4.576  11.415  16.449  0.00  0.00    +0.000 A 
ATOM     27  N   UNL     1      -4.271  11.719  17.729  0.00  0.00    +0.000 NA
ATOM     28  C   UNL     1      -3.083  11.270  18.193  0.00  0.00    +0.000 A 
ENDBRANCH  22  23
ENDBRANCH  20  22
ENDBRANCH  19  20
ENDBRANCH  18  19
ENDBRANCH   3  18
TORSDOF 9
ENDMDL
MODEL 4
REMARK VINA RESULT:      -7.2      1.492      1.773
REMARK  Name = 
REMARK  9 active torsions:
REMARK  status: ('A' for Active; 'I' for Inactive)
REMARK    1  A    between atoms: C_2  and  C_12
REMARK    2  A    between atoms: N_3  and  C_4
REMARK    3  A    between atoms: C_4  and  C_5
REMARK    4  A    between atoms: C_5  and  C_6
REMARK    5  A    between atoms: N_14  and  C_15
REMARK    6  A    between atoms: C_15  and  C_16
REMARK    7  A    between atoms: C_16  and  N_17
REMARK    8  A    between atoms: N_17  and  C_18
REMARK    9  A    between atoms: C_18  and  C_19
REMARK                            x       y       z     vdW  Elec       q    Type
REMARK                         _______ _______ _______ _____ _____    ______ ____
ROOT
ATOM      1  C   UNL     1       6.313   5.183  17.984  0.00  0.00    +0.000 A 
ATOM      2  C   UNL     1       5.334   4.500  17.290  0.00  0.00    +0.000 A 
ATOM      3  N   UNL     1       4.843   3.608  18.189  0.00  0.00    +0.000 N 
ATOM      4  N   UNL     1       5.459   3.725  19.379  0.00  0.00    +0.000 NA
ATOM      5  N   UNL     1       6.366   4.693  19.268  0.00  0.00    +0.000 NA
ENDROOT
BRANCH   1   7
ATOM      6  O   UNL     1       7.490   6.229  16.249  0.00  0.00    +0.000 OA
ATOM      7  C   UNL     1       7.171   6.221  17.437  0.00  0.00    +0.000 C 
ATOM      8  N   UNL     1       7.613   7.184  18.325  0.00  0.00    +0.000 N 
ATOM      9  H   UNL     1       7.286   7.146  19.286  0.00  0.00    +0.000 HD
BRANCH   8  10
ATOM     10  C   UNL     1       8.516   8.216  17.853  0.00  0.00    +0.000 C 
BRANCH  10  11
ATOM     11  C   UNL     1       7.904   9.614  17.787  0.00  0.00    +0.000 C 
BRANCH  11  12
ATOM     12  C   UNL     1       8.812  10.651  18.413  0.00  0.00    +0.000 A 
ATOM     13  C   UNL     1       9.478  10.369  19.615  0.00  0.00    +0.000 A 
ATOM     14  C   UNL     1      10.293  11.327  20.221  0.00  0.00    +0.000 A 
ATOM     15  C   UNL     1      10.450  12.582  19.635  0.00  0.00    +0.000 A 
ATOM     16  C   UNL     1       9.794  12.877  18.442  0.00  0.00    +0.000 A 
ATOM     17  C   UNL     1       8.978  11.918  17.834  0.00  0.00    +0.000 A 
ENDBRANCH  11  12
ENDBRANCH  10  11
ENDBRANCH   8  10
ENDBRANCH   1   7
BRANCH   3  18
ATOM     18  C   UNL     1       3.835   2.589  17.959  0.00  0.00    +0.000 C 
BRANCH  18  19
ATOM     19  C   UNL     1       2.720   3.114  17.051  0.00  0.00    +0.000 C 
BRANCH  19  20
ATOM     20  N   UNL     1       1.507   3.483  17.796  0.00  0.00    +0.000 NA
ATOM     21  H   UNL     1       0.852   2.700  17.826  0.00  0.00    +0.000 HD
BRANCH  20  22
ATOM     22  C   UNL     1       1.857   3.853  19.174  0.00  0.00    +0.000 C 
BRANCH  22  23
ATOM     23  C   UNL     1       1.891   5.344  19.363  0.00  0.00    +0.000 A 
ATOM     24  C   UNL     1       2.295   6.205  18.339  0.00  0.00    +0.000 A 
ATOM     25  C   UNL     1       2.339   7.579  18.565  0.00  0.00    +0.000 A 
ATOM     26  C   UNL     1       1.977   8.048  19.817  0.00  0.00    +0.000 A 
ATOM     27  N   UNL     1       1.587   7.251  20.834  0.00  0.00    +0.000 NA
ATOM     28  C   UNL     1       1.557   5.922  20.585  0.00  0.00    +0.000 A 
ENDBRANCH  22  23
ENDBRANCH  20  22
ENDBRANCH  19  20
ENDBRANCH  18  19
ENDBRANCH   3  18
TORSDOF 9
ENDMDL
MODEL 5
REMARK VINA RESULT:      -7.2      3.486      7.328
REMARK  Name = 
REMARK  9 active torsions:
REMARK  status: ('A' for Active; 'I' for Inactive)
REMARK    1  A    between atoms: C_2  and  C_12
REMARK    2  A    between atoms: N_3  and  C_4
REMARK    3  A    between atoms: C_4  and  C_5
REMARK    4  A    between atoms: C_5  and  C_6
REMARK    5  A    between atoms: N_14  and  C_15
REMARK    6  A    between atoms: C_15  and  C_16
REMARK    7  A    between atoms: C_16  and  N_17
REMARK    8  A    between atoms: N_17  and  C_18
REMARK    9  A    between atoms: C_18  and  C_19
REMARK                            x       y       z     vdW  Elec       q    Type
REMARK                         _______ _______ _______ _____ _____    ______ ____
ROOT
ATOM      1  C   UNL     1       2.655   6.499  18.740  0.00  0.00    +0.000 A 
ATOM      2  C   UNL     1       2.002   5.365  18.299  0.00  0.00    +0.000 A 
ATOM      3  N   UNL     1       2.676   4.340  18.881  0.00  0.00    +0.000 N 
ATOM      4  N   UNL     1       3.680   4.792  19.653  0.00  0.00    +0.000 NA
ATOM      5  N   UNL     1       3.678   6.121  19.577  0.00  0.00    +0.000 NA
ENDROOT
BRANCH   1   7
ATOM      6  O   UNL     1       2.716   8.333  17.283  0.00  0.00    +0.000 OA
ATOM      7  C   UNL     1       2.335   7.864  18.355  0.00  0.00    +0.000 C 
ATOM      8  N   UNL     1       1.595   8.601  19.261  0.00  0.00    +0.000 N 
ATOM      9  H   UNL     1       1.279   8.147  20.112  0.00  0.00    +0.000 HD
BRANCH   8  10
ATOM     10  C   UNL     1       1.291   9.986  18.960  0.00  0.00    +0.000 C 
BRANCH  10  11
ATOM     11  C   UNL     1      -0.195  10.335  19.009  0.00  0.00    +0.000 C 
BRANCH  11  12
ATOM     12  C   UNL     1      -0.632  10.718  20.408  0.00  0.00    +0.000 A 
ATOM     13  C   UNL     1      -1.379  11.886  20.617  0.00  0.00    +0.000 A 
ATOM     14  C   UNL     1      -1.760  12.269  21.905  0.00  0.00    +0.000 A 
ATOM     15  C   UNL     1      -1.396  11.490  23.001  0.00  0.00    +0.000 A 
ATOM     16  C   UNL     1      -0.652  10.328  22.809  0.00  0.00    +0.000 A 
ATOM     17  C   UNL     1      -0.270   9.943  21.520  0.00  0.00    +0.000 A 
ENDBRANCH  11  12
ENDBRANCH  10  11
ENDBRANCH   8  10
ENDBRANCH   1   7
BRANCH   3  18
ATOM     18  C   UNL     1       2.447   2.918  18.699  0.00  0.00    +0.000 C 
BRANCH  18  19
ATOM     19  C   UNL     1       3.242   2.381  17.506  0.00  0.00    +0.000 C 
BRANCH  19  20
ATOM     20  N   UNL     1       4.656   2.780  17.539  0.00  0.00    +0.000 NA
ATOM     21  H   UNL     1       5.262   1.963  17.452  0.00  0.00    +0.000 HD
BRANCH  20  22
ATOM     22  C   UNL     1       4.946   3.696  16.428  0.00  0.00    +0.000 C 
BRANCH  22  23
ATOM     23  C   UNL     1       5.806   4.850  16.862  0.00  0.00    +0.000 A 
ATOM     24  C   UNL     1       6.829   4.692  17.801  0.00  0.00    +0.000 A 
ATOM     25  C   UNL     1       7.585   5.792  18.196  0.00  0.00    +0.000 A 
ATOM     26  C   UNL     1       7.290   7.024  17.636  0.00  0.00    +0.000 A 
ATOM     27  N   UNL     1       6.307   7.221  16.732  0.00  0.00    +0.000 NA
ATOM     28  C   UNL     1       5.589   6.134  16.370  0.00  0.00    +0.000 A 
ENDBRANCH  22  23
ENDBRANCH  20  22
ENDBRANCH  19  20
ENDBRANCH  18  19
ENDBRANCH   3  18
TORSDOF 9
ENDMDL
MODEL 6
REMARK VINA RESULT:      -7.2      1.300      1.413
REMARK  Name = 
REMARK  9 active torsions:
REMARK  status: ('A' for Active; 'I' for Inactive)
REMARK    1  A    between atoms: C_2  and  C_12
REMARK    2  A    between atoms: N_3  and  C_4
REMARK    3  A    between atoms: C_4  and  C_5
REMARK    4  A    between atoms: C_5  and  C_6
REMARK    5  A    between atoms: N_14  and  C_15
REMARK    6  A    between atoms: C_15  and  C_16
REMARK    7  A    between atoms: C_16  and  N_17
REMARK    8  A    between atoms: N_17  and  C_18
REMARK    9  A    between atoms: C_18  and  C_19
REMARK                            x       y       z     vdW  Elec       q    Type
REMARK                         _______ _______ _______ _____ _____    ______ ____
ROOT
ATOM      1  C   UNL     1       6.144   5.183  17.026  0.00  0.00    +0.000 A 
ATOM      2  C   UNL     1       5.748   4.360  18.062  0.00  0.00    +0.000 A 
ATOM      3  N   UNL     1       4.726   3.633  17.542  0.00  0.00    +0.000 N 
ATOM      4  N   UNL     1       4.497   3.960  16.258  0.00  0.00    +0.000 NA
ATOM      5  N   UNL     1       5.365   4.913  15.926  0.00  0.00    +0.000 NA
ENDROOT
BRANCH   1   7
ATOM      6  O   UNL     1       7.866   6.485  16.115  0.00  0.00    +0.000 OA
ATOM      7  C   UNL     1       7.188   6.192  17.099  0.00  0.00    +0.000 C 
ATOM      8  N   UNL     1       7.381   6.788  18.331  0.00  0.00    +0.000 N 
ATOM      9  H   UNL     1       6.766   6.531  19.097  0.00  0.00    +0.000 HD
BRANCH   8  10
ATOM     10  C   UNL     1       8.444   7.763  18.484  0.00  0.00    +0.000 C 
BRANCH  10  11
ATOM     11  C   UNL     1       8.088   9.171  18.009  0.00  0.00    +0.000 C 
BRANCH  11  12
ATOM     12  C   UNL     1       9.041  10.206  18.569  0.00  0.00    +0.000 A 
ATOM     13  C   UNL     1       9.175  10.361  19.956  0.00  0.00    +0.000 A 
ATOM     14  C   UNL     1      10.025  11.334  20.486  0.00  0.00    +0.000 A 
ATOM     15  C   UNL     1      10.751  12.166  19.636  0.00  0.00    +0.000 A 
ATOM     16  C   UNL     1      10.627  12.024  18.256  0.00  0.00    +0.000 A 
ATOM     17  C   UNL     1       9.776  11.050  17.723  0.00  0.00    +0.000 A 
ENDBRANCH  11  12
ENDBRANCH  10  11
ENDBRANCH   8  10
ENDBRANCH   1   7
BRANCH   3  18
ATOM     18  C   UNL     1       3.899   2.658  18.230  0.00  0.00    +0.000 C 
BRANCH  18  19
ATOM     19  C   UNL     1       4.047   2.783  19.748  0.00  0.00    +0.000 C 
BRANCH  19  20
ATOM     20  N   UNL     1       2.780   3.112  20.417  0.00  0.00    +0.000 NA
ATOM     21  H   UNL     1       2.939   3.762  21.188  0.00  0.00    +0.000 HD
BRANCH  20  22
ATOM     22  C   UNL     1       1.855   3.738  19.462  0.00  0.00    +0.000 C 
BRANCH  22  23
ATOM     23  C   UNL     1       1.951   5.238  19.489  0.00  0.00    +0.000 A 
ATOM     24  C   UNL     1       1.650   5.973  20.639  0.00  0.00    +0.000 A 
ATOM     25  C   UNL     1       1.726   7.363  20.613  0.00  0.00    +0.000 A 
ATOM     26  C   UNL     1       2.101   7.977  19.430  0.00  0.00    +0.000 A 
ATOM     27  N   UNL     1       2.394   7.305  18.296  0.00  0.00    +0.000 NA
ATOM     28  C   UNL     1       2.309   5.957  18.352  0.00  0.00    +0.000 A 
ENDBRANCH  22  23
ENDBRANCH  20  22
ENDBRANCH  19  20
ENDBRANCH  18  19
ENDBRANCH   3  18
TORSDOF 9
ENDMDL
MODEL 7
REMARK VINA RESULT:      -7.2      1.563      2.197
REMARK  Name = 
REMARK  9 active torsions:
REMARK  status: ('A' for Active; 'I' for Inactive)
REMARK    1  A    between atoms: C_2  and  C_12
REMARK    2  A    between atoms: N_3  and  C_4
REMARK    3  A    between atoms: C_4  and  C_5
REMARK    4  A    between atoms: C_5  and  C_6
REMARK    5  A    between atoms: N_14  and  C_15
REMARK    6  A    between atoms: C_15  and  C_16
REMARK    7  A    between atoms: C_16  and  N_17
REMARK    8  A    between atoms: N_17  and  C_18
REMARK    9  A    between atoms: C_18  and  C_19
REMARK                            x       y       z     vdW  Elec       q    Type
REMARK                         _______ _______ _______ _____ _____    ______ ____
ROOT
ATOM      1  C   UNL     1       5.912   5.095  17.292  0.00  0.00    +0.000 A 
ATOM      2  C   UNL     1       5.630   4.394  18.449  0.00  0.00    +0.000 A 
ATOM      3  N   UNL     1       4.558   3.626  18.125  0.00  0.00    +0.000 N 
ATOM      4  N   UNL     1       4.192   3.813  16.844  0.00  0.00    +0.000 NA
ATOM      5  N   UNL     1       5.019   4.714  16.318  0.00  0.00    +0.000 NA
ENDROOT
BRANCH   1   7
ATOM      6  O   UNL     1       7.557   6.238  16.077  0.00  0.00    +0.000 OA
ATOM      7  C   UNL     1       6.957   6.094  17.141  0.00  0.00    +0.000 C 
ATOM      8  N   UNL     1       7.243   6.856  18.258  0.00  0.00    +0.000 N 
ATOM      9  H   UNL     1       6.689   6.716  19.097  0.00  0.00    +0.000 HD
BRANCH   8  10
ATOM     10  C   UNL     1       8.314   7.833  18.189  0.00  0.00    +0.000 C 
BRANCH  10  11
ATOM     11  C   UNL     1       7.879   9.220  17.720  0.00  0.00    +0.000 C 
BRANCH  11  12
ATOM     12  C   UNL     1       8.703  10.312  18.370  0.00  0.00    +0.000 A 
ATOM     13  C   UNL     1       8.914  11.526  17.701  0.00  0.00    +0.000 A 
ATOM     14  C   UNL     1       9.699  12.529  18.274  0.00  0.00    +0.000 A 
ATOM     15  C   UNL     1      10.286  12.329  19.521  0.00  0.00    +0.000 A 
ATOM     16  C   UNL     1      10.086  11.127  20.197  0.00  0.00    +0.000 A 
ATOM     17  C   UNL     1       9.300  10.122  19.625  0.00  0.00    +0.000 A 
ENDBRANCH  11  12
ENDBRANCH  10  11
ENDBRANCH   8  10
ENDBRANCH   1   7
BRANCH   3  18
ATOM     18  C   UNL     1       3.811   2.741  19.000  0.00  0.00    +0.000 C 
BRANCH  18  19
ATOM     19  C   UNL     1       2.558   3.433  19.544  0.00  0.00    +0.000 C 
BRANCH  19  20
ATOM     20  N   UNL     1       2.361   4.776  18.978  0.00  0.00    +0.000 NA
ATOM     21  H   UNL     1       1.518   4.802  18.402  0.00  0.00    +0.000 HD
BRANCH  20  22
ATOM     22  C   UNL     1       2.218   5.761  20.058  0.00  0.00    +0.000 C 
BRANCH  22  23
ATOM     23  C   UNL     1       1.986   7.147  19.526  0.00  0.00    +0.000 A 
ATOM     24  C   UNL     1       1.509   8.177  20.342  0.00  0.00    +0.000 A 
ATOM     25  C   UNL     1       1.282   9.440  19.803  0.00  0.00    +0.000 A 
ATOM     26  C   UNL     1       1.538   9.633  18.456  0.00  0.00    +0.000 A 
ATOM     27  N   UNL     1       1.992   8.665  17.632  0.00  0.00    +0.000 NA
ATOM     28  C   UNL     1       2.202   7.448  18.184  0.00  0.00    +0.000 A 
ENDBRANCH  22  23
ENDBRANCH  20  22
ENDBRANCH  19  20
ENDBRANCH  18  19
ENDBRANCH   3  18
TORSDOF 9
ENDMDL
MODEL 8
REMARK VINA RESULT:      -7.2      4.899      8.666
REMARK  Name = 
REMARK  9 active torsions:
REMARK  status: ('A' for Active; 'I' for Inactive)
REMARK    1  A    between atoms: C_2  and  C_12
REMARK    2  A    between atoms: N_3  and  C_4
REMARK    3  A    between atoms: C_4  and  C_5
REMARK    4  A    between atoms: C_5  and  C_6
REMARK    5  A    between atoms: N_14  and  C_15
REMARK    6  A    between atoms: C_15  and  C_16
REMARK    7  A    between atoms: C_16  and  N_17
REMARK    8  A    between atoms: N_17  and  C_18
REMARK    9  A    between atoms: C_18  and  C_19
REMARK                            x       y       z     vdW  Elec       q    Type
REMARK                         _______ _______ _______ _____ _____    ______ ____
ROOT
ATOM      1  C   UNL     1       2.094   8.088  18.897  0.00  0.00    +0.000 A 
ATOM      2  C   UNL     1       2.939   7.872  17.827  0.00  0.00    +0.000 A 
ATOM      3  N   UNL     1       3.615   6.740  18.153  0.00  0.00    +0.000 N 
ATOM      4  N   UNL     1       3.215   6.260  19.344  0.00  0.00    +0.000 NA
ATOM      5  N   UNL     1       2.277   7.079  19.813  0.00  0.00    +0.000 NA
ENDROOT
BRANCH   1   7
ATOM      6  O   UNL     1       1.116   9.844  20.101  0.00  0.00    +0.000 OA
ATOM      7  C   UNL     1       1.188   9.215  19.046  0.00  0.00    +0.000 C 
ATOM      8  N   UNL     1       0.409   9.526  17.948  0.00  0.00    +0.000 N 
ATOM      9  H   UNL     1       0.539   8.993  17.093  0.00  0.00    +0.000 HD
BRANCH   8  10
ATOM     10  C   UNL     1      -0.556  10.604  18.051  0.00  0.00    +0.000 C 
BRANCH  10  11
ATOM     11  C   UNL     1      -1.891  10.330  17.362  0.00  0.00    +0.000 C 
BRANCH  11  12
ATOM     12  C   UNL     1      -3.036  11.027  18.067  0.00  0.00    +0.000 A 
ATOM     13  C   UNL     1      -4.352  10.850  17.617  0.00  0.00    +0.000 A 
ATOM     14  C   UNL     1      -5.413  11.513  18.237  0.00  0.00    +0.000 A 
ATOM     15  C   UNL     1      -5.172  12.365  19.313  0.00  0.00    +0.000 A 
ATOM     16  C   UNL     1      -3.869  12.552  19.770  0.00  0.00    +0.000 A 
ATOM     17  C   UNL     1      -2.805  11.888  19.151  0.00  0.00    +0.000 A 
ENDBRANCH  11  12
ENDBRANCH  10  11
ENDBRANCH   8  10
ENDBRANCH   1   7
BRANCH   3  18
ATOM     18  C   UNL     1       4.682   6.103  17.403  0.00  0.00    +0.000 C 
BRANCH  18  19
ATOM     19  C   UNL     1       4.289   4.684  16.985  0.00  0.00    +0.000 C 
BRANCH  19  20
ATOM     20  N   UNL     1       4.773   3.661  17.923  0.00  0.00    +0.000 NA
ATOM     21  H   UNL     1       4.926   4.065  18.847  0.00  0.00    +0.000 HD
BRANCH  20  22
ATOM     22  C   UNL     1       3.784   2.582  18.043  0.00  0.00    +0.000 C 
BRANCH  22  23
ATOM     23  C   UNL     1       2.946   2.725  19.283  0.00  0.00    +0.000 A 
ATOM     24  C   UNL     1       1.606   3.117  19.223  0.00  0.00    +0.000 A 
ATOM     25  C   UNL     1       0.873   3.264  20.398  0.00  0.00    +0.000 A 
ATOM     26  C   UNL     1       1.509   3.013  21.602  0.00  0.00    +0.000 A 
ATOM     27  N   UNL     1       2.802   2.638  21.705  0.00  0.00    +0.000 NA
ATOM     28  C   UNL     1       3.488   2.506  20.547  0.00  0.00    +0.000 A 
ENDBRANCH  22  23
ENDBRANCH  20  22
ENDBRANCH  19  20
ENDBRANCH  18  19
ENDBRANCH   3  18
TORSDOF 9
ENDMDL
MODEL 9
REMARK VINA RESULT:      -7.1      4.973      6.866
REMARK  Name = 
REMARK  9 active torsions:
REMARK  status: ('A' for Active; 'I' for Inactive)
REMARK    1  A    between atoms: C_2  and  C_12
REMARK    2  A    between atoms: N_3  and  C_4
REMARK    3  A    between atoms: C_4  and  C_5
REMARK    4  A    between atoms: C_5  and  C_6
REMARK    5  A    between atoms: N_14  and  C_15
REMARK    6  A    between atoms: C_15  and  C_16
REMARK    7  A    between atoms: C_16  and  N_17
REMARK    8  A    between atoms: N_17  and  C_18
REMARK    9  A    between atoms: C_18  and  C_19
REMARK                            x       y       z     vdW  Elec       q    Type
REMARK                         _______ _______ _______ _____ _____    ______ ____
ROOT
ATOM      1  C   UNL     1       3.752   3.717  17.557  0.00  0.00    +0.000 A 
ATOM      2  C   UNL     1       3.681   3.140  18.810  0.00  0.00    +0.000 A 
ATOM      3  N   UNL     1       2.392   2.726  18.918  0.00  0.00    +0.000 N 
ATOM      4  N   UNL     1       1.694   3.006  17.803  0.00  0.00    +0.000 NA
ATOM      5  N   UNL     1       2.520   3.615  16.955  0.00  0.00    +0.000 NA
ENDROOT
BRANCH   1   7
ATOM      6  O   UNL     1       5.203   5.528  17.238  0.00  0.00    +0.000 OA
ATOM      7  C   UNL     1       4.925   4.357  16.985  0.00  0.00    +0.000 C 
ATOM      8  N   UNL     1       5.696   3.583  16.138  0.00  0.00    +0.000 N 
ATOM      9  H   UNL     1       5.436   2.611  15.997  0.00  0.00    +0.000 HD
BRANCH   8  10
ATOM     10  C   UNL     1       6.849   4.179  15.492  0.00  0.00    +0.000 C 
BRANCH  10  11
ATOM     11  C   UNL     1       6.540   4.901  14.182  0.00  0.00    +0.000 C 
BRANCH  11  12
ATOM     12  C   UNL     1       6.165   3.928  13.084  0.00  0.00    +0.000 A 
ATOM     13  C   UNL     1       7.157   3.164  12.453  0.00  0.00    +0.000 A 
ATOM     14  C   UNL     1       6.831   2.287  11.417  0.00  0.00    +0.000 A 
ATOM     15  C   UNL     1       5.509   2.165  10.995  0.00  0.00    +0.000 A 
ATOM     16  C   UNL     1       4.512   2.919  11.612  0.00  0.00    +0.000 A 
ATOM     17  C   UNL     1       4.838   3.797  12.650  0.00  0.00    +0.000 A 
ENDBRANCH  11  12
ENDBRANCH  10  11
ENDBRANCH   8  10
ENDBRANCH   1   7
BRANCH   3  18
ATOM     18  C   UNL     1       1.757   2.110  20.069  0.00  0.00    +0.000 C 
BRANCH  18  19
ATOM     19  C   UNL     1       1.416   3.156  21.134  0.00  0.00    +0.000 C 
BRANCH  19  20
ATOM     20  N   UNL     1       1.116   4.475  20.558  0.00  0.00    +0.000 NA
ATOM     21  H   UNL     1       0.238   4.838  20.932  0.00  0.00    +0.000 HD
BRANCH  20  22
ATOM     22  C   UNL     1       2.190   5.422  20.885  0.00  0.00    +0.000 C 
BRANCH  22  23
ATOM     23  C   UNL     1       1.987   6.753  20.217  0.00  0.00    +0.000 A 
ATOM     24  C   UNL     1       1.316   7.800  20.854  0.00  0.00    +0.000 A 
ATOM     25  C   UNL     1       1.126   9.008  20.189  0.00  0.00    +0.000 A 
ATOM     26  C   UNL     1       1.615   9.130  18.899  0.00  0.00    +0.000 A 
ATOM     27  N   UNL     1       2.263   8.142  18.246  0.00  0.00    +0.000 NA
ATOM     28  C   UNL     1       2.430   6.980  18.917  0.00  0.00    +0.000 A 
ENDBRANCH  22  23
ENDBRANCH  20  22
ENDBRANCH  19  20
ENDBRANCH  18  19
ENDBRANCH   3  18
TORSDOF 9
ENDMDL
