MODEL 1
REMARK VINA RESULT:      -7.0      0.000      0.000
REMARK  Name = 
REMARK  6 active torsions:
REMARK  status: ('A' for Active; 'I' for Inactive)
REMARK    1  A    between atoms: N_15  and  C_16
REMARK    2  A    between atoms: C_16  and  C_17
REMARK    3  A    between atoms: C_17  and  N_18
REMARK    4  A    between atoms: N_18  and  C_19
REMARK    5  A    between atoms: C_19  and  C_20
REMARK    6  A    between atoms: C_20  and  O_21
REMARK                            x       y       z     vdW  Elec       q    Type
REMARK                         _______ _______ _______ _____ _____    ______ ____
ROOT
ATOM      1  O   UNL     1       4.418   2.153  16.894  0.00  0.00    +0.000 OA
ATOM      2  C   UNL     1       4.073   3.263  17.266  0.00  0.00    +0.000 C 
ATOM      3  C   UNL     1       2.976   3.432  18.696  0.00  0.00    +0.000 A 
ATOM      4  C   UNL     1       2.451   2.376  19.424  0.00  0.00    +0.000 A 
ATOM      5  C   UNL     1       1.630   2.638  20.536  0.00  0.00    +0.000 A 
ATOM      6  C   UNL     1       1.301   3.945  20.962  0.00  0.00    +0.000 A 
ATOM      7  C   UNL     1       1.766   5.097  20.300  0.00  0.00    +0.000 A 
ATOM      8  C   UNL     1       1.448   6.399  20.725  0.00  0.00    +0.000 A 
ATOM      9  C   UNL     1       1.928   7.553  20.062  0.00  0.00    +0.000 A 
ATOM     10  C   UNL     1       2.759   7.499  18.929  0.00  0.00    +0.000 A 
ATOM     11  C   UNL     1       3.142   6.268  18.420  0.00  0.00    +0.000 A 
ATOM     12  C   UNL     1       2.576   4.940  19.194  0.00  0.00    +0.000 A 
ATOM     13  C   UNL     1       4.232   6.034  16.996  0.00  0.00    +0.000 C 
ATOM     14  O   UNL     1       4.684   7.003  16.410  0.00  0.00    +0.000 OA
ATOM     15  N   UNL     1       4.601   4.567  16.556  0.00  0.00    +0.000 N 
ENDROOT
BRANCH  15  16
ATOM     16  C   UNL     1       5.555   4.416  15.462  0.00  0.00    +0.000 C 
BRANCH  16  17
ATOM     17  C   UNL     1       7.012   4.308  15.925  0.00  0.00    +0.000 C 
BRANCH  17  18
ATOM     18  N   UNL     1       7.386   5.406  16.824  0.00  0.00    +0.000 NA
ATOM     19  H   UNL     1       6.579   6.072  16.896  0.00  0.00    +0.000 HD
BRANCH  18  20
ATOM     20  C   UNL     1       7.663   4.856  18.157  0.00  0.00    +0.000 C 
BRANCH  20  21
ATOM     21  C   UNL     1       7.982   5.967  19.155  0.00  0.00    +0.000 C 
BRANCH  21  22
ATOM     22  O   UNL     1       7.949   5.464  20.464  0.00  0.00    +0.000 OA
ATOM     23  H   UNL     1       6.995   5.454  20.742  0.00  0.00    +0.000 HD
ENDBRANCH  21  22
ENDBRANCH  20  21
ENDBRANCH  18  20
ENDBRANCH  17  18
ENDBRANCH  16  17
ENDBRANCH  15  16
TORSDOF 6
ENDMDL
MODEL 2
REMARK VINA RESULT:      -7.0      0.989      1.159
REMARK  Name = 
REMARK  6 active torsions:
REMARK  status: ('A' for Active; 'I' for Inactive)
REMARK    1  A    between atoms: N_15  and  C_16
REMARK    2  A    between atoms: C_16  and  C_17
REMARK    3  A    between atoms: C_17  and  N_18
REMARK    4  A    between atoms: N_18  and  C_19
REMARK    5  A    between atoms: C_19  and  C_20
REMARK    6  A    between atoms: C_20  and  O_21
REMARK                            x       y       z     vdW  Elec       q    Type
REMARK                         _______ _______ _______ _____ _____    ______ ____
ROOT
ATOM      1  O   UNL     1       4.970   3.172  15.957  0.00  0.00    +0.000 OA
ATOM      2  C   UNL     1       4.417   3.980  16.685  0.00  0.00    +0.000 C 
ATOM      3  C   UNL     1       3.195   3.412  17.894  0.00  0.00    +0.000 A 
ATOM      4  C   UNL     1       2.797   2.095  18.062  0.00  0.00    +0.000 A 
ATOM      5  C   UNL     1       1.857   1.775  19.058  0.00  0.00    +0.000 A 
ATOM      6  C   UNL     1       1.281   2.740  19.917  0.00  0.00    +0.000 A 
ATOM      7  C   UNL     1       1.601   4.109  19.839  0.00  0.00    +0.000 A 
ATOM      8  C   UNL     1       1.038   5.071  20.696  0.00  0.00    +0.000 A 
ATOM      9  C   UNL     1       1.371   6.444  20.619  0.00  0.00    +0.000 A 
ATOM     10  C   UNL     1       2.288   6.962  19.687  0.00  0.00    +0.000 A 
ATOM     11  C   UNL     1       2.910   6.106  18.792  0.00  0.00    +0.000 A 
ATOM     12  C   UNL     1       2.512   4.520  18.888  0.00  0.00    +0.000 A 
ATOM     13  C   UNL     1       4.134   6.612  17.561  0.00  0.00    +0.000 C 
ATOM     14  O   UNL     1       4.465   7.783  17.478  0.00  0.00    +0.000 OA
ATOM     15  N   UNL     1       4.776   5.514  16.632  0.00  0.00    +0.000 N 
ENDROOT
BRANCH  15  16
ATOM     16  C   UNL     1       5.827   5.942  15.714  0.00  0.00    +0.000 C 
BRANCH  16  17
ATOM     17  C   UNL     1       7.215   6.014  16.358  0.00  0.00    +0.000 C 
BRANCH  17  18
ATOM     18  N   UNL     1       7.771   4.682  16.618  0.00  0.00    +0.000 NA
ATOM     19  H   UNL     1       8.740   4.637  16.219  0.00  0.00    +0.000 HD
BRANCH  18  20
ATOM     20  C   UNL     1       7.850   4.473  18.070  0.00  0.00    +0.000 C 
BRANCH  20  21
ATOM     21  C   UNL     1       7.740   5.797  18.823  0.00  0.00    +0.000 C 
BRANCH  21  22
ATOM     22  O   UNL     1       7.829   5.574  20.205  0.00  0.00    +0.000 OA
ATOM     23  H   UNL     1       8.489   6.228  20.557  0.00  0.00    +0.000 HD
ENDBRANCH  21  22
ENDBRANCH  20  21
ENDBRANCH  18  20
ENDBRANCH  17  18
ENDBRANCH  16  17
ENDBRANCH  15  16
TORSDOF 6
ENDMDL
MODEL 3
REMARK VINA RESULT:      -6.9      0.439      3.069
REMARK  Name = 
REMARK  6 active torsions:
REMARK  status: ('A' for Active; 'I' for Inactive)
REMARK    1  A    between atoms: N_15  and  C_16
REMARK    2  A    between atoms: C_16  and  C_17
REMARK    3  A    between atoms: C_17  and  N_18
REMARK    4  A    between atoms: N_18  and  C_19
REMARK    5  A    between atoms: C_19  and  C_20
REMARK    6  A    between atoms: C_20  and  O_21
REMARK                            x       y       z     vdW  Elec       q    Type
REMARK                         _______ _______ _______ _____ _____    ______ ____
ROOT
ATOM      1  O   UNL     1       4.586   7.142  16.614  0.00  0.00    +0.000 OA
ATOM      2  C   UNL     1       4.197   6.154  17.215  0.00  0.00    +0.000 C 
ATOM      3  C   UNL     1       3.072   6.341  18.620  0.00  0.00    +0.000 A 
ATOM      4  C   UNL     1       2.608   7.551  19.111  0.00  0.00    +0.000 A 
ATOM      5  C   UNL     1       1.711   7.563  20.195  0.00  0.00    +0.000 A 
ATOM      6  C   UNL     1       1.246   6.387  20.827  0.00  0.00    +0.000 A 
ATOM      7  C   UNL     1       1.650   5.101  20.423  0.00  0.00    +0.000 A 
ATOM      8  C   UNL     1       1.184   3.928  21.043  0.00  0.00    +0.000 A 
ATOM      9  C   UNL     1       1.586   2.637  20.626  0.00  0.00    +0.000 A 
ATOM     10  C   UNL     1       2.479   2.416  19.563  0.00  0.00    +0.000 A 
ATOM     11  C   UNL     1       3.003   3.498  18.874  0.00  0.00    +0.000 A 
ATOM     12  C   UNL     1       2.534   4.987  19.369  0.00  0.00    +0.000 A 
ATOM     13  C   UNL     1       4.132   3.377  17.466  0.00  0.00    +0.000 C 
ATOM     14  O   UNL     1       4.485   2.282  17.062  0.00  0.00    +0.000 OA
ATOM     15  N   UNL     1       4.617   4.703  16.766  0.00  0.00    +0.000 N 
ENDROOT
BRANCH  15  16
ATOM     16  C   UNL     1       5.453   4.566  15.577  0.00  0.00    +0.000 C 
BRANCH  16  17
ATOM     17  C   UNL     1       6.927   4.908  15.818  0.00  0.00    +0.000 C 
BRANCH  17  18
ATOM     18  N   UNL     1       7.405   4.405  17.111  0.00  0.00    +0.000 NA
ATOM     19  H   UNL     1       8.291   3.865  16.955  0.00  0.00    +0.000 HD
BRANCH  18  20
ATOM     20  C   UNL     1       7.697   5.546  17.988  0.00  0.00    +0.000 C 
BRANCH  20  21
ATOM     21  C   UNL     1       6.984   5.404  19.330  0.00  0.00    +0.000 C 
BRANCH  21  22
ATOM     22  O   UNL     1       7.912   5.473  20.379  0.00  0.00    +0.000 OA
ATOM     23  H   UNL     1       8.748   5.849  19.997  0.00  0.00    +0.000 HD
ENDBRANCH  21  22
ENDBRANCH  20  21
ENDBRANCH  18  20
ENDBRANCH  17  18
ENDBRANCH  16  17
ENDBRANCH  15  16
TORSDOF 6
ENDMDL
MODEL 4
REMARK VINA RESULT:      -6.8      0.888      1.146
REMARK  Name = 
REMARK  6 active torsions:
REMARK  status: ('A' for Active; 'I' for Inactive)
REMARK    1  A    between atoms: N_15  and  C_16
REMARK    2  A    between atoms: C_16  and  C_17
REMARK    3  A    between atoms: C_17  and  N_18
REMARK    4  A    between atoms: N_18  and  C_19
REMARK    5  A    between atoms: C_19  and  C_20
REMARK    6  A    between atoms: C_20  and  O_21
REMARK                            x       y       z     vdW  Elec       q    Type
REMARK                         _______ _______ _______ _____ _____    ______ ____
ROOT
ATOM      1  O   UNL     1       4.595   2.473  17.782  0.00  0.00    +0.000 OA
ATOM      2  C   UNL     1       4.280   3.651  17.730  0.00  0.00    +0.000 C 
ATOM      3  C   UNL     1       3.156   4.337  18.972  0.00  0.00    +0.000 A 
ATOM      4  C   UNL     1       2.578   3.615  20.004  0.00  0.00    +0.000 A 
ATOM      5  C   UNL     1       1.741   4.270  20.926  0.00  0.00    +0.000 A 
ATOM      6  C   UNL     1       1.447   5.652  20.857  0.00  0.00    +0.000 A 
ATOM      7  C   UNL     1       1.968   6.487  19.851  0.00  0.00    +0.000 A 
ATOM      8  C   UNL     1       1.686   7.863  19.783  0.00  0.00    +0.000 A 
ATOM      9  C   UNL     1       2.221   8.700  18.776  0.00  0.00    +0.000 A 
ATOM     10  C   UNL     1       3.076   8.231  17.762  0.00  0.00    +0.000 A 
ATOM     11  C   UNL     1       3.428   6.892  17.729  0.00  0.00    +0.000 A 
ATOM     12  C   UNL     1       2.798   5.933  18.898  0.00  0.00    +0.000 A 
ATOM     13  C   UNL     1       4.542   6.147  16.515  0.00  0.00    +0.000 C 
ATOM     14  O   UNL     1       5.042   6.838  15.643  0.00  0.00    +0.000 OA
ATOM     15  N   UNL     1       4.870   4.610  16.628  0.00  0.00    +0.000 N 
ENDROOT
BRANCH  15  16
ATOM     16  C   UNL     1       5.844   4.062  15.689  0.00  0.00    +0.000 C 
BRANCH  16  17
ATOM     17  C   UNL     1       7.299   4.335  16.081  0.00  0.00    +0.000 C 
BRANCH  17  18
ATOM     18  N   UNL     1       7.531   4.130  17.515  0.00  0.00    +0.000 NA
ATOM     19  H   UNL     1       8.400   3.556  17.638  0.00  0.00    +0.000 HD
BRANCH  18  20
ATOM     20  C   UNL     1       7.734   5.436  18.156  0.00  0.00    +0.000 C 
BRANCH  20  21
ATOM     21  C   UNL     1       7.029   5.501  19.509  0.00  0.00    +0.000 C 
BRANCH  21  22
ATOM     22  O   UNL     1       7.970   5.443  20.547  0.00  0.00    +0.000 OA
ATOM     23  H   UNL     1       7.765   6.198  21.160  0.00  0.00    +0.000 HD
ENDBRANCH  21  22
ENDBRANCH  20  21
ENDBRANCH  18  20
ENDBRANCH  17  18
ENDBRANCH  16  17
ENDBRANCH  15  16
TORSDOF 6
ENDMDL
MODEL 5
REMARK VINA RESULT:      -6.8      1.194      3.190
REMARK  Name = 
REMARK  6 active torsions:
REMARK  status: ('A' for Active; 'I' for Inactive)
REMARK    1  A    between atoms: N_15  and  C_16
REMARK    2  A    between atoms: C_16  and  C_17
REMARK    3  A    between atoms: C_17  and  N_18
REMARK    4  A    between atoms: N_18  and  C_19
REMARK    5  A    between atoms: C_19  and  C_20
REMARK    6  A    between atoms: C_20  and  O_21
REMARK                            x       y       z     vdW  Elec       q    Type
REMARK                         _______ _______ _______ _____ _____    ______ ____
ROOT
ATOM      1  O   UNL     1       4.442   7.729  17.751  0.00  0.00    +0.000 OA
ATOM      2  C   UNL     1       4.166   6.540  17.784  0.00  0.00    +0.000 C 
ATOM      3  C   UNL     1       2.909   5.941  18.940  0.00  0.00    +0.000 A 
ATOM      4  C   UNL     1       2.219   6.734  19.844  0.00  0.00    +0.000 A 
ATOM      5  C   UNL     1       1.242   6.153  20.673  0.00  0.00    +0.000 A 
ATOM      6  C   UNL     1       0.918   4.777  20.639  0.00  0.00    +0.000 A 
ATOM      7  C   UNL     1       1.555   3.871  19.770  0.00  0.00    +0.000 A 
ATOM      8  C   UNL     1       1.230   2.503  19.726  0.00  0.00    +0.000 A 
ATOM      9  C   UNL     1       1.866   1.600  18.843  0.00  0.00    +0.000 A 
ATOM     10  C   UNL     1       2.870   1.987  17.939  0.00  0.00    +0.000 A 
ATOM     11  C   UNL     1       3.272   3.313  17.889  0.00  0.00    +0.000 A 
ATOM     12  C   UNL     1       2.531   4.348  18.920  0.00  0.00    +0.000 A 
ATOM     13  C   UNL     1       4.522   3.971  16.760  0.00  0.00    +0.000 C 
ATOM     14  O   UNL     1       5.078   3.229  15.969  0.00  0.00    +0.000 OA
ATOM     15  N   UNL     1       4.848   5.512  16.804  0.00  0.00    +0.000 N 
ENDROOT
BRANCH  15  16
ATOM     16  C   UNL     1       5.793   6.025  15.818  0.00  0.00    +0.000 C 
BRANCH  16  17
ATOM     17  C   UNL     1       7.235   6.105  16.330  0.00  0.00    +0.000 C 
BRANCH  17  18
ATOM     18  N   UNL     1       7.520   7.391  16.975  0.00  0.00    +0.000 NA
ATOM     19  H   UNL     1       6.634   7.951  17.016  0.00  0.00    +0.000 HD
BRANCH  18  20
ATOM     20  C   UNL     1       7.985   7.144  18.346  0.00  0.00    +0.000 C 
BRANCH  20  21
ATOM     21  C   UNL     1       7.732   5.696  18.760  0.00  0.00    +0.000 C 
BRANCH  21  22
ATOM     22  O   UNL     1       7.810   5.573  20.155  0.00  0.00    +0.000 OA
ATOM     23  H   UNL     1       8.658   5.094  20.353  0.00  0.00    +0.000 HD
ENDBRANCH  21  22
ENDBRANCH  20  21
ENDBRANCH  18  20
ENDBRANCH  17  18
ENDBRANCH  16  17
ENDBRANCH  15  16
TORSDOF 6
ENDMDL
MODEL 6
REMARK VINA RESULT:      -6.7      1.600      2.408
REMARK  Name = 
REMARK  6 active torsions:
REMARK  status: ('A' for Active; 'I' for Inactive)
REMARK    1  A    between atoms: N_15  and  C_16
REMARK    2  A    between atoms: C_16  and  C_17
REMARK    3  A    between atoms: C_17  and  N_18
REMARK    4  A    between atoms: N_18  and  C_19
REMARK    5  A    between atoms: C_19  and  C_20
REMARK    6  A    between atoms: C_20  and  O_21
REMARK                            x       y       z     vdW  Elec       q    Type
REMARK                         _______ _______ _______ _____ _____    ______ ____
ROOT
ATOM      1  O   UNL     1       4.249   1.810  17.315  0.00  0.00    +0.000 OA
ATOM      2  C   UNL     1       3.959   2.969  17.567  0.00  0.00    +0.000 C 
ATOM      3  C   UNL     1       2.826   3.336  18.930  0.00  0.00    +0.000 A 
ATOM      4  C   UNL     1       2.214   2.385  19.732  0.00  0.00    +0.000 A 
ATOM      5  C   UNL     1       1.372   2.798  20.780  0.00  0.00    +0.000 A 
ATOM      6  C   UNL     1       1.107   4.157  21.069  0.00  0.00    +0.000 A 
ATOM      7  C   UNL     1       1.663   5.212  20.322  0.00  0.00    +0.000 A 
ATOM      8  C   UNL     1       1.410   6.565  20.611  0.00  0.00    +0.000 A 
ATOM      9  C   UNL     1       1.981   7.621  19.862  0.00  0.00    +0.000 A 
ATOM     10  C   UNL     1       2.845   7.412  18.773  0.00  0.00    +0.000 A 
ATOM     11  C   UNL     1       3.171   6.118  18.398  0.00  0.00    +0.000 A 
ATOM     12  C   UNL     1       2.500   4.905  19.269  0.00  0.00    +0.000 A 
ATOM     13  C   UNL     1       4.293   5.688  17.046  0.00  0.00    +0.000 C 
ATOM     14  O   UNL     1       4.823   6.570  16.391  0.00  0.00    +0.000 OA
ATOM     15  N   UNL     1       4.589   4.167  16.760  0.00  0.00    +0.000 N 
ENDROOT
BRANCH  15  16
ATOM     16  C   UNL     1       5.569   3.858  15.724  0.00  0.00    +0.000 C 
BRANCH  16  17
ATOM     17  C   UNL     1       6.997   4.285  16.080  0.00  0.00    +0.000 C 
BRANCH  17  18
ATOM     18  N   UNL     1       7.559   5.207  15.087  0.00  0.00    +0.000 NA
ATOM     19  H   UNL     1       8.606   5.150  15.129  0.00  0.00    +0.000 HD
BRANCH  18  20
ATOM     20  C   UNL     1       7.119   4.793  13.748  0.00  0.00    +0.000 C 
BRANCH  20  21
ATOM     21  C   UNL     1       7.921   5.502  12.660  0.00  0.00    +0.000 C 
BRANCH  21  22
ATOM     22  O   UNL     1       9.096   6.044  13.203  0.00  0.00    +0.000 OA
ATOM     23  H   UNL     1       9.687   6.270  12.437  0.00  0.00    +0.000 HD
ENDBRANCH  21  22
ENDBRANCH  20  21
ENDBRANCH  18  20
ENDBRANCH  17  18
ENDBRANCH  16  17
ENDBRANCH  15  16
TORSDOF 6
ENDMDL
MODEL 7
REMARK VINA RESULT:      -6.4      1.938      3.207
REMARK  Name = 
REMARK  6 active torsions:
REMARK  status: ('A' for Active; 'I' for Inactive)
REMARK    1  A    between atoms: N_15  and  C_16
REMARK    2  A    between atoms: C_16  and  C_17
REMARK    3  A    between atoms: C_17  and  N_18
REMARK    4  A    between atoms: N_18  and  C_19
REMARK    5  A    between atoms: C_19  and  C_20
REMARK    6  A    between atoms: C_20  and  O_21
REMARK                            x       y       z     vdW  Elec       q    Type
REMARK                         _______ _______ _______ _____ _____    ______ ____
ROOT
ATOM      1  O   UNL     1       5.638   3.207  19.042  0.00  0.00    +0.000 OA
ATOM      2  C   UNL     1       5.151   4.265  18.677  0.00  0.00    +0.000 C 
ATOM      3  C   UNL     1       3.681   4.913  19.511  0.00  0.00    +0.000 A 
ATOM      4  C   UNL     1       3.016   4.284  20.552  0.00  0.00    +0.000 A 
ATOM      5  C   UNL     1       1.898   4.904  21.138  0.00  0.00    +0.000 A 
ATOM      6  C   UNL     1       1.401   6.159  20.716  0.00  0.00    +0.000 A 
ATOM      7  C   UNL     1       1.985   6.890  19.665  0.00  0.00    +0.000 A 
ATOM      8  C   UNL     1       1.500   8.143  19.248  0.00  0.00    +0.000 A 
ATOM      9  C   UNL     1       2.099   8.878  18.198  0.00  0.00    +0.000 A 
ATOM     10  C   UNL     1       3.223   8.424  17.486  0.00  0.00    +0.000 A 
ATOM     11  C   UNL     1       3.792   7.203  17.811  0.00  0.00    +0.000 A 
ATOM     12  C   UNL     1       3.087   6.360  19.025  0.00  0.00    +0.000 A 
ATOM     13  C   UNL     1       5.256   6.501  17.015  0.00  0.00    +0.000 C 
ATOM     14  O   UNL     1       5.815   7.114  16.120  0.00  0.00    +0.000 OA
ATOM     15  N   UNL     1       5.802   5.112  17.519  0.00  0.00    +0.000 N 
ENDROOT
BRANCH  15  16
ATOM     16  C   UNL     1       7.038   4.620  16.918  0.00  0.00    +0.000 C 
BRANCH  16  17
ATOM     17  C   UNL     1       6.886   4.203  15.451  0.00  0.00    +0.000 C 
BRANCH  17  18
ATOM     18  N   UNL     1       7.471   5.189  14.536  0.00  0.00    +0.000 NA
ATOM     19  H   UNL     1       8.507   5.226  14.698  0.00  0.00    +0.000 HD
BRANCH  18  20
ATOM     20  C   UNL     1       7.225   4.761  13.153  0.00  0.00    +0.000 C 
BRANCH  20  21
ATOM     21  C   UNL     1       6.140   3.689  13.094  0.00  0.00    +0.000 C 
BRANCH  21  22
ATOM     22  O   UNL     1       6.500   2.688  12.179  0.00  0.00    +0.000 OA
ATOM     23  H   UNL     1       6.082   1.845  12.499  0.00  0.00    +0.000 HD
ENDBRANCH  21  22
ENDBRANCH  20  21
ENDBRANCH  18  20
ENDBRANCH  17  18
ENDBRANCH  16  17
ENDBRANCH  15  16
TORSDOF 6
ENDMDL
MODEL 8
REMARK VINA RESULT:      -6.4      1.907      2.195
REMARK  Name = 
REMARK  6 active torsions:
REMARK  status: ('A' for Active; 'I' for Inactive)
REMARK    1  A    between atoms: N_15  and  C_16
REMARK    2  A    between atoms: C_16  and  C_17
REMARK    3  A    between atoms: C_17  and  N_18
REMARK    4  A    between atoms: N_18  and  C_19
REMARK    5  A    between atoms: C_19  and  C_20
REMARK    6  A    between atoms: C_20  and  O_21
REMARK                            x       y       z     vdW  Elec       q    Type
REMARK                         _______ _______ _______ _____ _____    ______ ____
ROOT
ATOM      1  O   UNL     1       5.538   3.281  16.030  0.00  0.00    +0.000 OA
ATOM      2  C   UNL     1       4.854   3.972  16.769  0.00  0.00    +0.000 C 
ATOM      3  C   UNL     1       3.638   3.191  17.858  0.00  0.00    +0.000 A 
ATOM      4  C   UNL     1       3.385   1.830  17.920  0.00  0.00    +0.000 A 
ATOM      5  C   UNL     1       2.432   1.341  18.832  0.00  0.00    +0.000 A 
ATOM      6  C   UNL     1       1.700   2.177  19.707  0.00  0.00    +0.000 A 
ATOM      7  C   UNL     1       1.864   3.574  19.732  0.00  0.00    +0.000 A 
ATOM      8  C   UNL     1       1.144   4.409  20.607  0.00  0.00    +0.000 A 
ATOM      9  C   UNL     1       1.321   5.812  20.635  0.00  0.00    +0.000 A 
ATOM     10  C   UNL     1       2.225   6.490  19.798  0.00  0.00    +0.000 A 
ATOM     11  C   UNL     1       2.992   5.771  18.896  0.00  0.00    +0.000 A 
ATOM     12  C   UNL     1       2.775   4.148  18.870  0.00  0.00    +0.000 A 
ATOM     13  C   UNL     1       4.220   6.491  17.780  0.00  0.00    +0.000 C 
ATOM     14  O   UNL     1       4.418   7.695  17.789  0.00  0.00    +0.000 OA
ATOM     15  N   UNL     1       5.037   5.535  16.831  0.00  0.00    +0.000 N 
ENDROOT
BRANCH  15  16
ATOM     16  C   UNL     1       6.083   6.139  16.012  0.00  0.00    +0.000 C 
BRANCH  16  17
ATOM     17  C   UNL     1       7.346   6.508  16.797  0.00  0.00    +0.000 C 
BRANCH  17  18
ATOM     18  N   UNL     1       7.432   7.949  17.055  0.00  0.00    +0.000 NA
ATOM     19  H   UNL     1       6.466   8.319  17.228  0.00  0.00    +0.000 HD
BRANCH  18  20
ATOM     20  C   UNL     1       8.243   8.170  18.259  0.00  0.00    +0.000 C 
BRANCH  20  21
ATOM     21  C   UNL     1       8.611   9.644  18.413  0.00  0.00    +0.000 C 
BRANCH  21  22
ATOM     22  O   UNL     1       9.426   9.823  19.540  0.00  0.00    +0.000 OA
ATOM     23  H   UNL     1      10.178  10.408  19.258  0.00  0.00    +0.000 HD
ENDBRANCH  21  22
ENDBRANCH  20  21
ENDBRANCH  18  20
ENDBRANCH  17  18
ENDBRANCH  16  17
ENDBRANCH  15  16
TORSDOF 6
ENDMDL
MODEL 9
REMARK VINA RESULT:      -6.3      3.905      6.970
REMARK  Name = 
REMARK  6 active torsions:
REMARK  status: ('A' for Active; 'I' for Inactive)
REMARK    1  A    between atoms: N_15  and  C_16
REMARK    2  A    between atoms: C_16  and  C_17
REMARK    3  A    between atoms: C_17  and  N_18
REMARK    4  A    between atoms: N_18  and  C_19
REMARK    5  A    between atoms: C_19  and  C_20
REMARK    6  A    between atoms: C_20  and  O_21
REMARK                            x       y       z     vdW  Elec       q    Type
REMARK                         _______ _______ _______ _____ _____    ______ ____
ROOT
ATOM      1  O   UNL     1       2.694   9.377  17.429  0.00  0.00    +0.000 OA
ATOM      2  C   UNL     1       2.548   8.416  18.169  0.00  0.00    +0.000 C 
ATOM      3  C   UNL     1       3.409   6.866  17.809  0.00  0.00    +0.000 A 
ATOM      4  C   UNL     1       4.236   6.651  16.718  0.00  0.00    +0.000 A 
ATOM      5  C   UNL     1       4.873   5.406  16.563  0.00  0.00    +0.000 A 
ATOM      6  C   UNL     1       4.715   4.338  17.476  0.00  0.00    +0.000 A 
ATOM      7  C   UNL     1       3.897   4.433  18.617  0.00  0.00    +0.000 A 
ATOM      8  C   UNL     1       3.743   3.377  19.533  0.00  0.00    +0.000 A 
ATOM      9  C   UNL     1       2.927   3.482  20.685  0.00  0.00    +0.000 A 
ATOM     10  C   UNL     1       2.206   4.644  21.011  0.00  0.00    +0.000 A 
ATOM     11  C   UNL     1       2.283   5.753  20.184  0.00  0.00    +0.000 A 
ATOM     12  C   UNL     1       3.226   5.616  18.852  0.00  0.00    +0.000 A 
ATOM     13  C   UNL     1       1.445   7.327  20.486  0.00  0.00    +0.000 C 
ATOM     14  O   UNL     1       0.750   7.465  21.479  0.00  0.00    +0.000 OA
ATOM     15  N   UNL     1       1.657   8.507  19.465  0.00  0.00    +0.000 N 
ENDROOT
BRANCH  15  16
ATOM     16  C   UNL     1       1.041   9.791  19.787  0.00  0.00    +0.000 C 
BRANCH  16  17
ATOM     17  C   UNL     1      -0.377   9.951  19.230  0.00  0.00    +0.000 C 
BRANCH  17  18
ATOM     18  N   UNL     1      -0.372  10.374  17.825  0.00  0.00    +0.000 NA
ATOM     19  H   UNL     1       0.392   9.861  17.322  0.00  0.00    +0.000 HD
BRANCH  18  20
ATOM     20  C   UNL     1      -1.660  10.017  17.216  0.00  0.00    +0.000 C 
BRANCH  20  21
ATOM     21  C   UNL     1      -2.526  11.255  16.995  0.00  0.00    +0.000 C 
BRANCH  21  22
ATOM     22  O   UNL     1      -2.591  11.560  15.627  0.00  0.00    +0.000 OA
ATOM     23  H   UNL     1      -1.748  12.033  15.399  0.00  0.00    +0.000 HD
ENDBRANCH  21  22
ENDBRANCH  20  21
ENDBRANCH  18  20
ENDBRANCH  17  18
ENDBRANCH  16  17
ENDBRANCH  15  16
TORSDOF 6
ENDMDL
