MODEL 1
REMARK VINA RESULT:      -7.3      0.000      0.000
REMARK  Name = 
REMARK  7 active torsions:
REMARK  status: ('A' for Active; 'I' for Inactive)
REMARK    1  A    between atoms: C_1  and  C_2
REMARK    2  A    between atoms: C_2  and  O_3
REMARK    3  A    between atoms: O_3  and  C_4
REMARK    4  A    between atoms: N_7  and  C_8
REMARK    5  A    between atoms: C_16  and  O_17
REMARK    6  A    between atoms: O_17  and  C_18
REMARK    7  A    between atoms: C_18  and  C_19
REMARK                            x       y       z     vdW  Elec       q    Type
REMARK                         _______ _______ _______ _____ _____    ______ ____
ROOT
ATOM      1  C   UNL     1       6.208   5.899  16.038  0.00  0.00    +0.000 A 
ATOM      2  N   UNL     1       5.598   5.013  16.806  0.00  0.00    +0.000 NA
ATOM      3  C   UNL     1       5.425   3.811  16.270  0.00  0.00    +0.000 A 
ATOM      4  N   UNL     1       4.854   2.798  17.036  0.00  0.00    +0.000 N 
ATOM      5  N   UNL     1       5.806   3.489  15.040  0.00  0.00    +0.000 NA
ATOM      6  C   UNL     1       6.330   4.494  14.340  0.00  0.00    +0.000 A 
ATOM      7  N   UNL     1       6.570   5.717  14.780  0.00  0.00    +0.000 NA
ATOM      8  H   UNL     1       5.006   1.881  16.646  0.00  0.00    +0.000 HD
ENDROOT
BRANCH   4   9
ATOM      9  C   UNL     1       3.953   2.906  18.104  0.00  0.00    +0.000 A 
ATOM     10  C   UNL     1       4.368   2.798  19.440  0.00  0.00    +0.000 A 
ATOM     11  C   UNL     1       3.446   2.802  20.488  0.00  0.00    +0.000 A 
ATOM     12  C   UNL     1       2.088   2.894  20.205  0.00  0.00    +0.000 A 
ATOM     13 CL   UNL     1       0.944   2.839  21.488  0.00  0.00    +0.000 Cl
ATOM     14  C   UNL     1       1.651   3.009  18.888  0.00  0.00    +0.000 A 
ATOM     15  C   UNL     1       2.583   3.023  17.843  0.00  0.00    +0.000 A 
ENDBRANCH   4   9
BRANCH   1  16
ATOM     16  O   UNL     1       6.434   7.120  16.635  0.00  0.00    +0.000 OA
BRANCH  16  18
ATOM     17  C   UNL     1       8.059   8.400  17.824  0.00  0.00    +0.000 C 
ATOM     18  C   UNL     1       7.411   7.035  17.672  0.00  0.00    +0.000 C 
ENDBRANCH  16  18
ENDBRANCH   1  16
BRANCH   6  19
ATOM     19  O   UNL     1       6.603   4.316  13.000  0.00  0.00    +0.000 OA
BRANCH  19  20
ATOM     20  C   UNL     1       6.080   3.095  12.485  0.00  0.00    +0.000 C 
ATOM     21  C   UNL     1       4.782   3.409  11.765  0.00  0.00    +0.000 C 
ENDBRANCH  19  20
ENDBRANCH   6  19
TORSDOF 5
ENDMDL
MODEL 2
REMARK VINA RESULT:      -7.2      3.167      3.529
REMARK  Name = 
REMARK  7 active torsions:
REMARK  status: ('A' for Active; 'I' for Inactive)
REMARK    1  A    between atoms: C_1  and  C_2
REMARK    2  A    between atoms: C_2  and  O_3
REMARK    3  A    between atoms: O_3  and  C_4
REMARK    4  A    between atoms: N_7  and  C_8
REMARK    5  A    between atoms: C_16  and  O_17
REMARK    6  A    between atoms: O_17  and  C_18
REMARK    7  A    between atoms: C_18  and  C_19
REMARK                            x       y       z     vdW  Elec       q    Type
REMARK                         _______ _______ _______ _____ _____    ______ ____
ROOT
ATOM      1  C   UNL     1       7.005   6.734  17.260  0.00  0.00    +0.000 A 
ATOM      2  N   UNL     1       5.772   6.683  17.729  0.00  0.00    +0.000 NA
ATOM      3  C   UNL     1       4.920   5.943  17.028  0.00  0.00    +0.000 A 
ATOM      4  N   UNL     1       3.618   5.778  17.490  0.00  0.00    +0.000 N 
ATOM      5  N   UNL     1       5.246   5.300  15.913  0.00  0.00    +0.000 NA
ATOM      6  C   UNL     1       6.496   5.502  15.500  0.00  0.00    +0.000 A 
ATOM      7  N   UNL     1       7.430   6.195  16.130  0.00  0.00    +0.000 NA
ATOM      8  H   UNL     1       3.142   5.007  17.049  0.00  0.00    +0.000 HD
ENDROOT
BRANCH   4   9
ATOM      9  C   UNL     1       2.853   6.640  18.288  0.00  0.00    +0.000 A 
ATOM     10  C   UNL     1       2.470   7.916  17.847  0.00  0.00    +0.000 A 
ATOM     11  C   UNL     1       1.800   8.803  18.692  0.00  0.00    +0.000 A 
ATOM     12  C   UNL     1       1.523   8.426  20.000  0.00  0.00    +0.000 A 
ATOM     13 CL   UNL     1       0.750   9.537  21.063  0.00  0.00    +0.000 Cl
ATOM     14  C   UNL     1       1.885   7.163  20.459  0.00  0.00    +0.000 A 
ATOM     15  C   UNL     1       2.541   6.271  19.601  0.00  0.00    +0.000 A 
ENDBRANCH   4   9
BRANCH   1  16
ATOM     16  O   UNL     1       7.887   7.456  18.035  0.00  0.00    +0.000 OA
BRANCH  16  18
ATOM     17  C   UNL     1       8.791   9.571  18.670  0.00  0.00    +0.000 C 
ATOM     18  C   UNL     1       7.900   8.839  17.682  0.00  0.00    +0.000 C 
ENDBRANCH  16  18
ENDBRANCH   1  16
BRANCH   6  19
ATOM     19  O   UNL     1       6.889   5.021  14.269  0.00  0.00    +0.000 OA
BRANCH  19  20
ATOM     20  C   UNL     1       6.242   3.801  13.918  0.00  0.00    +0.000 C 
ATOM     21  C   UNL     1       6.370   3.619  12.417  0.00  0.00    +0.000 C 
ENDBRANCH  19  20
ENDBRANCH   6  19
TORSDOF 5
ENDMDL
MODEL 3
REMARK VINA RESULT:      -7.0      0.263      1.106
REMARK  Name = 
REMARK  7 active torsions:
REMARK  status: ('A' for Active; 'I' for Inactive)
REMARK    1  A    between atoms: C_1  and  C_2
REMARK    2  A    between atoms: C_2  and  O_3
REMARK    3  A    between atoms: O_3  and  C_4
REMARK    4  A    between atoms: N_7  and  C_8
REMARK    5  A    between atoms: C_16  and  O_17
REMARK    6  A    between atoms: O_17  and  C_18
REMARK    7  A    between atoms: C_18  and  C_19
REMARK                            x       y       z     vdW  Elec       q    Type
REMARK                         _______ _______ _______ _____ _____    ______ ____
ROOT
ATOM      1  C   UNL     1       6.110   5.859  15.918  0.00  0.00    +0.000 A 
ATOM      2  N   UNL     1       5.506   4.943  16.654  0.00  0.00    +0.000 NA
ATOM      3  C   UNL     1       5.430   3.732  16.115  0.00  0.00    +0.000 A 
ATOM      4  N   UNL     1       4.872   2.691  16.852  0.00  0.00    +0.000 N 
ATOM      5  N   UNL     1       5.898   3.430  14.910  0.00  0.00    +0.000 NA
ATOM      6  C   UNL     1       6.406   4.460  14.237  0.00  0.00    +0.000 A 
ATOM      7  N   UNL     1       6.553   5.696  14.684  0.00  0.00    +0.000 NA
ATOM      8  H   UNL     1       5.095   1.783  16.476  0.00  0.00    +0.000 HD
ENDROOT
BRANCH   4   9
ATOM      9  C   UNL     1       3.906   2.751  17.866  0.00  0.00    +0.000 A 
ATOM     10  C   UNL     1       2.565   3.063  17.599  0.00  0.00    +0.000 A 
ATOM     11  C   UNL     1       1.639   3.224  18.631  0.00  0.00    +0.000 A 
ATOM     12  C   UNL     1       2.054   3.092  19.951  0.00  0.00    +0.000 A 
ATOM     13 CL   UNL     1       0.930   3.347  21.228  0.00  0.00    +0.000 Cl
ATOM     14  C   UNL     1       3.378   2.775  20.242  0.00  0.00    +0.000 A 
ATOM     15  C   UNL     1       4.298   2.598  19.201  0.00  0.00    +0.000 A 
ENDBRANCH   4   9
BRANCH   1  16
ATOM     16  O   UNL     1       6.234   7.092  16.522  0.00  0.00    +0.000 OA
BRANCH  16  18
ATOM     17  C   UNL     1       7.958   8.236  17.710  0.00  0.00    +0.000 C 
ATOM     18  C   UNL     1       7.035   7.031  17.701  0.00  0.00    +0.000 C 
ENDBRANCH  16  18
ENDBRANCH   1  16
BRANCH   6  19
ATOM     19  O   UNL     1       6.764   4.295  12.916  0.00  0.00    +0.000 OA
BRANCH  19  20
ATOM     20  C   UNL     1       6.187   3.134  12.325  0.00  0.00    +0.000 C 
ATOM     21  C   UNL     1       4.795   3.497  11.844  0.00  0.00    +0.000 C 
ENDBRANCH  19  20
ENDBRANCH   6  19
TORSDOF 5
ENDMDL
MODEL 4
REMARK VINA RESULT:      -6.9      1.285      1.664
REMARK  Name = 
REMARK  7 active torsions:
REMARK  status: ('A' for Active; 'I' for Inactive)
REMARK    1  A    between atoms: C_1  and  C_2
REMARK    2  A    between atoms: C_2  and  O_3
REMARK    3  A    between atoms: O_3  and  C_4
REMARK    4  A    between atoms: N_7  and  C_8
REMARK    5  A    between atoms: C_16  and  O_17
REMARK    6  A    between atoms: O_17  and  C_18
REMARK    7  A    between atoms: C_18  and  C_19
REMARK                            x       y       z     vdW  Elec       q    Type
REMARK                         _______ _______ _______ _____ _____    ______ ____
ROOT
ATOM      1  C   UNL     1       7.086   5.543  15.604  0.00  0.00    +0.000 A 
ATOM      2  N   UNL     1       6.164   5.013  16.389  0.00  0.00    +0.000 NA
ATOM      3  C   UNL     1       5.497   3.984  15.878  0.00  0.00    +0.000 A 
ATOM      4  N   UNL     1       4.556   3.323  16.664  0.00  0.00    +0.000 N 
ATOM      5  N   UNL     1       5.699   3.507  14.657  0.00  0.00    +0.000 NA
ATOM      6  C   UNL     1       6.594   4.181  13.937  0.00  0.00    +0.000 A 
ATOM      7  N   UNL     1       7.330   5.199  14.352  0.00  0.00    +0.000 NA
ATOM      8  H   UNL     1       4.305   2.420  16.294  0.00  0.00    +0.000 HD
ENDROOT
BRANCH   4   9
ATOM      9  C   UNL     1       3.792   3.824  17.726  0.00  0.00    +0.000 A 
ATOM     10  C   UNL     1       2.401   3.984  17.631  0.00  0.00    +0.000 A 
ATOM     11  C   UNL     1       1.668   4.582  18.658  0.00  0.00    +0.000 A 
ATOM     12  C   UNL     1       2.328   5.046  19.790  0.00  0.00    +0.000 A 
ATOM     13 CL   UNL     1       1.439   5.836  21.032  0.00  0.00    +0.000 Cl
ATOM     14  C   UNL     1       3.706   4.891  19.912  0.00  0.00    +0.000 A 
ATOM     15  C   UNL     1       4.433   4.275  18.886  0.00  0.00    +0.000 A 
ENDBRANCH   4   9
BRANCH   1  16
ATOM     16  O   UNL     1       7.809   6.567  16.175  0.00  0.00    +0.000 OA
BRANCH  16  18
ATOM     17  C   UNL     1       7.872   8.266  17.849  0.00  0.00    +0.000 C 
ATOM     18  C   UNL     1       7.329   6.897  17.478  0.00  0.00    +0.000 C 
ENDBRANCH  16  18
ENDBRANCH   1  16
BRANCH   6  19
ATOM     19  O   UNL     1       6.758   3.876  12.602  0.00  0.00    +0.000 OA
BRANCH  19  20
ATOM     20  C   UNL     1       5.931   2.800  12.173  0.00  0.00    +0.000 C 
ATOM     21  C   UNL     1       4.658   3.389  11.594  0.00  0.00    +0.000 C 
ENDBRANCH  19  20
ENDBRANCH   6  19
TORSDOF 5
ENDMDL
MODEL 5
REMARK VINA RESULT:      -6.9      3.424      3.688
REMARK  Name = 
REMARK  7 active torsions:
REMARK  status: ('A' for Active; 'I' for Inactive)
REMARK    1  A    between atoms: C_1  and  C_2
REMARK    2  A    between atoms: C_2  and  O_3
REMARK    3  A    between atoms: O_3  and  C_4
REMARK    4  A    between atoms: N_7  and  C_8
REMARK    5  A    between atoms: C_16  and  O_17
REMARK    6  A    between atoms: O_17  and  C_18
REMARK    7  A    between atoms: C_18  and  C_19
REMARK                            x       y       z     vdW  Elec       q    Type
REMARK                         _______ _______ _______ _____ _____    ______ ____
ROOT
ATOM      1  C   UNL     1       6.774   6.621  16.607  0.00  0.00    +0.000 A 
ATOM      2  N   UNL     1       5.660   6.763  17.303  0.00  0.00    +0.000 NA
ATOM      3  C   UNL     1       4.780   5.775  17.186  0.00  0.00    +0.000 A 
ATOM      4  N   UNL     1       3.610   5.810  17.939  0.00  0.00    +0.000 N 
ATOM      5  N   UNL     1       4.963   4.711  16.414  0.00  0.00    +0.000 NA
ATOM      6  C   UNL     1       6.087   4.729  15.700  0.00  0.00    +0.000 A 
ATOM      7  N   UNL     1       7.039   5.645  15.757  0.00  0.00    +0.000 NA
ATOM      8  H   UNL     1       3.147   4.916  17.984  0.00  0.00    +0.000 HD
ENDROOT
BRANCH   4   9
ATOM      9  C   UNL     1       2.915   6.924  18.432  0.00  0.00    +0.000 A 
ATOM     10  C   UNL     1       2.410   6.966  19.740  0.00  0.00    +0.000 A 
ATOM     11  C   UNL     1       1.630   8.036  20.181  0.00  0.00    +0.000 A 
ATOM     12  C   UNL     1       1.330   9.072  19.305  0.00  0.00    +0.000 A 
ATOM     13 CL   UNL     1       0.320  10.365  19.825  0.00  0.00    +0.000 Cl
ATOM     14  C   UNL     1       1.825   9.058  18.004  0.00  0.00    +0.000 A 
ATOM     15  C   UNL     1       2.622   7.990  17.573  0.00  0.00    +0.000 A 
ENDBRANCH   4   9
BRANCH   1  16
ATOM     16  O   UNL     1       7.699   7.626  16.791  0.00  0.00    +0.000 OA
BRANCH  16  18
ATOM     17  C   UNL     1       8.510   9.226  18.363  0.00  0.00    +0.000 C 
ATOM     18  C   UNL     1       8.034   7.798  18.167  0.00  0.00    +0.000 C 
ENDBRANCH  16  18
ENDBRANCH   1  16
BRANCH   6  19
ATOM     19  O   UNL     1       6.297   3.760  14.742  0.00  0.00    +0.000 OA
BRANCH  19  20
ATOM     20  C   UNL     1       5.553   3.989  13.549  0.00  0.00    +0.000 C 
ATOM     21  C   UNL     1       6.372   3.473  12.380  0.00  0.00    +0.000 C 
ENDBRANCH  19  20
ENDBRANCH   6  19
TORSDOF 5
ENDMDL
MODEL 6
REMARK VINA RESULT:      -6.8      2.271      2.315
REMARK  Name = 
REMARK  7 active torsions:
REMARK  status: ('A' for Active; 'I' for Inactive)
REMARK    1  A    between atoms: C_1  and  C_2
REMARK    2  A    between atoms: C_2  and  O_3
REMARK    3  A    between atoms: O_3  and  C_4
REMARK    4  A    between atoms: N_7  and  C_8
REMARK    5  A    between atoms: C_16  and  O_17
REMARK    6  A    between atoms: O_17  and  C_18
REMARK    7  A    between atoms: C_18  and  C_19
REMARK                            x       y       z     vdW  Elec       q    Type
REMARK                         _______ _______ _______ _____ _____    ______ ____
ROOT
ATOM      1  C   UNL     1       7.003   5.883  16.181  0.00  0.00    +0.000 A 
ATOM      2  N   UNL     1       6.008   5.687  17.027  0.00  0.00    +0.000 NA
ATOM      3  C   UNL     1       5.208   4.664  16.747  0.00  0.00    +0.000 A 
ATOM      4  N   UNL     1       4.175   4.345  17.624  0.00  0.00    +0.000 N 
ATOM      5  N   UNL     1       5.355   3.882  15.685  0.00  0.00    +0.000 NA
ATOM      6  C   UNL     1       6.344   4.237  14.865  0.00  0.00    +0.000 A 
ATOM      7  N   UNL     1       7.211   5.216  15.059  0.00  0.00    +0.000 NA
ATOM      8  H   UNL     1       3.804   3.421  17.470  0.00  0.00    +0.000 HD
ENDROOT
BRANCH   4   9
ATOM      9  C   UNL     1       3.477   5.185  18.502  0.00  0.00    +0.000 A 
ATOM     10  C   UNL     1       2.873   4.701  19.672  0.00  0.00    +0.000 A 
ATOM     11  C   UNL     1       2.091   5.529  20.480  0.00  0.00    +0.000 A 
ATOM     12  C   UNL     1       1.889   6.854  20.111  0.00  0.00    +0.000 A 
ATOM     13 CL   UNL     1       0.880   7.862  21.071  0.00  0.00    +0.000 Cl
ATOM     14  C   UNL     1       2.484   7.360  18.958  0.00  0.00    +0.000 A 
ATOM     15  C   UNL     1       3.281   6.529  18.162  0.00  0.00    +0.000 A 
ENDBRANCH   4   9
BRANCH   1  16
ATOM     16  O   UNL     1       7.857   6.909  16.523  0.00  0.00    +0.000 OA
BRANCH  16  18
ATOM     17  C   UNL     1       8.270   8.802  17.915  0.00  0.00    +0.000 C 
ATOM     18  C   UNL     1       7.512   7.494  17.778  0.00  0.00    +0.000 C 
ENDBRANCH  16  18
ENDBRANCH   1  16
BRANCH   6  19
ATOM     19  O   UNL     1       6.479   3.599  13.651  0.00  0.00    +0.000 OA
BRANCH  19  20
ATOM     20  C   UNL     1       5.396   3.861  12.763  0.00  0.00    +0.000 C 
ATOM     21  C   UNL     1       5.321   2.719  11.767  0.00  0.00    +0.000 C 
ENDBRANCH  19  20
ENDBRANCH   6  19
TORSDOF 5
ENDMDL
MODEL 7
REMARK VINA RESULT:      -6.7      4.176      5.504
REMARK  Name = 
REMARK  7 active torsions:
REMARK  status: ('A' for Active; 'I' for Inactive)
REMARK    1  A    between atoms: C_1  and  C_2
REMARK    2  A    between atoms: C_2  and  O_3
REMARK    3  A    between atoms: O_3  and  C_4
REMARK    4  A    between atoms: N_7  and  C_8
REMARK    5  A    between atoms: C_16  and  O_17
REMARK    6  A    between atoms: O_17  and  C_18
REMARK    7  A    between atoms: C_18  and  C_19
REMARK                            x       y       z     vdW  Elec       q    Type
REMARK                         _______ _______ _______ _____ _____    ______ ____
ROOT
ATOM      1  C   UNL     1       2.829   3.945  17.478  0.00  0.00    +0.000 A 
ATOM      2  N   UNL     1       2.523   5.197  17.770  0.00  0.00    +0.000 NA
ATOM      3  C   UNL     1       3.497   6.083  17.595  0.00  0.00    +0.000 A 
ATOM      4  N   UNL     1       3.239   7.433  17.813  0.00  0.00    +0.000 N 
ATOM      5  N   UNL     1       4.716   5.765  17.176  0.00  0.00    +0.000 NA
ATOM      6  C   UNL     1       4.922   4.462  16.998  0.00  0.00    +0.000 A 
ATOM      7  N   UNL     1       4.021   3.501  17.119  0.00  0.00    +0.000 NA
ATOM      8  H   UNL     1       3.939   8.034  17.408  0.00  0.00    +0.000 HD
ENDROOT
BRANCH   4   9
ATOM      9  C   UNL     1       2.298   8.020  18.670  0.00  0.00    +0.000 A 
ATOM     10  C   UNL     1       1.582   9.172  18.310  0.00  0.00    +0.000 A 
ATOM     11  C   UNL     1       0.727   9.806  19.214  0.00  0.00    +0.000 A 
ATOM     12  C   UNL     1       0.596   9.300  20.502  0.00  0.00    +0.000 A 
ATOM     13 CL   UNL     1      -0.411  10.110  21.638  0.00  0.00    +0.000 Cl
ATOM     14  C   UNL     1       1.289   8.154  20.881  0.00  0.00    +0.000 A 
ATOM     15  C   UNL     1       2.131   7.513  19.964  0.00  0.00    +0.000 A 
ENDBRANCH   4   9
BRANCH   1  16
ATOM     16  O   UNL     1       1.788   3.052  17.607  0.00  0.00    +0.000 OA
BRANCH  16  18
ATOM     17  C   UNL     1       0.899   2.868  19.813  0.00  0.00    +0.000 C 
ATOM     18  C   UNL     1       1.882   2.292  18.810  0.00  0.00    +0.000 C 
ENDBRANCH  16  18
ENDBRANCH   1  16
BRANCH   6  19
ATOM     19  O   UNL     1       6.195   4.007  16.728  0.00  0.00    +0.000 OA
BRANCH  19  20
ATOM     20  C   UNL     1       6.801   4.677  15.627  0.00  0.00    +0.000 C 
ATOM     21  C   UNL     1       6.253   4.070  14.349  0.00  0.00    +0.000 C 
ENDBRANCH  19  20
ENDBRANCH   6  19
TORSDOF 5
ENDMDL
MODEL 8
REMARK VINA RESULT:      -6.7      2.675      2.898
REMARK  Name = 
REMARK  7 active torsions:
REMARK  status: ('A' for Active; 'I' for Inactive)
REMARK    1  A    between atoms: C_1  and  C_2
REMARK    2  A    between atoms: C_2  and  O_3
REMARK    3  A    between atoms: O_3  and  C_4
REMARK    4  A    between atoms: N_7  and  C_8
REMARK    5  A    between atoms: C_16  and  O_17
REMARK    6  A    between atoms: O_17  and  C_18
REMARK    7  A    between atoms: C_18  and  C_19
REMARK                            x       y       z     vdW  Elec       q    Type
REMARK                         _______ _______ _______ _____ _____    ______ ____
ROOT
ATOM      1  C   UNL     1       6.865   4.828  17.328  0.00  0.00    +0.000 A 
ATOM      2  N   UNL     1       5.638   4.986  17.793  0.00  0.00    +0.000 NA
ATOM      3  C   UNL     1       4.663   4.563  16.997  0.00  0.00    +0.000 A 
ATOM      4  N   UNL     1       3.344   4.628  17.439  0.00  0.00    +0.000 N 
ATOM      5  N   UNL     1       4.867   4.032  15.798  0.00  0.00    +0.000 NA
ATOM      6  C   UNL     1       6.141   4.008  15.410  0.00  0.00    +0.000 A 
ATOM      7  N   UNL     1       7.188   4.377  16.128  0.00  0.00    +0.000 NA
ATOM      8  H   UNL     1       2.721   4.055  16.893  0.00  0.00    +0.000 HD
ENDROOT
BRANCH   4   9
ATOM      9  C   UNL     1       2.769   5.515  18.360  0.00  0.00    +0.000 A 
ATOM     10  C   UNL     1       2.715   6.897  18.127  0.00  0.00    +0.000 A 
ATOM     11  C   UNL     1       2.236   7.778  19.098  0.00  0.00    +0.000 A 
ATOM     12  C   UNL     1       1.822   7.281  20.329  0.00  0.00    +0.000 A 
ATOM     13 CL   UNL     1       1.285   8.367  21.551  0.00  0.00    +0.000 Cl
ATOM     14  C   UNL     1       1.858   5.912  20.582  0.00  0.00    +0.000 A 
ATOM     15  C   UNL     1       2.323   5.033  19.596  0.00  0.00    +0.000 A 
ENDBRANCH   4   9
BRANCH   1  16
ATOM     16  O   UNL     1       7.863   5.215  18.195  0.00  0.00    +0.000 OA
BRANCH  16  18
ATOM     17  C   UNL     1       7.811   7.547  17.693  0.00  0.00    +0.000 C 
ATOM     18  C   UNL     1       7.606   6.496  18.769  0.00  0.00    +0.000 C 
ENDBRANCH  16  18
ENDBRANCH   1  16
BRANCH   6  19
ATOM     19  O   UNL     1       6.449   3.635  14.119  0.00  0.00    +0.000 OA
BRANCH  19  20
ATOM     20  C   UNL     1       7.087   4.671  13.379  0.00  0.00    +0.000 C 
ATOM     21  C   UNL     1       7.177   4.226  11.932  0.00  0.00    +0.000 C 
ENDBRANCH  19  20
ENDBRANCH   6  19
TORSDOF 5
ENDMDL
MODEL 9
REMARK VINA RESULT:      -6.6      2.642      2.762
REMARK  Name = 
REMARK  7 active torsions:
REMARK  status: ('A' for Active; 'I' for Inactive)
REMARK    1  A    between atoms: C_1  and  C_2
REMARK    2  A    between atoms: C_2  and  O_3
REMARK    3  A    between atoms: O_3  and  C_4
REMARK    4  A    between atoms: N_7  and  C_8
REMARK    5  A    between atoms: C_16  and  O_17
REMARK    6  A    between atoms: O_17  and  C_18
REMARK    7  A    between atoms: C_18  and  C_19
REMARK                            x       y       z     vdW  Elec       q    Type
REMARK                         _______ _______ _______ _____ _____    ______ ____
ROOT
ATOM      1  C   UNL     1       7.084   4.708  16.935  0.00  0.00    +0.000 A 
ATOM      2  N   UNL     1       5.880   4.880  17.452  0.00  0.00    +0.000 NA
ATOM      3  C   UNL     1       4.863   4.624  16.637  0.00  0.00    +0.000 A 
ATOM      4  N   UNL     1       3.561   4.713  17.122  0.00  0.00    +0.000 N 
ATOM      5  N   UNL     1       5.007   4.239  15.375  0.00  0.00    +0.000 NA
ATOM      6  C   UNL     1       6.268   4.185  14.951  0.00  0.00    +0.000 A 
ATOM      7  N   UNL     1       7.352   4.395  15.679  0.00  0.00    +0.000 NA
ATOM      8  H   UNL     1       2.891   4.254  16.526  0.00  0.00    +0.000 HD
ENDROOT
BRANCH   4   9
ATOM      9  C   UNL     1       3.064   5.509  18.164  0.00  0.00    +0.000 A 
ATOM     10  C   UNL     1       2.573   4.952  19.354  0.00  0.00    +0.000 A 
ATOM     11  C   UNL     1       1.984   5.750  20.338  0.00  0.00    +0.000 A 
ATOM     12  C   UNL     1       1.863   7.118  20.128  0.00  0.00    +0.000 A 
ATOM     13 CL   UNL     1       1.086   8.097  21.310  0.00  0.00    +0.000 Cl
ATOM     14  C   UNL     1       2.350   7.695  18.958  0.00  0.00    +0.000 A 
ATOM     15  C   UNL     1       2.955   6.892  17.984  0.00  0.00    +0.000 A 
ENDBRANCH   4   9
BRANCH   1  16
ATOM     16  O   UNL     1       8.124   4.918  17.814  0.00  0.00    +0.000 OA
BRANCH  16  18
ATOM     17  C   UNL     1       8.208   5.496  20.127  0.00  0.00    +0.000 C 
ATOM     18  C   UNL     1       7.841   5.972  18.733  0.00  0.00    +0.000 C 
ENDBRANCH  16  18
ENDBRANCH   1  16
BRANCH   6  19
ATOM     19  O   UNL     1       6.524   3.962  13.614  0.00  0.00    +0.000 OA
BRANCH  19  20
ATOM     20  C   UNL     1       5.344   3.706  12.859  0.00  0.00    +0.000 C 
ATOM     21  C   UNL     1       5.674   2.652  11.819  0.00  0.00    +0.000 C 
ENDBRANCH  19  20
ENDBRANCH   6  19
TORSDOF 5
ENDMDL
