MODEL 1
REMARK VINA RESULT:      -7.7      0.000      0.000
REMARK  Name = 
REMARK  4 active torsions:
REMARK  status: ('A' for Active; 'I' for Inactive)
REMARK    1  A    between atoms: C_2  and  C_4
REMARK    2  A    between atoms: C_8  and  N_9
REMARK    3  A    between atoms: N_9  and  C_10
REMARK    4  A    between atoms: C_10  and  C_11
REMARK                            x       y       z     vdW  Elec       q    Type
REMARK                         _______ _______ _______ _____ _____    ______ ____
ROOT
ATOM      1  C   UNL     1       6.517   5.094  16.020  0.00  0.00    +0.000 A 
ATOM      2  C   UNL     1       7.329   4.768  17.108  0.00  0.00    +0.000 A 
ATOM      3  C   UNL     1       6.913   5.095  18.396  0.00  0.00    +0.000 A 
ATOM      4  C   UNL     1       5.687   5.731  18.596  0.00  0.00    +0.000 A 
ATOM      5  C   UNL     1       4.837   6.033  17.524  0.00  0.00    +0.000 A 
ATOM      6  C   UNL     1       5.283   5.725  16.234  0.00  0.00    +0.000 A 
ENDROOT
BRANCH   1   8
ATOM      7  N   UNL     1       6.347   3.643  14.077  0.00  0.00    +0.000 N 
ATOM      8  C   UNL     1       6.948   4.729  14.653  0.00  0.00    +0.000 C 
ATOM      9  O   UNL     1       7.792   5.379  14.050  0.00  0.00    +0.000 OA
ATOM     10  H   UNL     1       6.597   3.442  13.117  0.00  0.00    +0.000 HD
ATOM     11  H   UNL     1       5.482   3.255  14.429  0.00  0.00    +0.000 HD
ENDBRANCH   1   8
BRANCH   5  12
ATOM     12  N   UNL     1       3.654   6.726  17.762  0.00  0.00    +0.000 N 
ATOM     13  H   UNL     1       3.668   7.690  17.429  0.00  0.00    +0.000 HD
BRANCH  12  14
ATOM     14  C   UNL     1       2.971   6.592  19.039  0.00  0.00    +0.000 C 
BRANCH  14  15
ATOM     15  C   UNL     1       2.326   5.232  19.108  0.00  0.00    +0.000 A 
ATOM     16  C   UNL     1       1.818   4.630  17.946  0.00  0.00    +0.000 A 
ATOM     17  C   UNL     1       1.165   3.400  18.011  0.00  0.00    +0.000 A 
ATOM     18  C   UNL     1       1.023   2.754  19.236  0.00  0.00    +0.000 A 
ATOM     19  C   UNL     1       1.552   3.330  20.390  0.00  0.00    +0.000 A 
ATOM     20 CL   UNL     1       1.379   2.531  21.903  0.00  0.00    +0.000 Cl
ATOM     21  C   UNL     1       2.203   4.560  20.334  0.00  0.00    +0.000 A 
ENDBRANCH  14  15
ENDBRANCH  12  14
ENDBRANCH   5  12
TORSDOF 4
ENDMDL
MODEL 2
REMARK VINA RESULT:      -7.6      1.056      1.068
REMARK  Name = 
REMARK  4 active torsions:
REMARK  status: ('A' for Active; 'I' for Inactive)
REMARK    1  A    between atoms: C_2  and  C_4
REMARK    2  A    between atoms: C_8  and  N_9
REMARK    3  A    between atoms: N_9  and  C_10
REMARK    4  A    between atoms: C_10  and  C_11
REMARK                            x       y       z     vdW  Elec       q    Type
REMARK                         _______ _______ _______ _____ _____    ______ ____
ROOT
ATOM      1  C   UNL     1       6.413   5.095  16.021  0.00  0.00    +0.000 A 
ATOM      2  C   UNL     1       7.411   4.716  16.922  0.00  0.00    +0.000 A 
ATOM      3  C   UNL     1       7.214   4.915  18.286  0.00  0.00    +0.000 A 
ATOM      4  C   UNL     1       6.022   5.475  18.747  0.00  0.00    +0.000 A 
ATOM      5  C   UNL     1       4.991   5.826  17.866  0.00  0.00    +0.000 A 
ATOM      6  C   UNL     1       5.217   5.648  16.496  0.00  0.00    +0.000 A 
ENDROOT
BRANCH   1   8
ATOM      7  N   UNL     1       7.696   5.464  13.989  0.00  0.00    +0.000 N 
ATOM      8  C   UNL     1       6.613   4.865  14.573  0.00  0.00    +0.000 C 
ATOM      9  O   UNL     1       5.857   4.155  13.924  0.00  0.00    +0.000 OA
ATOM     10  H   UNL     1       7.865   5.245  13.015  0.00  0.00    +0.000 HD
ATOM     11  H   UNL     1       8.469   5.827  14.531  0.00  0.00    +0.000 HD
ENDBRANCH   1   8
BRANCH   5  12
ATOM     12  N   UNL     1       3.845   6.442  18.363  0.00  0.00    +0.000 N 
ATOM     13  H   UNL     1       3.885   6.638  19.364  0.00  0.00    +0.000 HD
BRANCH  12  14
ATOM     14  C   UNL     1       2.529   5.992  17.940  0.00  0.00    +0.000 C 
BRANCH  14  15
ATOM     15  C   UNL     1       2.325   4.574  18.407  0.00  0.00    +0.000 A 
ATOM     16  C   UNL     1       2.385   3.511  17.492  0.00  0.00    +0.000 A 
ATOM     17  C   UNL     1       2.135   2.203  17.905  0.00  0.00    +0.000 A 
ATOM     18  C   UNL     1       1.835   1.943  19.240  0.00  0.00    +0.000 A 
ATOM     19  C   UNL     1       1.804   2.989  20.161  0.00  0.00    +0.000 A 
ATOM     20 CL   UNL     1       1.436   2.666  21.810  0.00  0.00    +0.000 Cl
ATOM     21  C   UNL     1       2.049   4.298  19.755  0.00  0.00    +0.000 A 
ENDBRANCH  14  15
ENDBRANCH  12  14
ENDBRANCH   5  12
TORSDOF 4
ENDMDL
MODEL 3
REMARK VINA RESULT:      -7.4      1.032      1.561
REMARK  Name = 
REMARK  4 active torsions:
REMARK  status: ('A' for Active; 'I' for Inactive)
REMARK    1  A    between atoms: C_2  and  C_4
REMARK    2  A    between atoms: C_8  and  N_9
REMARK    3  A    between atoms: N_9  and  C_10
REMARK    4  A    between atoms: C_10  and  C_11
REMARK                            x       y       z     vdW  Elec       q    Type
REMARK                         _______ _______ _______ _____ _____    ______ ____
ROOT
ATOM      1  C   UNL     1       6.657   5.109  15.934  0.00  0.00    +0.000 A 
ATOM      2  C   UNL     1       7.418   4.560  16.969  0.00  0.00    +0.000 A 
ATOM      3  C   UNL     1       7.101   4.866  18.290  0.00  0.00    +0.000 A 
ATOM      4  C   UNL     1       6.021   5.703  18.575  0.00  0.00    +0.000 A 
ATOM      5  C   UNL     1       5.219   6.233  17.556  0.00  0.00    +0.000 A 
ATOM      6  C   UNL     1       5.570   5.941  16.233  0.00  0.00    +0.000 A 
ENDROOT
BRANCH   1   8
ATOM      7  N   UNL     1       6.361   3.674  13.994  0.00  0.00    +0.000 N 
ATOM      8  C   UNL     1       6.981   4.769  14.531  0.00  0.00    +0.000 C 
ATOM      9  O   UNL     1       7.755   5.446  13.868  0.00  0.00    +0.000 OA
ATOM     10  H   UNL     1       6.534   3.489  13.014  0.00  0.00    +0.000 HD
ATOM     11  H   UNL     1       5.538   3.261  14.413  0.00  0.00    +0.000 HD
ENDBRANCH   1   8
BRANCH   5  12
ATOM     12  N   UNL     1       4.193   7.116  17.882  0.00  0.00    +0.000 N 
ATOM     13  H   UNL     1       4.280   7.521  18.815  0.00  0.00    +0.000 HD
BRANCH  12  14
ATOM     14  C   UNL     1       2.815   6.793  17.546  0.00  0.00    +0.000 C 
BRANCH  14  15
ATOM     15  C   UNL     1       2.279   5.821  18.565  0.00  0.00    +0.000 A 
ATOM     16  C   UNL     1       2.320   6.135  19.933  0.00  0.00    +0.000 A 
ATOM     17  C   UNL     1       1.884   5.215  20.886  0.00  0.00    +0.000 A 
ATOM     18  C   UNL     1       1.392   3.976  20.480  0.00  0.00    +0.000 A 
ATOM     19  C   UNL     1       1.319   3.669  19.122  0.00  0.00    +0.000 A 
ATOM     20 CL   UNL     1       0.709   2.142  18.622  0.00  0.00    +0.000 Cl
ATOM     21  C   UNL     1       1.756   4.582  18.164  0.00  0.00    +0.000 A 
ENDBRANCH  14  15
ENDBRANCH  12  14
ENDBRANCH   5  12
TORSDOF 4
ENDMDL
MODEL 4
REMARK VINA RESULT:      -7.4      3.496      5.853
REMARK  Name = 
REMARK  4 active torsions:
REMARK  status: ('A' for Active; 'I' for Inactive)
REMARK    1  A    between atoms: C_2  and  C_4
REMARK    2  A    between atoms: C_8  and  N_9
REMARK    3  A    between atoms: N_9  and  C_10
REMARK    4  A    between atoms: C_10  and  C_11
REMARK                            x       y       z     vdW  Elec       q    Type
REMARK                         _______ _______ _______ _____ _____    ______ ____
ROOT
ATOM      1  C   UNL     1       1.714   3.809  18.968  0.00  0.00    +0.000 A 
ATOM      2  C   UNL     1       1.518   4.220  20.288  0.00  0.00    +0.000 A 
ATOM      3  C   UNL     1       1.841   5.524  20.655  0.00  0.00    +0.000 A 
ATOM      4  C   UNL     1       2.344   6.415  19.706  0.00  0.00    +0.000 A 
ATOM      5  C   UNL     1       2.512   6.037  18.367  0.00  0.00    +0.000 A 
ATOM      6  C   UNL     1       2.211   4.715  18.021  0.00  0.00    +0.000 A 
ENDROOT
BRANCH   1   8
ATOM      7  N   UNL     1       2.379   1.561  18.325  0.00  0.00    +0.000 N 
ATOM      8  C   UNL     1       1.352   2.430  18.572  0.00  0.00    +0.000 C 
ATOM      9  O   UNL     1       0.185   2.071  18.487  0.00  0.00    +0.000 OA
ATOM     10  H   UNL     1       2.123   0.602  18.123  0.00  0.00    +0.000 HD
ATOM     11  H   UNL     1       3.324   1.740  18.636  0.00  0.00    +0.000 HD
ENDBRANCH   1   8
BRANCH   5  12
ATOM     12  N   UNL     1       3.078   6.938  17.468  0.00  0.00    +0.000 N 
ATOM     13  H   UNL     1       2.853   6.740  16.493  0.00  0.00    +0.000 HD
BRANCH  12  14
ATOM     14  C   UNL     1       4.452   7.380  17.641  0.00  0.00    +0.000 C 
BRANCH  14  15
ATOM     15  C   UNL     1       5.378   6.287  17.174  0.00  0.00    +0.000 A 
ATOM     16  C   UNL     1       6.416   5.834  18.005  0.00  0.00    +0.000 A 
ATOM     17  C   UNL     1       7.315   4.868  17.556  0.00  0.00    +0.000 A 
ATOM     18  C   UNL     1       7.179   4.334  16.277  0.00  0.00    +0.000 A 
ATOM     19  C   UNL     1       6.133   4.756  15.457  0.00  0.00    +0.000 A 
ATOM     20 CL   UNL     1       5.964   4.095  13.878  0.00  0.00    +0.000 Cl
ATOM     21  C   UNL     1       5.233   5.724  15.897  0.00  0.00    +0.000 A 
ENDBRANCH  14  15
ENDBRANCH  12  14
ENDBRANCH   5  12
TORSDOF 4
ENDMDL
MODEL 5
REMARK VINA RESULT:      -7.4      2.190      3.126
REMARK  Name = 
REMARK  4 active torsions:
REMARK  status: ('A' for Active; 'I' for Inactive)
REMARK    1  A    between atoms: C_2  and  C_4
REMARK    2  A    between atoms: C_8  and  N_9
REMARK    3  A    between atoms: N_9  and  C_10
REMARK    4  A    between atoms: C_10  and  C_11
REMARK                            x       y       z     vdW  Elec       q    Type
REMARK                         _______ _______ _______ _____ _____    ______ ____
ROOT
ATOM      1  C   UNL     1       7.024   5.584  17.783  0.00  0.00    +0.000 A 
ATOM      2  C   UNL     1       7.162   6.059  16.477  0.00  0.00    +0.000 A 
ATOM      3  C   UNL     1       6.379   5.514  15.463  0.00  0.00    +0.000 A 
ATOM      4  C   UNL     1       5.453   4.512  15.755  0.00  0.00    +0.000 A 
ATOM      5  C   UNL     1       5.268   4.047  17.063  0.00  0.00    +0.000 A 
ATOM      6  C   UNL     1       6.085   4.583  18.066  0.00  0.00    +0.000 A 
ENDROOT
BRANCH   1   8
ATOM      7  N   UNL     1       8.053   5.411  19.979  0.00  0.00    +0.000 N 
ATOM      8  C   UNL     1       7.841   6.176  18.865  0.00  0.00    +0.000 C 
ATOM      9  O   UNL     1       8.328   7.295  18.764  0.00  0.00    +0.000 OA
ATOM     10  H   UNL     1       8.670   5.795  20.684  0.00  0.00    +0.000 HD
ATOM     11  H   UNL     1       7.896   4.412  19.985  0.00  0.00    +0.000 HD
ENDBRANCH   1   8
BRANCH   5  12
ATOM     12  N   UNL     1       4.381   3.001  17.299  0.00  0.00    +0.000 N 
ATOM     13  H   UNL     1       4.668   2.115  16.880  0.00  0.00    +0.000 HD
BRANCH  12  14
ATOM     14  C   UNL     1       2.947   3.220  17.200  0.00  0.00    +0.000 C 
BRANCH  14  15
ATOM     15  C   UNL     1       2.453   3.812  18.495  0.00  0.00    +0.000 A 
ATOM     16  C   UNL     1       2.415   5.205  18.667  0.00  0.00    +0.000 A 
ATOM     17  C   UNL     1       2.019   5.760  19.883  0.00  0.00    +0.000 A 
ATOM     18  C   UNL     1       1.647   4.928  20.937  0.00  0.00    +0.000 A 
ATOM     19  C   UNL     1       1.653   3.544  20.764  0.00  0.00    +0.000 A 
ATOM     20 CL   UNL     1       1.191   2.518  22.064  0.00  0.00    +0.000 Cl
ATOM     21  C   UNL     1       2.050   2.983  19.553  0.00  0.00    +0.000 A 
ENDBRANCH  14  15
ENDBRANCH  12  14
ENDBRANCH   5  12
TORSDOF 4
ENDMDL
MODEL 6
REMARK VINA RESULT:      -7.3      2.393      3.312
REMARK  Name = 
REMARK  4 active torsions:
REMARK  status: ('A' for Active; 'I' for Inactive)
REMARK    1  A    between atoms: C_2  and  C_4
REMARK    2  A    between atoms: C_8  and  N_9
REMARK    3  A    between atoms: N_9  and  C_10
REMARK    4  A    between atoms: C_10  and  C_11
REMARK                            x       y       z     vdW  Elec       q    Type
REMARK                         _______ _______ _______ _____ _____    ______ ____
ROOT
ATOM      1  C   UNL     1       7.015   5.433  17.649  0.00  0.00    +0.000 A 
ATOM      2  C   UNL     1       7.303   5.736  16.317  0.00  0.00    +0.000 A 
ATOM      3  C   UNL     1       6.602   5.093  15.301  0.00  0.00    +0.000 A 
ATOM      4  C   UNL     1       5.609   4.164  15.614  0.00  0.00    +0.000 A 
ATOM      5  C   UNL     1       5.275   3.872  16.943  0.00  0.00    +0.000 A 
ATOM      6  C   UNL     1       6.010   4.504  17.952  0.00  0.00    +0.000 A 
ENDROOT
BRANCH   1   8
ATOM      7  N   UNL     1       7.958   5.436  19.890  0.00  0.00    +0.000 N 
ATOM      8  C   UNL     1       7.746   6.130  18.730  0.00  0.00    +0.000 C 
ATOM      9  O   UNL     1       8.164   7.272  18.591  0.00  0.00    +0.000 OA
ATOM     10  H   UNL     1       8.519   5.895  20.598  0.00  0.00    +0.000 HD
ATOM     11  H   UNL     1       7.866   4.430  19.942  0.00  0.00    +0.000 HD
ENDBRANCH   1   8
BRANCH   5  12
ATOM     12  N   UNL     1       4.324   2.892  17.211  0.00  0.00    +0.000 N 
ATOM     13  H   UNL     1       4.515   1.998  16.756  0.00  0.00    +0.000 HD
BRANCH  12  14
ATOM     14  C   UNL     1       2.908   3.223  17.204  0.00  0.00    +0.000 C 
BRANCH  14  15
ATOM     15  C   UNL     1       2.468   3.509  18.617  0.00  0.00    +0.000 A 
ATOM     16  C   UNL     1       2.225   2.454  19.511  0.00  0.00    +0.000 A 
ATOM     17  C   UNL     1       1.758   2.708  20.800  0.00  0.00    +0.000 A 
ATOM     18  C   UNL     1       1.539   4.021  21.212  0.00  0.00    +0.000 A 
ATOM     19  C   UNL     1       1.806   5.076  20.341  0.00  0.00    +0.000 A 
ATOM     20 CL   UNL     1       1.539   6.696  20.851  0.00  0.00    +0.000 Cl
ATOM     21  C   UNL     1       2.271   4.830  19.050  0.00  0.00    +0.000 A 
ENDBRANCH  14  15
ENDBRANCH  12  14
ENDBRANCH   5  12
TORSDOF 4
ENDMDL
MODEL 7
REMARK VINA RESULT:      -7.3      2.584      3.528
REMARK  Name = 
REMARK  4 active torsions:
REMARK  status: ('A' for Active; 'I' for Inactive)
REMARK    1  A    between atoms: C_2  and  C_4
REMARK    2  A    between atoms: C_8  and  N_9
REMARK    3  A    between atoms: N_9  and  C_10
REMARK    4  A    between atoms: C_10  and  C_11
REMARK                            x       y       z     vdW  Elec       q    Type
REMARK                         _______ _______ _______ _____ _____    ______ ____
ROOT
ATOM      1  C   UNL     1       6.722   5.675  18.164  0.00  0.00    +0.000 A 
ATOM      2  C   UNL     1       6.482   6.597  17.143  0.00  0.00    +0.000 A 
ATOM      3  C   UNL     1       5.547   6.297  16.155  0.00  0.00    +0.000 A 
ATOM      4  C   UNL     1       4.847   5.091  16.196  0.00  0.00    +0.000 A 
ATOM      5  C   UNL     1       5.043   4.168  17.231  0.00  0.00    +0.000 A 
ATOM      6  C   UNL     1       6.007   4.470  18.199  0.00  0.00    +0.000 A 
ENDROOT
BRANCH   1   8
ATOM      7  N   UNL     1       8.482   7.108  19.036  0.00  0.00    +0.000 N 
ATOM      8  C   UNL     1       7.700   6.001  19.225  0.00  0.00    +0.000 C 
ATOM      9  O   UNL     1       7.797   5.325  20.240  0.00  0.00    +0.000 OA
ATOM     10  H   UNL     1       9.098   7.364  19.797  0.00  0.00    +0.000 HD
ATOM     11  H   UNL     1       8.251   7.822  18.357  0.00  0.00    +0.000 HD
ENDBRANCH   1   8
BRANCH   5  12
ATOM     12  N   UNL     1       4.371   2.949  17.197  0.00  0.00    +0.000 N 
ATOM     13  H   UNL     1       4.660   2.341  16.429  0.00  0.00    +0.000 HD
BRANCH  12  14
ATOM     14  C   UNL     1       2.938   2.894  17.436  0.00  0.00    +0.000 C 
BRANCH  14  15
ATOM     15  C   UNL     1       2.663   3.332  18.851  0.00  0.00    +0.000 A 
ATOM     16  C   UNL     1       2.759   2.413  19.909  0.00  0.00    +0.000 A 
ATOM     17  C   UNL     1       2.445   2.796  21.212  0.00  0.00    +0.000 A 
ATOM     18  C   UNL     1       2.043   4.103  21.474  0.00  0.00    +0.000 A 
ATOM     19  C   UNL     1       1.974   5.030  20.435  0.00  0.00    +0.000 A 
ATOM     20 CL   UNL     1       1.480   6.645  20.759  0.00  0.00    +0.000 Cl
ATOM     21  C   UNL     1       2.283   4.655  19.129  0.00  0.00    +0.000 A 
ENDBRANCH  14  15
ENDBRANCH  12  14
ENDBRANCH   5  12
TORSDOF 4
ENDMDL
MODEL 8
REMARK VINA RESULT:      -7.3      3.911      6.587
REMARK  Name = 
REMARK  4 active torsions:
REMARK  status: ('A' for Active; 'I' for Inactive)
REMARK    1  A    between atoms: C_2  and  C_4
REMARK    2  A    between atoms: C_8  and  N_9
REMARK    3  A    between atoms: N_9  and  C_10
REMARK    4  A    between atoms: C_10  and  C_11
REMARK                            x       y       z     vdW  Elec       q    Type
REMARK                         _______ _______ _______ _____ _____    ______ ____
ROOT
ATOM      1  C   UNL     1       2.542   3.260  19.700  0.00  0.00    +0.000 A 
ATOM      2  C   UNL     1       1.508   3.951  19.065  0.00  0.00    +0.000 A 
ATOM      3  C   UNL     1       1.695   4.423  17.769  0.00  0.00    +0.000 A 
ATOM      4  C   UNL     1       2.902   4.193  17.106  0.00  0.00    +0.000 A 
ATOM      5  C   UNL     1       3.938   3.467  17.708  0.00  0.00    +0.000 A 
ATOM      6  C   UNL     1       3.746   3.026  19.022  0.00  0.00    +0.000 A 
ENDROOT
BRANCH   1   8
ATOM      7  N   UNL     1       1.058   2.747  21.557  0.00  0.00    +0.000 N 
ATOM      8  C   UNL     1       2.337   2.740  21.071  0.00  0.00    +0.000 C 
ATOM      9  O   UNL     1       3.265   2.302  21.738  0.00  0.00    +0.000 OA
ATOM     10  H   UNL     1       0.916   2.326  22.467  0.00  0.00    +0.000 HD
ATOM     11  H   UNL     1       0.252   2.848  20.954  0.00  0.00    +0.000 HD
ENDBRANCH   1   8
BRANCH   5  12
ATOM     12  N   UNL     1       5.148   3.317  17.036  0.00  0.00    +0.000 N 
ATOM     13  H   UNL     1       5.862   2.829  17.579  0.00  0.00    +0.000 HD
BRANCH  12  14
ATOM     14  C   UNL     1       5.699   4.419  16.264  0.00  0.00    +0.000 C 
BRANCH  14  15
ATOM     15  C   UNL     1       6.605   5.233  17.152  0.00  0.00    +0.000 A 
ATOM     16  C   UNL     1       7.272   4.627  18.229  0.00  0.00    +0.000 A 
ATOM     17  C   UNL     1       8.061   5.385  19.092  0.00  0.00    +0.000 A 
ATOM     18  C   UNL     1       8.202   6.755  18.882  0.00  0.00    +0.000 A 
ATOM     19  C   UNL     1       7.567   7.359  17.797  0.00  0.00    +0.000 A 
ATOM     20 CL   UNL     1       7.742   9.049  17.536  0.00  0.00    +0.000 Cl
ATOM     21  C   UNL     1       6.774   6.609  16.932  0.00  0.00    +0.000 A 
ENDBRANCH  14  15
ENDBRANCH  12  14
ENDBRANCH   5  12
TORSDOF 4
ENDMDL
MODEL 9
REMARK VINA RESULT:      -7.2      3.897      6.905
REMARK  Name = 
REMARK  4 active torsions:
REMARK  status: ('A' for Active; 'I' for Inactive)
REMARK    1  A    between atoms: C_2  and  C_4
REMARK    2  A    between atoms: C_8  and  N_9
REMARK    3  A    between atoms: N_9  and  C_10
REMARK    4  A    between atoms: C_10  and  C_11
REMARK                            x       y       z     vdW  Elec       q    Type
REMARK                         _______ _______ _______ _____ _____    ______ ____
ROOT
ATOM      1  C   UNL     1       2.147   3.892  18.617  0.00  0.00    +0.000 A 
ATOM      2  C   UNL     1       2.171   5.241  18.980  0.00  0.00    +0.000 A 
ATOM      3  C   UNL     1       3.196   6.058  18.510  0.00  0.00    +0.000 A 
ATOM      4  C   UNL     1       4.182   5.534  17.673  0.00  0.00    +0.000 A 
ATOM      5  C   UNL     1       4.157   4.194  17.264  0.00  0.00    +0.000 A 
ATOM      6  C   UNL     1       3.137   3.379  17.769  0.00  0.00    +0.000 A 
ENDROOT
BRANCH   1   8
ATOM      7  N   UNL     1       0.624   3.213  20.387  0.00  0.00    +0.000 N 
ATOM      8  C   UNL     1       1.047   3.028  19.099  0.00  0.00    +0.000 C 
ATOM      9  O   UNL     1       0.519   2.195  18.374  0.00  0.00    +0.000 OA
ATOM     10  H   UNL     1      -0.174   2.667  20.686  0.00  0.00    +0.000 HD
ATOM     11  H   UNL     1       0.847   4.048  20.913  0.00  0.00    +0.000 HD
ENDBRANCH   1   8
BRANCH   5  12
ATOM     12  N   UNL     1       5.195   3.698  16.481  0.00  0.00    +0.000 N 
ATOM     13  H   UNL     1       5.474   2.746  16.724  0.00  0.00    +0.000 HD
BRANCH  12  14
ATOM     14  C   UNL     1       6.334   4.541  16.154  0.00  0.00    +0.000 C 
BRANCH  14  15
ATOM     15  C   UNL     1       6.616   4.427  14.678  0.00  0.00    +0.000 A 
ATOM     16  C   UNL     1       7.595   5.236  14.079  0.00  0.00    +0.000 A 
ATOM     17  C   UNL     1       7.819   5.181  12.704  0.00  0.00    +0.000 A 
ATOM     18  C   UNL     1       7.074   4.307  11.915  0.00  0.00    +0.000 A 
ATOM     19  C   UNL     1       6.122   3.478  12.506  0.00  0.00    +0.000 A 
ATOM     20 CL   UNL     1       5.205   2.398  11.531  0.00  0.00    +0.000 Cl
ATOM     21  C   UNL     1       5.890   3.530  13.878  0.00  0.00    +0.000 A 
ENDBRANCH  14  15
ENDBRANCH  12  14
ENDBRANCH   5  12
TORSDOF 4
ENDMDL
