MODEL 1
REMARK VINA RESULT:      -6.9      0.000      0.000
REMARK  Name = 
REMARK  5 active torsions:
REMARK  status: ('A' for Active; 'I' for Inactive)
REMARK    1  A    between atoms: C_1  and  C_2
REMARK    2  A    between atoms: C_6  and  C_7
REMARK    3  A    between atoms: C_17  and  O_18
REMARK    4  A    between atoms: C_21  and  C_22
REMARK    5  A    between atoms: C_26  and  C_27
REMARK                            x       y       z     vdW  Elec       q    Type
REMARK                         _______ _______ _______ _____ _____    ______ ____
ROOT
ATOM      1  C   UNL     1       1.956  12.959  19.453  0.00  0.00    +0.000 C 
ATOM      2  C   UNL     1       3.283  13.715  19.585  0.00  0.00    +0.000 C 
ATOM      3  C   UNL     1       3.016  14.779  20.655  0.00  0.00    +0.000 C 
ATOM      4  C   UNL     1       4.247  15.614  20.775  0.00  0.00    +0.000 C 
ATOM      5  C   UNL     1       4.598  16.361  19.438  0.00  0.00    +0.000 C 
ATOM      6  C   UNL     1       5.945  17.116  19.513  0.00  0.00    +0.000 C 
ATOM      7  C   UNL     1       5.919  18.322  20.415  0.00  0.00    +0.000 C 
ATOM      8  C   UNL     1       6.781  15.887  19.871  0.00  0.00    +0.000 C 
ATOM      9  C   UNL     1       6.305  14.977  18.686  0.00  0.00    +0.000 C 
ATOM     10  C   UNL     1       7.537  15.310  17.703  0.00  0.00    +0.000 C 
ATOM     11  C   UNL     1       8.648  14.977  18.707  0.00  0.00    +0.000 C 
ATOM     12  C   UNL     1      10.088  14.457  18.668  0.00  0.00    +0.000 C 
ATOM     13  C   UNL     1      10.605  14.077  17.263  0.00  0.00    +0.000 C 
ATOM     14  C   UNL     1      11.512  12.867  17.368  0.00  0.00    +0.000 C 
ATOM     15  C   UNL     1      10.951  11.837  18.046  0.00  0.00    +0.000 C 
ATOM     16  C   UNL     1       9.706  11.199  17.423  0.00  0.00    +0.000 C 
ATOM     17  C   UNL     1       8.652  10.545  18.319  0.00  0.00    +0.000 C 
ATOM     18  C   UNL     1       9.106  10.123  19.707  0.00  0.00    +0.000 C 
ATOM     19  C   UNL     1      10.402  10.733  20.245  0.00  0.00    +0.000 C 
ATOM     20  C   UNL     1      10.953  12.026  19.568  0.00  0.00    +0.000 C 
ATOM     21  C   UNL     1      12.333  12.291  20.201  0.00  0.00    +0.000 C 
ATOM     22  C   UNL     1      10.024  13.250  19.768  0.00  0.00    +0.000 C 
ATOM     23  C   UNL     1       9.888  13.906  21.151  0.00  0.00    +0.000 C 
ATOM     24  C   UNL     1       8.517  14.608  21.198  0.00  0.00    +0.000 C 
ATOM     25  C   UNL     1       8.297  15.673  20.051  0.00  0.00    +0.000 C 
ATOM     26  C   UNL     1       8.969  16.955  20.494  0.00  0.00    +0.000 C 
ATOM     27  N   UNL     1       4.921  15.388  18.371  0.00  0.00    +0.000 NA
ATOM     28  C   UNL     1       3.861  14.340  18.273  0.00  0.00    +0.000 C 
ENDROOT
BRANCH  17  29
ATOM     29  O   UNL     1       8.112   9.398  17.653  0.00  0.00    +0.000 OA
ATOM     30  H   UNL     1       8.854   8.906  17.257  0.00  0.00    +0.000 HD
ENDBRANCH  17  29
TORSDOF 1
ENDMDL
MODEL 2
REMARK VINA RESULT:      -6.5      8.664     13.487
REMARK  Name = 
REMARK  5 active torsions:
REMARK  status: ('A' for Active; 'I' for Inactive)
REMARK    1  A    between atoms: C_1  and  C_2
REMARK    2  A    between atoms: C_6  and  C_7
REMARK    3  A    between atoms: C_17  and  O_18
REMARK    4  A    between atoms: C_21  and  C_22
REMARK    5  A    between atoms: C_26  and  C_27
REMARK                            x       y       z     vdW  Elec       q    Type
REMARK                         _______ _______ _______ _____ _____    ______ ____
ROOT
ATOM      1  C   UNL     1      -0.937   9.883  17.403  0.00  0.00    +0.000 C 
ATOM      2  C   UNL     1      -1.177  10.938  18.488  0.00  0.00    +0.000 C 
ATOM      3  C   UNL     1      -0.093  11.993  18.245  0.00  0.00    +0.000 C 
ATOM      4  C   UNL     1      -0.211  13.016  19.325  0.00  0.00    +0.000 C 
ATOM      5  C   UNL     1       0.026  12.411  20.754  0.00  0.00    +0.000 C 
ATOM      6  C   UNL     1      -0.232  13.433  21.886  0.00  0.00    +0.000 C 
ATOM      7  C   UNL     1       0.796  14.532  21.961  0.00  0.00    +0.000 C 
ATOM      8  C   UNL     1      -1.676  13.735  21.482  0.00  0.00    +0.000 C 
ATOM      9  C   UNL     1      -2.183  12.252  21.454  0.00  0.00    +0.000 C 
ATOM     10  C   UNL     1      -2.788  12.244  22.947  0.00  0.00    +0.000 C 
ATOM     11  C   UNL     1      -3.656  13.498  22.783  0.00  0.00    +0.000 C 
ATOM     12  C   UNL     1      -4.967  14.048  23.353  0.00  0.00    +0.000 C 
ATOM     13  C   UNL     1      -5.710  13.094  24.314  0.00  0.00    +0.000 C 
ATOM     14  C   UNL     1      -7.206  13.242  24.118  0.00  0.00    +0.000 C 
ATOM     15  C   UNL     1      -7.588  13.128  22.824  0.00  0.00    +0.000 C 
ATOM     16  C   UNL     1      -7.352  11.772  22.153  0.00  0.00    +0.000 C 
ATOM     17  C   UNL     1      -7.115  11.696  20.643  0.00  0.00    +0.000 C 
ATOM     18  C   UNL     1      -7.604  12.875  19.817  0.00  0.00    +0.000 C 
ATOM     19  C   UNL     1      -7.901  14.182  20.555  0.00  0.00    +0.000 C 
ATOM     20  C   UNL     1      -7.309  14.382  21.985  0.00  0.00    +0.000 C 
ATOM     21  C   UNL     1      -7.917  15.691  22.526  0.00  0.00    +0.000 C 
ATOM     22  C   UNL     1      -5.761  14.465  21.987  0.00  0.00    +0.000 C 
ATOM     23  C   UNL     1      -5.047  15.694  21.405  0.00  0.00    +0.000 C 
ATOM     24  C   UNL     1      -3.638  15.249  20.968  0.00  0.00    +0.000 C 
ATOM     25  C   UNL     1      -2.778  14.599  22.124  0.00  0.00    +0.000 C 
ATOM     26  C   UNL     1      -2.172  15.732  22.925  0.00  0.00    +0.000 C 
ATOM     27  N   UNL     1      -1.023  11.418  21.077  0.00  0.00    +0.000 NA
ATOM     28  C   UNL     1      -1.174  10.429  19.967  0.00  0.00    +0.000 C 
ENDROOT
BRANCH  17  29
ATOM     29  O   UNL     1      -7.719  10.504  20.130  0.00  0.00    +0.000 OA
ATOM     30  H   UNL     1      -7.238  10.249  19.321  0.00  0.00    +0.000 HD
ENDBRANCH  17  29
TORSDOF 1
ENDMDL
MODEL 3
REMARK VINA RESULT:      -6.5      7.536     10.577
REMARK  Name = 
REMARK  5 active torsions:
REMARK  status: ('A' for Active; 'I' for Inactive)
REMARK    1  A    between atoms: C_1  and  C_2
REMARK    2  A    between atoms: C_6  and  C_7
REMARK    3  A    between atoms: C_17  and  O_18
REMARK    4  A    between atoms: C_21  and  C_22
REMARK    5  A    between atoms: C_26  and  C_27
REMARK                            x       y       z     vdW  Elec       q    Type
REMARK                         _______ _______ _______ _____ _____    ______ ____
ROOT
ATOM      1  C   UNL     1      -7.916  15.154  19.375  0.00  0.00    +0.000 C 
ATOM      2  C   UNL     1      -6.689  15.064  20.288  0.00  0.00    +0.000 C 
ATOM      3  C   UNL     1      -7.261  15.105  21.709  0.00  0.00    +0.000 C 
ATOM      4  C   UNL     1      -6.109  15.108  22.657  0.00  0.00    +0.000 C 
ATOM      5  C   UNL     1      -5.187  16.367  22.478  0.00  0.00    +0.000 C 
ATOM      6  C   UNL     1      -3.917  16.308  23.359  0.00  0.00    +0.000 C 
ATOM      7  C   UNL     1      -4.190  16.467  24.832  0.00  0.00    +0.000 C 
ATOM      8  C   UNL     1      -3.411  14.980  22.794  0.00  0.00    +0.000 C 
ATOM      9  C   UNL     1      -3.456  15.385  21.280  0.00  0.00    +0.000 C 
ATOM     10  C   UNL     1      -1.910  15.821  21.167  0.00  0.00    +0.000 C 
ATOM     11  C   UNL     1      -1.327  14.522  21.737  0.00  0.00    +0.000 C 
ATOM     12  C   UNL     1      -0.045  13.697  21.588  0.00  0.00    +0.000 C 
ATOM     13  C   UNL     1       0.952  14.229  20.534  0.00  0.00    +0.000 C 
ATOM     14  C   UNL     1       1.627  13.061  19.842  0.00  0.00    +0.000 C 
ATOM     15  C   UNL     1       0.749  12.147  19.361  0.00  0.00    +0.000 C 
ATOM     16  C   UNL     1      -0.197  12.619  18.253  0.00  0.00    +0.000 C 
ATOM     17  C   UNL     1      -1.576  11.973  18.100  0.00  0.00    +0.000 C 
ATOM     18  C   UNL     1      -1.754  10.593  18.712  0.00  0.00    +0.000 C 
ATOM     19  C   UNL     1      -0.729  10.144  19.756  0.00  0.00    +0.000 C 
ATOM     20  C   UNL     1       0.163  11.227  20.439  0.00  0.00    +0.000 C 
ATOM     21  C   UNL     1       1.194  10.463  21.292  0.00  0.00    +0.000 C 
ATOM     22  C   UNL     1      -0.652  12.204  21.324  0.00  0.00    +0.000 C 
ATOM     23  C   UNL     1      -1.268  11.725  22.648  0.00  0.00    +0.000 C 
ATOM     24  C   UNL     1      -2.472  12.634  22.956  0.00  0.00    +0.000 C 
ATOM     25  C   UNL     1      -2.119  14.173  23.028  0.00  0.00    +0.000 C 
ATOM     26  C   UNL     1      -1.564  14.441  24.411  0.00  0.00    +0.000 C 
ATOM     27  N   UNL     1      -4.556  16.362  21.139  0.00  0.00    +0.000 NA
ATOM     28  C   UNL     1      -5.581  16.147  20.073  0.00  0.00    +0.000 C 
ENDROOT
BRANCH  17  29
ATOM     29  O   UNL     1      -1.909  11.895  16.710  0.00  0.00    +0.000 OA
ATOM     30  H   UNL     1      -2.262  12.762  16.437  0.00  0.00    +0.000 HD
ENDBRANCH  17  29
TORSDOF 1
ENDMDL
MODEL 4
REMARK VINA RESULT:      -6.3      4.079      8.264
REMARK  Name = 
REMARK  5 active torsions:
REMARK  status: ('A' for Active; 'I' for Inactive)
REMARK    1  A    between atoms: C_1  and  C_2
REMARK    2  A    between atoms: C_6  and  C_7
REMARK    3  A    between atoms: C_17  and  O_18
REMARK    4  A    between atoms: C_21  and  C_22
REMARK    5  A    between atoms: C_26  and  C_27
REMARK                            x       y       z     vdW  Elec       q    Type
REMARK                         _______ _______ _______ _____ _____    ______ ____
ROOT
ATOM      1  C   UNL     1       7.124  12.563  24.144  0.00  0.00    +0.000 C 
ATOM      2  C   UNL     1       6.232  13.203  23.075  0.00  0.00    +0.000 C 
ATOM      3  C   UNL     1       7.212  13.782  22.051  0.00  0.00    +0.000 C 
ATOM      4  C   UNL     1       6.411  14.501  21.018  0.00  0.00    +0.000 C 
ATOM      5  C   UNL     1       5.590  15.697  21.620  0.00  0.00    +0.000 C 
ATOM      6  C   UNL     1       4.651  16.358  20.584  0.00  0.00    +0.000 C 
ATOM      7  C   UNL     1       5.374  17.131  19.511  0.00  0.00    +0.000 C 
ATOM      8  C   UNL     1       3.884  15.079  20.246  0.00  0.00    +0.000 C 
ATOM      9  C   UNL     1       3.498  14.692  21.716  0.00  0.00    +0.000 C 
ATOM     10  C   UNL     1       2.035  15.365  21.697  0.00  0.00    +0.000 C 
ATOM     11  C   UNL     1       1.545  14.667  20.422  0.00  0.00    +0.000 C 
ATOM     12  C   UNL     1       0.214  14.191  19.834  0.00  0.00    +0.000 C 
ATOM     13  C   UNL     1      -1.008  14.371  20.762  0.00  0.00    +0.000 C 
ATOM     14  C   UNL     1      -1.960  13.206  20.576  0.00  0.00    +0.000 C 
ATOM     15  C   UNL     1      -1.354  11.999  20.689  0.00  0.00    +0.000 C 
ATOM     16  C   UNL     1      -0.756  11.655  22.055  0.00  0.00    +0.000 C 
ATOM     17  C   UNL     1       0.450  10.716  22.147  0.00  0.00    +0.000 C 
ATOM     18  C   UNL     1       0.688   9.794  20.962  0.00  0.00    +0.000 C 
ATOM     19  C   UNL     1      -0.003  10.146  19.642  0.00  0.00    +0.000 C 
ATOM     20  C   UNL     1      -0.547  11.596  19.449  0.00  0.00    +0.000 C 
ATOM     21  C   UNL     1      -1.329  11.590  18.120  0.00  0.00    +0.000 C 
ATOM     22  C   UNL     1       0.581  12.658  19.406  0.00  0.00    +0.000 C 
ATOM     23  C   UNL     1       1.528  12.739  18.200  0.00  0.00    +0.000 C 
ATOM     24  C   UNL     1       2.843  13.380  18.684  0.00  0.00    +0.000 C 
ATOM     25  C   UNL     1       2.662  14.802  19.349  0.00  0.00    +0.000 C 
ATOM     26  C   UNL     1       2.582  15.816  18.227  0.00  0.00    +0.000 C 
ATOM     27  N   UNL     1       4.582  15.201  22.583  0.00  0.00    +0.000 NA
ATOM     28  C   UNL     1       5.208  14.276  23.574  0.00  0.00    +0.000 C 
ENDROOT
BRANCH  17  29
ATOM     29  O   UNL     1       0.333   9.912  23.327  0.00  0.00    +0.000 OA
ATOM     30  H   UNL     1       0.414   8.978  23.061  0.00  0.00    +0.000 HD
ENDBRANCH  17  29
TORSDOF 1
ENDMDL
MODEL 5
REMARK VINA RESULT:      -6.3      3.016      4.049
REMARK  Name = 
REMARK  5 active torsions:
REMARK  status: ('A' for Active; 'I' for Inactive)
REMARK    1  A    between atoms: C_1  and  C_2
REMARK    2  A    between atoms: C_6  and  C_7
REMARK    3  A    between atoms: C_17  and  O_18
REMARK    4  A    between atoms: C_21  and  C_22
REMARK    5  A    between atoms: C_26  and  C_27
REMARK                            x       y       z     vdW  Elec       q    Type
REMARK                         _______ _______ _______ _____ _____    ______ ____
ROOT
ATOM      1  C   UNL     1       6.708  11.133  26.385  0.00  0.00    +0.000 C 
ATOM      2  C   UNL     1       7.054  12.314  25.472  0.00  0.00    +0.000 C 
ATOM      3  C   UNL     1       7.358  13.468  26.433  0.00  0.00    +0.000 C 
ATOM      4  C   UNL     1       7.621  14.683  25.608  0.00  0.00    +0.000 C 
ATOM      5  C   UNL     1       6.379  15.100  24.741  0.00  0.00    +0.000 C 
ATOM      6  C   UNL     1       6.688  16.272  23.781  0.00  0.00    +0.000 C 
ATOM      7  C   UNL     1       6.898  17.592  24.478  0.00  0.00    +0.000 C 
ATOM      8  C   UNL     1       7.842  15.572  23.063  0.00  0.00    +0.000 C 
ATOM      9  C   UNL     1       7.068  14.260  22.688  0.00  0.00    +0.000 C 
ATOM     10  C   UNL     1       6.654  14.719  21.201  0.00  0.00    +0.000 C 
ATOM     11  C   UNL     1       8.068  15.096  20.741  0.00  0.00    +0.000 C 
ATOM     12  C   UNL     1       8.859  15.131  19.430  0.00  0.00    +0.000 C 
ATOM     13  C   UNL     1       8.102  14.583  18.199  0.00  0.00    +0.000 C 
ATOM     14  C   UNL     1       9.074  13.854  17.292  0.00  0.00    +0.000 C 
ATOM     15  C   UNL     1       9.816  12.925  17.943  0.00  0.00    +0.000 C 
ATOM     16  C   UNL     1       9.059  11.741  18.550  0.00  0.00    +0.000 C 
ATOM     17  C   UNL     1       9.613  11.034  19.790  0.00  0.00    +0.000 C 
ATOM     18  C   UNL     1      11.098  11.206  20.065  0.00  0.00    +0.000 C 
ATOM     19  C   UNL     1      11.820  12.360  19.365  0.00  0.00    +0.000 C 
ATOM     20  C   UNL     1      10.964  13.521  18.768  0.00  0.00    +0.000 C 
ATOM     21  C   UNL     1      11.942  14.423  17.990  0.00  0.00    +0.000 C 
ATOM     22  C   UNL     1      10.223  14.339  19.855  0.00  0.00    +0.000 C 
ATOM     23  C   UNL     1      11.005  15.262  20.802  0.00  0.00    +0.000 C 
ATOM     24  C   UNL     1      10.174  15.417  22.091  0.00  0.00    +0.000 C 
ATOM     25  C   UNL     1       8.712  15.968  21.855  0.00  0.00    +0.000 C 
ATOM     26  C   UNL     1       8.813  17.475  21.740  0.00  0.00    +0.000 C 
ATOM     27  N   UNL     1       6.062  14.048  23.750  0.00  0.00    +0.000 NA
ATOM     28  C   UNL     1       5.977  12.709  24.408  0.00  0.00    +0.000 C 
ENDROOT
BRANCH  17  29
ATOM     29  O   UNL     1       9.331   9.633  19.700  0.00  0.00    +0.000 OA
ATOM     30  H   UNL     1       8.646   9.423  20.361  0.00  0.00    +0.000 HD
ENDBRANCH  17  29
TORSDOF 1
ENDMDL
MODEL 6
REMARK VINA RESULT:      -6.2      2.323      6.657
REMARK  Name = 
REMARK  5 active torsions:
REMARK  status: ('A' for Active; 'I' for Inactive)
REMARK    1  A    between atoms: C_1  and  C_2
REMARK    2  A    between atoms: C_6  and  C_7
REMARK    3  A    between atoms: C_17  and  O_18
REMARK    4  A    between atoms: C_21  and  C_22
REMARK    5  A    between atoms: C_26  and  C_27
REMARK                            x       y       z     vdW  Elec       q    Type
REMARK                         _______ _______ _______ _____ _____    ______ ____
ROOT
ATOM      1  C   UNL     1       8.608   9.377  18.411  0.00  0.00    +0.000 C 
ATOM      2  C   UNL     1       8.864  10.839  18.791  0.00  0.00    +0.000 C 
ATOM      3  C   UNL     1       9.977  11.295  17.843  0.00  0.00    +0.000 C 
ATOM      4  C   UNL     1      10.342  12.693  18.216  0.00  0.00    +0.000 C 
ATOM      5  C   UNL     1      10.894  12.799  19.682  0.00  0.00    +0.000 C 
ATOM      6  C   UNL     1      11.142  14.260  20.123  0.00  0.00    +0.000 C 
ATOM      7  C   UNL     1      12.302  14.919  19.424  0.00  0.00    +0.000 C 
ATOM      8  C   UNL     1       9.708  14.731  19.877  0.00  0.00    +0.000 C 
ATOM      9  C   UNL     1       8.993  13.626  20.729  0.00  0.00    +0.000 C 
ATOM     10  C   UNL     1       8.862  14.500  22.076  0.00  0.00    +0.000 C 
ATOM     11  C   UNL     1       8.188  15.714  21.424  0.00  0.00    +0.000 C 
ATOM     12  C   UNL     1       7.204  16.815  21.831  0.00  0.00    +0.000 C 
ATOM     13  C   UNL     1       6.641  16.687  23.263  0.00  0.00    +0.000 C 
ATOM     14  C   UNL     1       5.195  17.143  23.281  0.00  0.00    +0.000 C 
ATOM     15  C   UNL     1       4.435  16.543  22.333  0.00  0.00    +0.000 C 
ATOM     16  C   UNL     1       4.251  15.028  22.457  0.00  0.00    +0.000 C 
ATOM     17  C   UNL     1       4.017  14.181  21.203  0.00  0.00    +0.000 C 
ATOM     18  C   UNL     1       3.494  14.911  19.976  0.00  0.00    +0.000 C 
ATOM     19  C   UNL     1       3.633  16.435  19.946  0.00  0.00    +0.000 C 
ATOM     20  C   UNL     1       4.644  17.111  20.924  0.00  0.00    +0.000 C 
ATOM     21  C   UNL     1       4.432  18.631  20.782  0.00  0.00    +0.000 C 
ATOM     22  C   UNL     1       6.116  16.740  20.614  0.00  0.00    +0.000 C 
ATOM     23  C   UNL     1       6.808  17.286  19.355  0.00  0.00    +0.000 C 
ATOM     24  C   UNL     1       7.939  16.308  18.985  0.00  0.00    +0.000 C 
ATOM     25  C   UNL     1       8.991  16.069  20.141  0.00  0.00    +0.000 C 
ATOM     26  C   UNL     1       9.973  17.220  20.099  0.00  0.00    +0.000 C 
ATOM     27  N   UNL     1       9.847  12.422  20.658  0.00  0.00    +0.000 NA
ATOM     28  C   UNL     1       9.225  11.115  20.289  0.00  0.00    +0.000 C 
ENDROOT
BRANCH  17  29
ATOM     29  O   UNL     1       3.112  13.117  21.514  0.00  0.00    +0.000 OA
ATOM     30  H   UNL     1       2.495  13.439  22.196  0.00  0.00    +0.000 HD
ENDBRANCH  17  29
TORSDOF 1
ENDMDL
MODEL 7
REMARK VINA RESULT:      -6.2      2.170      6.872
REMARK  Name = 
REMARK  5 active torsions:
REMARK  status: ('A' for Active; 'I' for Inactive)
REMARK    1  A    between atoms: C_1  and  C_2
REMARK    2  A    between atoms: C_6  and  C_7
REMARK    3  A    between atoms: C_17  and  O_18
REMARK    4  A    between atoms: C_21  and  C_22
REMARK    5  A    between atoms: C_26  and  C_27
REMARK                            x       y       z     vdW  Elec       q    Type
REMARK                         _______ _______ _______ _____ _____    ______ ____
ROOT
ATOM      1  C   UNL     1      10.377  11.627  17.806  0.00  0.00    +0.000 C 
ATOM      2  C   UNL     1       9.824  12.689  18.764  0.00  0.00    +0.000 C 
ATOM      3  C   UNL     1      11.003  13.635  19.012  0.00  0.00    +0.000 C 
ATOM      4  C   UNL     1      10.561  14.652  20.011  0.00  0.00    +0.000 C 
ATOM      5  C   UNL     1      10.168  14.009  21.389  0.00  0.00    +0.000 C 
ATOM      6  C   UNL     1       9.577  15.038  22.380  0.00  0.00    +0.000 C 
ATOM      7  C   UNL     1      10.584  16.030  22.902  0.00  0.00    +0.000 C 
ATOM      8  C   UNL     1       8.438  15.486  21.463  0.00  0.00    +0.000 C 
ATOM      9  C   UNL     1       7.856  14.060  21.168  0.00  0.00    +0.000 C 
ATOM     10  C   UNL     1       6.718  14.095  22.307  0.00  0.00    +0.000 C 
ATOM     11  C   UNL     1       6.094  15.431  21.881  0.00  0.00    +0.000 C 
ATOM     12  C   UNL     1       4.718  16.101  21.924  0.00  0.00    +0.000 C 
ATOM     13  C   UNL     1       3.579  15.213  22.474  0.00  0.00    +0.000 C 
ATOM     14  C   UNL     1       2.298  15.510  21.721  0.00  0.00    +0.000 C 
ATOM     15  C   UNL     1       2.444  15.449  20.375  0.00  0.00    +0.000 C 
ATOM     16  C   UNL     1       2.805  14.084  19.783  0.00  0.00    +0.000 C 
ATOM     17  C   UNL     1       3.606  14.003  18.481  0.00  0.00    +0.000 C 
ATOM     18  C   UNL     1       3.582  15.234  17.589  0.00  0.00    +0.000 C 
ATOM     19  C   UNL     1       3.134  16.556  18.218  0.00  0.00    +0.000 C 
ATOM     20  C   UNL     1       3.135  16.679  19.773  0.00  0.00    +0.000 C 
ATOM     21  C   UNL     1       2.479  18.035  20.100  0.00  0.00    +0.000 C 
ATOM     22  C   UNL     1       4.559  16.609  20.379  0.00  0.00    +0.000 C 
ATOM     23  C   UNL     1       5.547  17.769  20.181  0.00  0.00    +0.000 C 
ATOM     24  C   UNL     1       6.971  17.193  20.304  0.00  0.00    +0.000 C 
ATOM     25  C   UNL     1       7.251  16.447  21.669  0.00  0.00    +0.000 C 
ATOM     26  C   UNL     1       7.592  17.506  22.697  0.00  0.00    +0.000 C 
ATOM     27  N   UNL     1       8.995  13.121  21.230  0.00  0.00    +0.000 NA
ATOM     28  C   UNL     1       9.205  12.165  20.101  0.00  0.00    +0.000 C 
ENDROOT
BRANCH  17  29
ATOM     29  O   UNL     1       3.150  12.883  17.716  0.00  0.00    +0.000 OA
ATOM     30  H   UNL     1       2.436  12.447  18.218  0.00  0.00    +0.000 HD
ENDBRANCH  17  29
TORSDOF 1
ENDMDL
MODEL 8
REMARK VINA RESULT:      -6.2      2.555      6.709
REMARK  Name = 
REMARK  5 active torsions:
REMARK  status: ('A' for Active; 'I' for Inactive)
REMARK    1  A    between atoms: C_1  and  C_2
REMARK    2  A    between atoms: C_6  and  C_7
REMARK    3  A    between atoms: C_17  and  O_18
REMARK    4  A    between atoms: C_21  and  C_22
REMARK    5  A    between atoms: C_26  and  C_27
REMARK                            x       y       z     vdW  Elec       q    Type
REMARK                         _______ _______ _______ _____ _____    ______ ____
ROOT
ATOM      1  C   UNL     1       9.403   9.858  19.446  0.00  0.00    +0.000 C 
ATOM      2  C   UNL     1       9.335  11.379  19.271  0.00  0.00    +0.000 C 
ATOM      3  C   UNL     1       9.709  11.616  17.805  0.00  0.00    +0.000 C 
ATOM      4  C   UNL     1       9.748  13.091  17.584  0.00  0.00    +0.000 C 
ATOM      5  C   UNL     1      10.831  13.803  18.471  0.00  0.00    +0.000 C 
ATOM      6  C   UNL     1      10.782  15.344  18.351  0.00  0.00    +0.000 C 
ATOM      7  C   UNL     1      11.244  15.866  17.015  0.00  0.00    +0.000 C 
ATOM      8  C   UNL     1       9.321  15.477  18.783  0.00  0.00    +0.000 C 
ATOM      9  C   UNL     1       9.441  14.666  20.120  0.00  0.00    +0.000 C 
ATOM     10  C   UNL     1       9.658  15.940  21.081  0.00  0.00    +0.000 C 
ATOM     11  C   UNL     1       8.426  16.721  20.606  0.00  0.00    +0.000 C 
ATOM     12  C   UNL     1       7.438  17.738  21.186  0.00  0.00    +0.000 C 
ATOM     13  C   UNL     1       7.640  18.059  22.684  0.00  0.00    +0.000 C 
ATOM     14  C   UNL     1       6.291  18.273  23.341  0.00  0.00    +0.000 C 
ATOM     15  C   UNL     1       5.418  17.264  23.106  0.00  0.00    +0.000 C 
ATOM     16  C   UNL     1       5.787  15.889  23.668  0.00  0.00    +0.000 C 
ATOM     17  C   UNL     1       5.296  14.620  22.967  0.00  0.00    +0.000 C 
ATOM     18  C   UNL     1       4.085  14.768  22.060  0.00  0.00    +0.000 C 
ATOM     19  C   UNL     1       3.717  16.179  21.595  0.00  0.00    +0.000 C 
ATOM     20  C   UNL     1       4.792  17.304  21.707  0.00  0.00    +0.000 C 
ATOM     21  C   UNL     1       4.080  18.620  21.335  0.00  0.00    +0.000 C 
ATOM     22  C   UNL     1       6.007  17.067  20.775  0.00  0.00    +0.000 C 
ATOM     23  C   UNL     1       5.860  17.212  19.252  0.00  0.00    +0.000 C 
ATOM     24  C   UNL     1       6.950  16.344  18.596  0.00  0.00    +0.000 C 
ATOM     25  C   UNL     1       8.421  16.699  19.051  0.00  0.00    +0.000 C 
ATOM     26  C   UNL     1       8.872  17.887  18.227  0.00  0.00    +0.000 C 
ATOM     27  N   UNL     1      10.500  13.658  19.907  0.00  0.00    +0.000 NA
ATOM     28  C   UNL     1      10.218  12.230  20.243  0.00  0.00    +0.000 C 
ENDROOT
BRANCH  17  29
ATOM     29  O   UNL     1       5.003  13.621  23.950  0.00  0.00    +0.000 OA
ATOM     30  H   UNL     1       4.584  12.867  23.495  0.00  0.00    +0.000 HD
ENDBRANCH  17  29
TORSDOF 1
ENDMDL
MODEL 9
REMARK VINA RESULT:      -6.1      5.235      8.723
REMARK  Name = 
REMARK  5 active torsions:
REMARK  status: ('A' for Active; 'I' for Inactive)
REMARK    1  A    between atoms: C_1  and  C_2
REMARK    2  A    between atoms: C_6  and  C_7
REMARK    3  A    between atoms: C_17  and  O_18
REMARK    4  A    between atoms: C_21  and  C_22
REMARK    5  A    between atoms: C_26  and  C_27
REMARK                            x       y       z     vdW  Elec       q    Type
REMARK                         _______ _______ _______ _____ _____    ______ ____
ROOT
ATOM      1  C   UNL     1       1.393   8.307  21.218  0.00  0.00    +0.000 C 
ATOM      2  C   UNL     1       0.758   9.691  21.391  0.00  0.00    +0.000 C 
ATOM      3  C   UNL     1       0.019   9.611  22.731  0.00  0.00    +0.000 C 
ATOM      4  C   UNL     1      -0.699  10.905  22.925  0.00  0.00    +0.000 C 
ATOM      5  C   UNL     1      -1.769  11.172  21.807  0.00  0.00    +0.000 C 
ATOM      6  C   UNL     1      -2.417  12.571  21.923  0.00  0.00    +0.000 C 
ATOM      7  C   UNL     1      -3.329  12.723  23.113  0.00  0.00    +0.000 C 
ATOM      8  C   UNL     1      -1.102  13.348  21.838  0.00  0.00    +0.000 C 
ATOM      9  C   UNL     1      -0.575  12.690  20.516  0.00  0.00    +0.000 C 
ATOM     10  C   UNL     1      -1.113  13.837  19.521  0.00  0.00    +0.000 C 
ATOM     11  C   UNL     1      -0.470  15.017  20.261  0.00  0.00    +0.000 C 
ATOM     12  C   UNL     1       0.079  16.404  19.916  0.00  0.00    +0.000 C 
ATOM     13  C   UNL     1       0.079  16.747  18.409  0.00  0.00    +0.000 C 
ATOM     14  C   UNL     1       1.308  17.570  18.078  0.00  0.00    +0.000 C 
ATOM     15  C   UNL     1       2.460  17.008  18.516  0.00  0.00    +0.000 C 
ATOM     16  C   UNL     1       2.850  15.663  17.895  0.00  0.00    +0.000 C 
ATOM     17  C   UNL     1       3.680  14.661  18.700  0.00  0.00    +0.000 C 
ATOM     18  C   UNL     1       4.487  15.221  19.861  0.00  0.00    +0.000 C 
ATOM     19  C   UNL     1       4.102  16.606  20.387  0.00  0.00    +0.000 C 
ATOM     20  C   UNL     1       2.697  17.178  20.022  0.00  0.00    +0.000 C 
ATOM     21  C   UNL     1       2.674  18.630  20.537  0.00  0.00    +0.000 C 
ATOM     22  C   UNL     1       1.538  16.365  20.651  0.00  0.00    +0.000 C 
ATOM     23  C   UNL     1       1.282  16.417  22.165  0.00  0.00    +0.000 C 
ATOM     24  C   UNL     1       0.563  15.113  22.560  0.00  0.00    +0.000 C 
ATOM     25  C   UNL     1      -0.784  14.854  21.775  0.00  0.00    +0.000 C 
ATOM     26  C   UNL     1      -1.866  15.659  22.464  0.00  0.00    +0.000 C 
ATOM     27  N   UNL     1      -1.114  11.314  20.487  0.00  0.00    +0.000 NA
ATOM     28  C   UNL     1      -0.178  10.177  20.236  0.00  0.00    +0.000 C 
ENDROOT
BRANCH  17  29
ATOM     29  O   UNL     1       4.576  13.975  17.819  0.00  0.00    +0.000 OA
ATOM     30  H   UNL     1       5.345  14.554  17.663  0.00  0.00    +0.000 HD
ENDBRANCH  17  29
TORSDOF 1
ENDMDL
