MODEL 1
REMARK VINA RESULT:      -7.2      0.000      0.000
REMARK  Name = 
REMARK  5 active torsions:
REMARK  status: ('A' for Active; 'I' for Inactive)
REMARK    1  A    between atoms: C_1  and  C_2
REMARK    2  A    between atoms: C_2  and  C_3
REMARK    3  A    between atoms: C_6  and  C_7
REMARK    4  A    between atoms: C_8  and  C_9
REMARK    5  A    between atoms: C_14  and  C_15
REMARK                            x       y       z     vdW  Elec       q    Type
REMARK                         _______ _______ _______ _____ _____    ______ ____
ROOT
ATOM      1  C   UNL     1       2.345   5.439  19.711  0.00  0.00    +0.000 C 
ATOM      2  O   UNL     1       1.745   5.502  20.778  0.00  0.00    +0.000 OA
ATOM      3  N   UNL     1       2.548   6.504  18.861  0.00  0.00    +0.000 N 
ATOM      4  C   UNL     1       2.042   7.741  19.151  0.00  0.00    +0.000 A 
ATOM      5  N   UNL     1       1.493   8.162  20.257  0.00  0.00    +0.000 NA
ATOM      6  C   UNL     1       0.992   9.437  20.080  0.00  0.00    +0.000 A 
ATOM      7  C   UNL     1       1.222   9.979  18.830  0.00  0.00    +0.000 A 
ATOM      8  S   UNL     1       2.113   8.862  17.868  0.00  0.00    +0.000 S 
ATOM      9  H   UNL     1       2.934   6.387  17.942  0.00  0.00    +0.000 HD
ENDROOT
BRANCH   1  15
ATOM     10  C   UNL     1       4.230   3.821  19.023  0.00  0.00    +0.000 A 
ATOM     11  N   UNL     1       4.374   2.564  18.597  0.00  0.00    +0.000 NA
ATOM     12  O   UNL     1       3.104   2.045  18.524  0.00  0.00    +0.000 OA
ATOM     13  C   UNL     1       2.195   2.983  18.904  0.00  0.00    +0.000 A 
ATOM     14  C   UNL     1       0.791   2.528  18.836  0.00  0.00    +0.000 C 
ATOM     15  C   UNL     1       2.855   4.149  19.248  0.00  0.00    +0.000 A 
BRANCH  10  17
ATOM     16  C   UNL     1       6.280   4.784  17.944  0.00  0.00    +0.000 C 
ATOM     17  C   UNL     1       5.448   4.670  19.212  0.00  0.00    +0.000 C 
ENDBRANCH  10  17
ENDBRANCH   1  15
BRANCH   6  18
ATOM     18  C   UNL     1       0.247  10.112  21.190  0.00  0.00    +0.000 A 
ATOM     19  C   UNL     1      -0.193   9.436  22.311  0.00  0.00    +0.000 A 
ATOM     20  C   UNL     1      -0.893  10.286  23.215  0.00  0.00    +0.000 A 
ATOM     21  C   UNL     1      -0.972  11.579  22.745  0.00  0.00    +0.000 A 
ATOM     22  S   UNL     1      -0.178  11.764  21.240  0.00  0.00    +0.000 S 
ENDBRANCH   6  18
TORSDOF 3
ENDMDL
MODEL 2
REMARK VINA RESULT:      -7.2      0.839      2.321
REMARK  Name = 
REMARK  5 active torsions:
REMARK  status: ('A' for Active; 'I' for Inactive)
REMARK    1  A    between atoms: C_1  and  C_2
REMARK    2  A    between atoms: C_2  and  C_3
REMARK    3  A    between atoms: C_6  and  C_7
REMARK    4  A    between atoms: C_8  and  C_9
REMARK    5  A    between atoms: C_14  and  C_15
REMARK                            x       y       z     vdW  Elec       q    Type
REMARK                         _______ _______ _______ _____ _____    ______ ____
ROOT
ATOM      1  C   UNL     1       2.746   5.997  19.494  0.00  0.00    +0.000 C 
ATOM      2  O   UNL     1       2.181   5.929  20.580  0.00  0.00    +0.000 OA
ATOM      3  N   UNL     1       2.747   7.109  18.680  0.00  0.00    +0.000 N 
ATOM      4  C   UNL     1       2.064   8.239  19.034  0.00  0.00    +0.000 A 
ATOM      5  N   UNL     1       1.497   8.531  20.172  0.00  0.00    +0.000 NA
ATOM      6  C   UNL     1       0.796   9.716  20.060  0.00  0.00    +0.000 A 
ATOM      7  C   UNL     1       0.891  10.329  18.826  0.00  0.00    +0.000 A 
ATOM      8  S   UNL     1       1.911   9.401  17.794  0.00  0.00    +0.000 S 
ATOM      9  H   UNL     1       3.113   7.086  17.746  0.00  0.00    +0.000 HD
ENDROOT
BRANCH   1  15
ATOM     10  C   UNL     1       2.807   3.637  18.460  0.00  0.00    +0.000 A 
ATOM     11  N   UNL     1       3.706   2.738  18.055  0.00  0.00    +0.000 NA
ATOM     12  O   UNL     1       4.936   3.302  18.292  0.00  0.00    +0.000 OA
ATOM     13  C   UNL     1       4.783   4.539  18.839  0.00  0.00    +0.000 A 
ATOM     14  C   UNL     1       6.052   5.223  19.155  0.00  0.00    +0.000 C 
ATOM     15  C   UNL     1       3.434   4.821  18.966  0.00  0.00    +0.000 A 
BRANCH  10  17
ATOM     16  C   UNL     1       0.742   2.843  19.642  0.00  0.00    +0.000 C 
ATOM     17  C   UNL     1       1.350   3.320  18.332  0.00  0.00    +0.000 C 
ENDBRANCH  10  17
ENDBRANCH   1  15
BRANCH   6  18
ATOM     18  C   UNL     1      -0.005  10.227  21.218  0.00  0.00    +0.000 A 
ATOM     19  C   UNL     1      -0.171   9.506  22.385  0.00  0.00    +0.000 A 
ATOM     20  C   UNL     1      -0.989  10.190  23.330  0.00  0.00    +0.000 A 
ATOM     21  C   UNL     1      -1.428  11.403  22.846  0.00  0.00    +0.000 A 
ATOM     22  S   UNL     1      -0.828  11.721  21.275  0.00  0.00    +0.000 S 
ENDBRANCH   6  18
TORSDOF 3
ENDMDL
MODEL 3
REMARK VINA RESULT:      -7.0      1.229      2.510
REMARK  Name = 
REMARK  5 active torsions:
REMARK  status: ('A' for Active; 'I' for Inactive)
REMARK    1  A    between atoms: C_1  and  C_2
REMARK    2  A    between atoms: C_2  and  C_3
REMARK    3  A    between atoms: C_6  and  C_7
REMARK    4  A    between atoms: C_8  and  C_9
REMARK    5  A    between atoms: C_14  and  C_15
REMARK                            x       y       z     vdW  Elec       q    Type
REMARK                         _______ _______ _______ _____ _____    ______ ____
ROOT
ATOM      1  C   UNL     1       2.451   6.081  19.860  0.00  0.00    +0.000 C 
ATOM      2  O   UNL     1       1.818   6.103  20.911  0.00  0.00    +0.000 OA
ATOM      3  N   UNL     1       2.542   7.135  18.978  0.00  0.00    +0.000 N 
ATOM      4  C   UNL     1       1.879   8.308  19.213  0.00  0.00    +0.000 A 
ATOM      5  N   UNL     1       1.254   8.692  20.292  0.00  0.00    +0.000 NA
ATOM      6  C   UNL     1       0.603   9.889  20.059  0.00  0.00    +0.000 A 
ATOM      7  C   UNL     1       0.796  10.415  18.795  0.00  0.00    +0.000 A 
ATOM      8  S   UNL     1       1.844   9.388  17.893  0.00  0.00    +0.000 S 
ATOM      9  H   UNL     1       2.963   7.038  18.073  0.00  0.00    +0.000 HD
ENDROOT
BRANCH   1  15
ATOM     10  C   UNL     1       2.598   3.525  19.561  0.00  0.00    +0.000 A 
ATOM     11  N   UNL     1       3.460   2.611  19.110  0.00  0.00    +0.000 NA
ATOM     12  O   UNL     1       4.573   3.310  18.710  0.00  0.00    +0.000 OA
ATOM     13  C   UNL     1       4.386   4.642  18.916  0.00  0.00    +0.000 A 
ATOM     14  C   UNL     1       5.540   5.482  18.538  0.00  0.00    +0.000 C 
ATOM     15  C   UNL     1       3.128   4.851  19.455  0.00  0.00    +0.000 A 
BRANCH  10  17
ATOM     16  C   UNL     1       1.316   2.668  21.539  0.00  0.00    +0.000 C 
ATOM     17  C   UNL     1       1.265   3.078  20.075  0.00  0.00    +0.000 C 
ENDBRANCH  10  17
ENDBRANCH   1  15
BRANCH   6  18
ATOM     18  C   UNL     1      -0.249  10.501  21.127  0.00  0.00    +0.000 A 
ATOM     19  C   UNL     1      -1.012  11.633  20.915  0.00  0.00    +0.000 A 
ATOM     20  C   UNL     1      -1.718  12.036  22.084  0.00  0.00    +0.000 A 
ATOM     21  C   UNL     1      -1.460  11.203  23.151  0.00  0.00    +0.000 A 
ATOM     22  S   UNL     1      -0.397   9.929  22.728  0.00  0.00    +0.000 S 
ENDBRANCH   6  18
TORSDOF 3
ENDMDL
MODEL 4
REMARK VINA RESULT:      -6.8      2.749      4.020
REMARK  Name = 
REMARK  5 active torsions:
REMARK  status: ('A' for Active; 'I' for Inactive)
REMARK    1  A    between atoms: C_1  and  C_2
REMARK    2  A    between atoms: C_2  and  C_3
REMARK    3  A    between atoms: C_6  and  C_7
REMARK    4  A    between atoms: C_8  and  C_9
REMARK    5  A    between atoms: C_14  and  C_15
REMARK                            x       y       z     vdW  Elec       q    Type
REMARK                         _______ _______ _______ _____ _____    ______ ____
ROOT
ATOM      1  C   UNL     1       5.090   6.224  17.821  0.00  0.00    +0.000 C 
ATOM      2  O   UNL     1       4.958   7.393  17.476  0.00  0.00    +0.000 OA
ATOM      3  N   UNL     1       4.238   5.558  18.675  0.00  0.00    +0.000 N 
ATOM      4  C   UNL     1       3.168   6.196  19.239  0.00  0.00    +0.000 A 
ATOM      5  N   UNL     1       2.680   7.374  18.964  0.00  0.00    +0.000 NA
ATOM      6  C   UNL     1       1.680   7.692  19.863  0.00  0.00    +0.000 A 
ATOM      7  C   UNL     1       1.398   6.704  20.787  0.00  0.00    +0.000 A 
ATOM      8  S   UNL     1       2.401   5.334  20.495  0.00  0.00    +0.000 S 
ATOM      9  H   UNL     1       4.447   4.644  19.031  0.00  0.00    +0.000 HD
ENDROOT
BRANCH   1  15
ATOM     10  C   UNL     1       6.384   4.839  16.074  0.00  0.00    +0.000 A 
ATOM     11  N   UNL     1       7.557   4.214  15.952  0.00  0.00    +0.000 NA
ATOM     12  O   UNL     1       8.210   4.403  17.146  0.00  0.00    +0.000 OA
ATOM     13  C   UNL     1       7.436   5.140  17.988  0.00  0.00    +0.000 A 
ATOM     14  C   UNL     1       8.041   5.380  19.313  0.00  0.00    +0.000 C 
ATOM     15  C   UNL     1       6.248   5.463  17.356  0.00  0.00    +0.000 A 
BRANCH  10  17
ATOM     16  C   UNL     1       5.908   3.945  13.779  0.00  0.00    +0.000 C 
ATOM     17  C   UNL     1       5.425   4.821  14.925  0.00  0.00    +0.000 C 
ENDBRANCH  10  17
ENDBRANCH   1  15
BRANCH   6  18
ATOM     18  C   UNL     1       1.011   9.031  19.800  0.00  0.00    +0.000 A 
ATOM     19  C   UNL     1       0.254   9.534  20.840  0.00  0.00    +0.000 A 
ATOM     20  C   UNL     1      -0.295  10.814  20.537  0.00  0.00    +0.000 A 
ATOM     21  C   UNL     1       0.053  11.235  19.273  0.00  0.00    +0.000 A 
ATOM     22  S   UNL     1       1.061  10.104  18.475  0.00  0.00    +0.000 S 
ENDBRANCH   6  18
TORSDOF 3
ENDMDL
MODEL 5
REMARK VINA RESULT:      -6.8      4.065      7.766
REMARK  Name = 
REMARK  5 active torsions:
REMARK  status: ('A' for Active; 'I' for Inactive)
REMARK    1  A    between atoms: C_1  and  C_2
REMARK    2  A    between atoms: C_2  and  C_3
REMARK    3  A    between atoms: C_6  and  C_7
REMARK    4  A    between atoms: C_8  and  C_9
REMARK    5  A    between atoms: C_14  and  C_15
REMARK                            x       y       z     vdW  Elec       q    Type
REMARK                         _______ _______ _______ _____ _____    ______ ____
ROOT
ATOM      1  C   UNL     1       4.086   3.370  18.817  0.00  0.00    +0.000 C 
ATOM      2  O   UNL     1       3.883   2.659  17.839  0.00  0.00    +0.000 OA
ATOM      3  N   UNL     1       4.892   4.488  18.820  0.00  0.00    +0.000 N 
ATOM      4  C   UNL     1       5.569   4.869  17.695  0.00  0.00    +0.000 A 
ATOM      5  N   UNL     1       5.452   4.417  16.477  0.00  0.00    +0.000 NA
ATOM      6  C   UNL     1       6.423   4.980  15.670  0.00  0.00    +0.000 A 
ATOM      7  C   UNL     1       7.238   5.900  16.302  0.00  0.00    +0.000 A 
ATOM      8  S   UNL     1       6.748   6.076  17.944  0.00  0.00    +0.000 S 
ATOM      9  H   UNL     1       5.131   4.970  19.667  0.00  0.00    +0.000 HD
ENDROOT
BRANCH   1  15
ATOM     10  C   UNL     1       2.300   3.580  20.663  0.00  0.00    +0.000 A 
ATOM     11  N   UNL     1       2.013   3.048  21.853  0.00  0.00    +0.000 NA
ATOM     12  O   UNL     1       3.006   2.132  22.104  0.00  0.00    +0.000 OA
ATOM     13  C   UNL     1       3.890   2.108  21.069  0.00  0.00    +0.000 A 
ATOM     14  C   UNL     1       5.013   1.168  21.254  0.00  0.00    +0.000 C 
ATOM     15  C   UNL     1       3.488   3.012  20.102  0.00  0.00    +0.000 A 
BRANCH  10  17
ATOM     16  C   UNL     1       1.905   6.038  20.349  0.00  0.00    +0.000 C 
ATOM     17  C   UNL     1       1.393   4.628  20.096  0.00  0.00    +0.000 C 
ENDBRANCH  10  17
ENDBRANCH   1  15
BRANCH   6  18
ATOM     18  C   UNL     1       6.543   4.561  14.237  0.00  0.00    +0.000 A 
ATOM     19  C   UNL     1       5.664   3.676  13.643  0.00  0.00    +0.000 A 
ATOM     20  C   UNL     1       5.995   3.418  12.282  0.00  0.00    +0.000 A 
ATOM     21  C   UNL     1       7.122   4.106  11.889  0.00  0.00    +0.000 A 
ATOM     22  S   UNL     1       7.752   5.079  13.150  0.00  0.00    +0.000 S 
ENDBRANCH   6  18
TORSDOF 3
ENDMDL
MODEL 6
REMARK VINA RESULT:      -6.7      1.015      1.099
REMARK  Name = 
REMARK  5 active torsions:
REMARK  status: ('A' for Active; 'I' for Inactive)
REMARK    1  A    between atoms: C_1  and  C_2
REMARK    2  A    between atoms: C_2  and  C_3
REMARK    3  A    between atoms: C_6  and  C_7
REMARK    4  A    between atoms: C_8  and  C_9
REMARK    5  A    between atoms: C_14  and  C_15
REMARK                            x       y       z     vdW  Elec       q    Type
REMARK                         _______ _______ _______ _____ _____    ______ ____
ROOT
ATOM      1  C   UNL     1       2.319   5.640  19.967  0.00  0.00    +0.000 C 
ATOM      2  O   UNL     1       1.721   5.764  21.030  0.00  0.00    +0.000 OA
ATOM      3  N   UNL     1       2.510   6.654  19.052  0.00  0.00    +0.000 N 
ATOM      4  C   UNL     1       1.994   7.902  19.269  0.00  0.00    +0.000 A 
ATOM      5  N   UNL     1       1.446   8.385  20.349  0.00  0.00    +0.000 NA
ATOM      6  C   UNL     1       0.934   9.643  20.096  0.00  0.00    +0.000 A 
ATOM      7  C   UNL     1       1.155  10.110  18.814  0.00  0.00    +0.000 A 
ATOM      8  S   UNL     1       2.052   8.943  17.919  0.00  0.00    +0.000 S 
ATOM      9  H   UNL     1       2.893   6.484  18.141  0.00  0.00    +0.000 HD
ENDROOT
BRANCH   1  15
ATOM     10  C   UNL     1       3.556   4.030  18.380  0.00  0.00    +0.000 A 
ATOM     11  N   UNL     1       3.891   2.740  18.314  0.00  0.00    +0.000 NA
ATOM     12  O   UNL     1       3.395   2.164  19.459  0.00  0.00    +0.000 OA
ATOM     13  C   UNL     1       2.762   3.101  20.215  0.00  0.00    +0.000 A 
ATOM     14  C   UNL     1       2.169   2.575  21.461  0.00  0.00    +0.000 C 
ATOM     15  C   UNL     1       2.837   4.330  19.582  0.00  0.00    +0.000 A 
BRANCH  10  17
ATOM     16  C   UNL     1       4.886   4.271  16.267  0.00  0.00    +0.000 C 
ATOM     17  C   UNL     1       3.960   4.945  17.267  0.00  0.00    +0.000 C 
ENDBRANCH  10  17
ENDBRANCH   1  15
BRANCH   6  18
ATOM     18  C   UNL     1       0.187  10.379  21.166  0.00  0.00    +0.000 A 
ATOM     19  C   UNL     1      -0.354   9.744  22.267  0.00  0.00    +0.000 A 
ATOM     20  C   UNL     1      -1.034  10.650  23.132  0.00  0.00    +0.000 A 
ATOM     21  C   UNL     1      -0.996  11.941  22.654  0.00  0.00    +0.000 A 
ATOM     22  S   UNL     1      -0.119  12.057  21.188  0.00  0.00    +0.000 S 
ENDBRANCH   6  18
TORSDOF 3
ENDMDL
MODEL 7
REMARK VINA RESULT:      -6.7      2.167      3.484
REMARK  Name = 
REMARK  5 active torsions:
REMARK  status: ('A' for Active; 'I' for Inactive)
REMARK    1  A    between atoms: C_1  and  C_2
REMARK    2  A    between atoms: C_2  and  C_3
REMARK    3  A    between atoms: C_6  and  C_7
REMARK    4  A    between atoms: C_8  and  C_9
REMARK    5  A    between atoms: C_14  and  C_15
REMARK                            x       y       z     vdW  Elec       q    Type
REMARK                         _______ _______ _______ _____ _____    ______ ____
ROOT
ATOM      1  C   UNL     1       2.476   6.623  19.549  0.00  0.00    +0.000 C 
ATOM      2  O   UNL     1       2.261   7.161  18.468  0.00  0.00    +0.000 OA
ATOM      3  N   UNL     1       2.084   7.131  20.768  0.00  0.00    +0.000 N 
ATOM      4  C   UNL     1       1.434   8.332  20.854  0.00  0.00    +0.000 A 
ATOM      5  N   UNL     1       0.938   9.064  19.895  0.00  0.00    +0.000 NA
ATOM      6  C   UNL     1       0.489  10.267  20.404  0.00  0.00    +0.000 A 
ATOM      7  C   UNL     1       0.617  10.399  21.774  0.00  0.00    +0.000 A 
ATOM      8  S   UNL     1       1.294   8.959  22.434  0.00  0.00    +0.000 S 
ATOM      9  H   UNL     1       2.385   6.728  21.636  0.00  0.00    +0.000 HD
ENDROOT
BRANCH   1  15
ATOM     10  C   UNL     1       2.776   4.123  20.098  0.00  0.00    +0.000 A 
ATOM     11  N   UNL     1       3.713   3.177  20.007  0.00  0.00    +0.000 NA
ATOM     12  O   UNL     1       4.812   3.789  19.454  0.00  0.00    +0.000 OA
ATOM     13  C   UNL     1       4.542   5.100  19.210  0.00  0.00    +0.000 A 
ATOM     14  C   UNL     1       5.673   5.855  18.635  0.00  0.00    +0.000 C 
ATOM     15  C   UNL     1       3.242   5.380  19.594  0.00  0.00    +0.000 A 
BRANCH  10  17
ATOM     16  C   UNL     1       1.514   2.630  21.670  0.00  0.00    +0.000 C 
ATOM     17  C   UNL     1       1.437   3.771  20.667  0.00  0.00    +0.000 C 
ENDBRANCH  10  17
ENDBRANCH   1  15
BRANCH   6  18
ATOM     18  C   UNL     1      -0.059  11.314  19.484  0.00  0.00    +0.000 A 
ATOM     19  C   UNL     1      -1.186  11.111  18.712  0.00  0.00    +0.000 A 
ATOM     20  C   UNL     1      -1.499  12.242  17.905  0.00  0.00    +0.000 A 
ATOM     21  C   UNL     1      -0.593  13.265  18.082  0.00  0.00    +0.000 A 
ATOM     22  S   UNL     1       0.606  12.866  19.238  0.00  0.00    +0.000 S 
ENDBRANCH   6  18
TORSDOF 3
ENDMDL
MODEL 8
REMARK VINA RESULT:      -6.7      2.187      3.483
REMARK  Name = 
REMARK  5 active torsions:
REMARK  status: ('A' for Active; 'I' for Inactive)
REMARK    1  A    between atoms: C_1  and  C_2
REMARK    2  A    between atoms: C_2  and  C_3
REMARK    3  A    between atoms: C_6  and  C_7
REMARK    4  A    between atoms: C_8  and  C_9
REMARK    5  A    between atoms: C_14  and  C_15
REMARK                            x       y       z     vdW  Elec       q    Type
REMARK                         _______ _______ _______ _____ _____    ______ ____
ROOT
ATOM      1  C   UNL     1       2.624   6.320  19.376  0.00  0.00    +0.000 C 
ATOM      2  O   UNL     1       2.275   6.753  18.283  0.00  0.00    +0.000 OA
ATOM      3  N   UNL     1       2.310   6.902  20.585  0.00  0.00    +0.000 N 
ATOM      4  C   UNL     1       1.590   8.063  20.641  0.00  0.00    +0.000 A 
ATOM      5  N   UNL     1       0.959   8.681  19.681  0.00  0.00    +0.000 NA
ATOM      6  C   UNL     1       0.476   9.893  20.137  0.00  0.00    +0.000 A 
ATOM      7  C   UNL     1       0.719  10.145  21.474  0.00  0.00    +0.000 A 
ATOM      8  S   UNL     1       1.551   8.809  22.174  0.00  0.00    +0.000 S 
ATOM      9  H   UNL     1       2.717   6.591  21.448  0.00  0.00    +0.000 HD
ENDROOT
BRANCH   1  15
ATOM     10  C   UNL     1       3.055   3.817  19.814  0.00  0.00    +0.000 A 
ATOM     11  N   UNL     1       4.067   2.949  19.783  0.00  0.00    +0.000 NA
ATOM     12  O   UNL     1       5.171   3.672  19.402  0.00  0.00    +0.000 OA
ATOM     13  C   UNL     1       4.829   4.974  19.203  0.00  0.00    +0.000 A 
ATOM     14  C   UNL     1       5.956   5.844  18.813  0.00  0.00    +0.000 C 
ATOM     15  C   UNL     1       3.475   5.135  19.442  0.00  0.00    +0.000 A 
BRANCH  10  17
ATOM     16  C   UNL     1       1.624   2.867  21.642  0.00  0.00    +0.000 C 
ATOM     17  C   UNL     1       1.691   3.333  20.196  0.00  0.00    +0.000 C 
ENDBRANCH  10  17
ENDBRANCH   1  15
BRANCH   6  18
ATOM     18  C   UNL     1      -0.225  10.824  19.197  0.00  0.00    +0.000 A 
ATOM     19  C   UNL     1       0.069  12.172  19.127  0.00  0.00    +0.000 A 
ATOM     20  C   UNL     1      -0.742  12.853  18.174  0.00  0.00    +0.000 A 
ATOM     21  C   UNL     1      -1.635  12.002  17.560  0.00  0.00    +0.000 A 
ATOM     22  S   UNL     1      -1.467  10.390  18.111  0.00  0.00    +0.000 S 
ENDBRANCH   6  18
TORSDOF 3
ENDMDL
MODEL 9
REMARK VINA RESULT:      -6.7      3.436      8.082
REMARK  Name = 
REMARK  5 active torsions:
REMARK  status: ('A' for Active; 'I' for Inactive)
REMARK    1  A    between atoms: C_1  and  C_2
REMARK    2  A    between atoms: C_2  and  C_3
REMARK    3  A    between atoms: C_6  and  C_7
REMARK    4  A    between atoms: C_8  and  C_9
REMARK    5  A    between atoms: C_14  and  C_15
REMARK                            x       y       z     vdW  Elec       q    Type
REMARK                         _______ _______ _______ _____ _____    ______ ____
ROOT
ATOM      1  C   UNL     1       1.363   9.538  18.460  0.00  0.00    +0.000 C 
ATOM      2  O   UNL     1       1.968   9.579  17.395  0.00  0.00    +0.000 OA
ATOM      3  N   UNL     1       1.491   8.534  19.396  0.00  0.00    +0.000 N 
ATOM      4  C   UNL     1       2.310   7.463  19.170  0.00  0.00    +0.000 A 
ATOM      5  N   UNL     1       3.184   7.287  18.218  0.00  0.00    +0.000 NA
ATOM      6  C   UNL     1       3.696   6.006  18.279  0.00  0.00    +0.000 A 
ATOM      7  C   UNL     1       3.221   5.242  19.328  0.00  0.00    +0.000 A 
ATOM      8  S   UNL     1       2.123   6.174  20.272  0.00  0.00    +0.000 S 
ATOM      9  H   UNL     1       0.888   8.471  20.196  0.00  0.00    +0.000 HD
ENDROOT
BRANCH   1  15
ATOM     10  C   UNL     1      -0.931  10.690  18.231  0.00  0.00    +0.000 A 
ATOM     11  N   UNL     1      -1.576  11.756  18.711  0.00  0.00    +0.000 NA
ATOM     12  O   UNL     1      -0.696  12.373  19.567  0.00  0.00    +0.000 OA
ATOM     13  C   UNL     1       0.477  11.683  19.607  0.00  0.00    +0.000 A 
ATOM     14  C   UNL     1       1.502  12.282  20.485  0.00  0.00    +0.000 C 
ATOM     15  C   UNL     1       0.389  10.581  18.775  0.00  0.00    +0.000 A 
BRANCH  10  17
ATOM     16  C   UNL     1      -3.142   9.949  17.307  0.00  0.00    +0.000 C 
ATOM     17  C   UNL     1      -1.630   9.793  17.258  0.00  0.00    +0.000 C 
ENDBRANCH  10  17
ENDBRANCH   1  15
BRANCH   6  18
ATOM     18  C   UNL     1       4.670   5.536  17.242  0.00  0.00    +0.000 A 
ATOM     19  C   UNL     1       4.494   4.365  16.532  0.00  0.00    +0.000 A 
ATOM     20  C   UNL     1       5.561   4.122  15.619  0.00  0.00    +0.000 A 
ATOM     21  C   UNL     1       6.518   5.111  15.674  0.00  0.00    +0.000 A 
ATOM     22  S   UNL     1       6.111   6.336  16.798  0.00  0.00    +0.000 S 
ENDBRANCH   6  18
TORSDOF 3
ENDMDL
