MODEL 1
REMARK VINA RESULT:      -6.0      0.000      0.000
REMARK  Name = 
REMARK  18 active torsions:
REMARK  status: ('A' for Active; 'I' for Inactive)
REMARK    1  A    between atoms: C_1  and  N_2
REMARK    2  A    between atoms: N_2  and  C_3
REMARK    3  A    between atoms: N_2  and  C_4
REMARK    4  A    between atoms: C_4  and  C_5
REMARK    5  A    between atoms: C_5  and  C_6
REMARK    6  A    between atoms: C_6  and  C_7
REMARK    7  A    between atoms: C_7  and  C_8
REMARK    8  A    between atoms: C_8  and  C_9
REMARK    9  A    between atoms: C_9  and  C_10
REMARK   10  A    between atoms: C_10  and  C_11
REMARK   11  A    between atoms: C_11  and  C_12
REMARK   12  A    between atoms: C_12  and  C_13
REMARK   13  A    between atoms: C_13  and  C_14
REMARK   14  A    between atoms: C_14  and  C_15
REMARK   15  A    between atoms: N_17  and  C_18
REMARK   16  A    between atoms: C_18  and  C_19
REMARK   17  A    between atoms: C_19  and  O_20
REMARK   18  A    between atoms: C_19  and  C_21
REMARK                            x       y       z     vdW  Elec       q    Type
REMARK                         _______ _______ _______ _____ _____    ______ ____
ROOT
ATOM      1  C   UNL     1       8.177   6.985  18.810  0.00  0.00    +0.000 C 
ENDROOT
BRANCH   1   2
ATOM      2  C   UNL     1       7.644   5.861  17.952  0.00  0.00    +0.000 C 
ATOM      3  O   UNL     1       7.446   4.730  18.391  0.00  0.00    +0.000 OA
ATOM      4  N   UNL     1       7.393   6.244  16.646  0.00  0.00    +0.000 N 
ATOM      5  H   UNL     1       7.897   7.045  16.282  0.00  0.00    +0.000 HD
BRANCH   4   6
ATOM      6  C   UNL     1       6.976   5.229  15.690  0.00  0.00    +0.000 C 
BRANCH   6   7
ATOM      7  C   UNL     1       5.469   5.196  15.356  0.00  0.00    +0.000 C 
BRANCH   7   8
ATOM      8  C   UNL     1       4.584   4.870  16.548  0.00  0.00    +0.000 A 
ATOM      9  C   UNL     1       3.944   5.841  17.330  0.00  0.00    +0.000 A 
ATOM     10  C   UNL     1       3.177   5.438  18.408  0.00  0.00    +0.000 A 
ATOM     11  N   UNL     1       3.015   4.151  18.758  0.00  0.00    +0.000 NA
ATOM     12  C   UNL     1       3.628   3.223  17.996  0.00  0.00    +0.000 A 
ATOM     13  C   UNL     1       4.408   3.528  16.896  0.00  0.00    +0.000 A 
ENDBRANCH   7   8
BRANCH   7  14
ATOM     14  O   UNL     1       5.255   4.227  14.314  0.00  0.00    +0.000 OA
ATOM     15  H   UNL     1       4.873   4.676  13.534  0.00  0.00    +0.000 HD
ENDBRANCH   7  14
ENDBRANCH   6   7
ENDBRANCH   4   6
ENDBRANCH   1   2
BRANCH   1  16
ATOM     16  C   UNL     1       8.145   8.286  18.019  0.00  0.00    +0.000 C 
BRANCH  16  17
ATOM     17  C   UNL     1       8.777   9.438  18.779  0.00  0.00    +0.000 C 
BRANCH  17  18
ATOM     18  C   UNL     1       8.872  10.658  17.870  0.00  0.00    +0.000 C 
BRANCH  18  19
ATOM     19  C   UNL     1      10.166  11.416  18.119  0.00  0.00    +0.000 C 
BRANCH  19  20
ATOM     20  C   UNL     1      10.616  11.244  19.564  0.00  0.00    +0.000 C 
BRANCH  20  21
ATOM     21  C   UNL     1      11.524  12.395  19.973  0.00  0.00    +0.000 C 
BRANCH  21  22
ATOM     22  C   UNL     1      12.256  12.953  18.762  0.00  0.00    +0.000 C 
BRANCH  22  23
ATOM     23  C   UNL     1      12.188  14.475  18.740  0.00  0.00    +0.000 C 
BRANCH  23  24
ATOM     24  C   UNL     1      11.201  14.936  17.672  0.00  0.00    +0.000 C 
BRANCH  24  25
ATOM     25  C   UNL     1      10.375  16.129  18.156  0.00  0.00    +0.000 C 
BRANCH  25  27
ATOM     26  C   UNL     1       8.432  14.721  18.184  0.00  0.00    +0.000 C 
ATOM     27  N   UNL     1       8.951  16.032  17.790  0.00  0.00    +0.000 NA
ATOM     28  C   UNL     1       8.145  17.088  18.405  0.00  0.00    +0.000 C 
ENDBRANCH  25  27
ENDBRANCH  24  25
ENDBRANCH  23  24
ENDBRANCH  22  23
ENDBRANCH  21  22
ENDBRANCH  20  21
ENDBRANCH  19  20
ENDBRANCH  18  19
ENDBRANCH  17  18
ENDBRANCH  16  17
ENDBRANCH   1  16
TORSDOF 16
ENDMDL
MODEL 2
REMARK VINA RESULT:      -6.0      2.101      3.113
REMARK  Name = 
REMARK  18 active torsions:
REMARK  status: ('A' for Active; 'I' for Inactive)
REMARK    1  A    between atoms: C_1  and  N_2
REMARK    2  A    between atoms: N_2  and  C_3
REMARK    3  A    between atoms: N_2  and  C_4
REMARK    4  A    between atoms: C_4  and  C_5
REMARK    5  A    between atoms: C_5  and  C_6
REMARK    6  A    between atoms: C_6  and  C_7
REMARK    7  A    between atoms: C_7  and  C_8
REMARK    8  A    between atoms: C_8  and  C_9
REMARK    9  A    between atoms: C_9  and  C_10
REMARK   10  A    between atoms: C_10  and  C_11
REMARK   11  A    between atoms: C_11  and  C_12
REMARK   12  A    between atoms: C_12  and  C_13
REMARK   13  A    between atoms: C_13  and  C_14
REMARK   14  A    between atoms: C_14  and  C_15
REMARK   15  A    between atoms: N_17  and  C_18
REMARK   16  A    between atoms: C_18  and  C_19
REMARK   17  A    between atoms: C_19  and  O_20
REMARK   18  A    between atoms: C_19  and  C_21
REMARK                            x       y       z     vdW  Elec       q    Type
REMARK                         _______ _______ _______ _____ _____    ______ ____
ROOT
ATOM      1  C   UNL     1       6.638   5.597  19.188  0.00  0.00    +0.000 C 
ENDROOT
BRANCH   1   2
ATOM      2  C   UNL     1       5.199   5.397  18.774  0.00  0.00    +0.000 C 
ATOM      3  O   UNL     1       4.258   5.892  19.391  0.00  0.00    +0.000 OA
ATOM      4  N   UNL     1       5.061   4.623  17.636  0.00  0.00    +0.000 N 
ATOM      5  H   UNL     1       5.812   3.981  17.405  0.00  0.00    +0.000 HD
BRANCH   4   6
ATOM      6  C   UNL     1       3.721   4.268  17.191  0.00  0.00    +0.000 C 
BRANCH   6   7
ATOM      7  C   UNL     1       3.200   2.891  17.652  0.00  0.00    +0.000 C 
BRANCH   7   8
ATOM      8  C   UNL     1       2.558   2.908  19.030  0.00  0.00    +0.000 A 
ATOM      9  C   UNL     1       3.242   2.592  20.212  0.00  0.00    +0.000 A 
ATOM     10  C   UNL     1       2.557   2.619  21.413  0.00  0.00    +0.000 A 
ATOM     11  N   UNL     1       1.252   2.927  21.512  0.00  0.00    +0.000 NA
ATOM     12  C   UNL     1       0.604   3.237  20.372  0.00  0.00    +0.000 A 
ATOM     13  C   UNL     1       1.205   3.246  19.126  0.00  0.00    +0.000 A 
ENDBRANCH   7   8
BRANCH   7  14
ATOM     14  O   UNL     1       4.298   1.961  17.641  0.00  0.00    +0.000 OA
ATOM     15  H   UNL     1       4.040   1.156  18.131  0.00  0.00    +0.000 HD
ENDBRANCH   7  14
ENDBRANCH   6   7
ENDBRANCH   4   6
ENDBRANCH   1   2
BRANCH   1  16
ATOM     16  C   UNL     1       7.454   6.049  17.984  0.00  0.00    +0.000 C 
BRANCH  16  17
ATOM     17  C   UNL     1       8.203   7.342  18.248  0.00  0.00    +0.000 C 
BRANCH  17  18
ATOM     18  C   UNL     1       7.519   8.488  17.511  0.00  0.00    +0.000 C 
BRANCH  18  19
ATOM     19  C   UNL     1       8.006   9.831  18.031  0.00  0.00    +0.000 C 
BRANCH  19  20
ATOM     20  C   UNL     1       9.167   9.640  18.997  0.00  0.00    +0.000 C 
BRANCH  20  21
ATOM     21  C   UNL     1       9.952  10.936  19.140  0.00  0.00    +0.000 C 
BRANCH  21  22
ATOM     22  C   UNL     1      10.786  11.194  17.893  0.00  0.00    +0.000 C 
BRANCH  22  23
ATOM     23  C   UNL     1      11.852  12.250  18.162  0.00  0.00    +0.000 C 
BRANCH  23  24
ATOM     24  C   UNL     1      11.793  13.333  17.089  0.00  0.00    +0.000 C 
BRANCH  24  25
ATOM     25  C   UNL     1      10.645  14.310  17.348  0.00  0.00    +0.000 C 
BRANCH  25  27
ATOM     26  C   UNL     1      12.333  15.990  17.633  0.00  0.00    +0.000 C 
ATOM     27  N   UNL     1      11.053  15.487  18.134  0.00  0.00    +0.000 NA
ATOM     28  C   UNL     1      10.053  16.555  18.098  0.00  0.00    +0.000 C 
ENDBRANCH  25  27
ENDBRANCH  24  25
ENDBRANCH  23  24
ENDBRANCH  22  23
ENDBRANCH  21  22
ENDBRANCH  20  21
ENDBRANCH  19  20
ENDBRANCH  18  19
ENDBRANCH  17  18
ENDBRANCH  16  17
ENDBRANCH   1  16
TORSDOF 16
ENDMDL
MODEL 3
REMARK VINA RESULT:      -6.0      6.224     10.300
REMARK  Name = 
REMARK  18 active torsions:
REMARK  status: ('A' for Active; 'I' for Inactive)
REMARK    1  A    between atoms: C_1  and  N_2
REMARK    2  A    between atoms: N_2  and  C_3
REMARK    3  A    between atoms: N_2  and  C_4
REMARK    4  A    between atoms: C_4  and  C_5
REMARK    5  A    between atoms: C_5  and  C_6
REMARK    6  A    between atoms: C_6  and  C_7
REMARK    7  A    between atoms: C_7  and  C_8
REMARK    8  A    between atoms: C_8  and  C_9
REMARK    9  A    between atoms: C_9  and  C_10
REMARK   10  A    between atoms: C_10  and  C_11
REMARK   11  A    between atoms: C_11  and  C_12
REMARK   12  A    between atoms: C_12  and  C_13
REMARK   13  A    between atoms: C_13  and  C_14
REMARK   14  A    between atoms: C_14  and  C_15
REMARK   15  A    between atoms: N_17  and  C_18
REMARK   16  A    between atoms: C_18  and  C_19
REMARK   17  A    between atoms: C_19  and  O_20
REMARK   18  A    between atoms: C_19  and  C_21
REMARK                            x       y       z     vdW  Elec       q    Type
REMARK                         _______ _______ _______ _____ _____    ______ ____
ROOT
ATOM      1  C   UNL     1       2.720   7.561  19.292  0.00  0.00    +0.000 C 
ENDROOT
BRANCH   1   2
ATOM      2  C   UNL     1       1.942   8.602  18.522  0.00  0.00    +0.000 C 
ATOM      3  O   UNL     1       2.071   8.762  17.310  0.00  0.00    +0.000 OA
ATOM      4  N   UNL     1       1.074   9.331  19.315  0.00  0.00    +0.000 N 
ATOM      5  H   UNL     1       1.276   9.393  20.307  0.00  0.00    +0.000 HD
BRANCH   4   6
ATOM      6  C   UNL     1       0.342  10.437  18.714  0.00  0.00    +0.000 C 
BRANCH   6   7
ATOM      7  C   UNL     1      -1.122  10.606  19.173  0.00  0.00    +0.000 C 
BRANCH   7   8
ATOM      8  C   UNL     1      -2.119  10.674  18.028  0.00  0.00    +0.000 A 
ATOM      9  C   UNL     1      -3.267  11.479  18.042  0.00  0.00    +0.000 A 
ATOM     10  C   UNL     1      -4.121  11.450  16.955  0.00  0.00    +0.000 A 
ATOM     11  N   UNL     1      -3.915  10.677  15.875  0.00  0.00    +0.000 NA
ATOM     12  C   UNL     1      -2.806   9.913  15.866  0.00  0.00    +0.000 A 
ATOM     13  C   UNL     1      -1.889   9.880  16.901  0.00  0.00    +0.000 A 
ENDBRANCH   7   8
BRANCH   7  14
ATOM     14  O   UNL     1      -1.214  11.801  19.969  0.00  0.00    +0.000 OA
ATOM     15  H   UNL     1      -1.816  12.433  19.528  0.00  0.00    +0.000 HD
ENDBRANCH   7  14
ENDBRANCH   6   7
ENDBRANCH   4   6
ENDBRANCH   1   2
BRANCH   1  16
ATOM     16  C   UNL     1       1.976   6.232  19.241  0.00  0.00    +0.000 C 
BRANCH  16  17
ATOM     17  C   UNL     1       1.736   5.654  20.624  0.00  0.00    +0.000 C 
BRANCH  17  18
ATOM     18  C   UNL     1       1.990   4.151  20.598  0.00  0.00    +0.000 C 
BRANCH  18  19
ATOM     19  C   UNL     1       0.731   3.399  20.197  0.00  0.00    +0.000 C 
BRANCH  19  20
ATOM     20  C   UNL     1       1.015   2.469  19.025  0.00  0.00    +0.000 C 
BRANCH  20  21
ATOM     21  C   UNL     1       1.784   3.209  17.940  0.00  0.00    +0.000 C 
BRANCH  21  22
ATOM     22  C   UNL     1       3.128   2.540  17.689  0.00  0.00    +0.000 C 
BRANCH  22  23
ATOM     23  C   UNL     1       4.273   3.522  17.912  0.00  0.00    +0.000 C 
BRANCH  23  24
ATOM     24  C   UNL     1       4.929   3.867  16.580  0.00  0.00    +0.000 C 
BRANCH  24  25
ATOM     25  C   UNL     1       4.993   5.381  16.368  0.00  0.00    +0.000 C 
BRANCH  25  27
ATOM     26  C   UNL     1       7.201   5.983  17.092  0.00  0.00    +0.000 C 
ATOM     27  N   UNL     1       6.320   5.847  15.929  0.00  0.00    +0.000 NA
ATOM     28  C   UNL     1       6.931   4.949  14.948  0.00  0.00    +0.000 C 
ENDBRANCH  25  27
ENDBRANCH  24  25
ENDBRANCH  23  24
ENDBRANCH  22  23
ENDBRANCH  21  22
ENDBRANCH  20  21
ENDBRANCH  19  20
ENDBRANCH  18  19
ENDBRANCH  17  18
ENDBRANCH  16  17
ENDBRANCH   1  16
TORSDOF 16
ENDMDL
MODEL 4
REMARK VINA RESULT:      -5.9      2.826      3.907
REMARK  Name = 
REMARK  18 active torsions:
REMARK  status: ('A' for Active; 'I' for Inactive)
REMARK    1  A    between atoms: C_1  and  N_2
REMARK    2  A    between atoms: N_2  and  C_3
REMARK    3  A    between atoms: N_2  and  C_4
REMARK    4  A    between atoms: C_4  and  C_5
REMARK    5  A    between atoms: C_5  and  C_6
REMARK    6  A    between atoms: C_6  and  C_7
REMARK    7  A    between atoms: C_7  and  C_8
REMARK    8  A    between atoms: C_8  and  C_9
REMARK    9  A    between atoms: C_9  and  C_10
REMARK   10  A    between atoms: C_10  and  C_11
REMARK   11  A    between atoms: C_11  and  C_12
REMARK   12  A    between atoms: C_12  and  C_13
REMARK   13  A    between atoms: C_13  and  C_14
REMARK   14  A    between atoms: C_14  and  C_15
REMARK   15  A    between atoms: N_17  and  C_18
REMARK   16  A    between atoms: C_18  and  C_19
REMARK   17  A    between atoms: C_19  and  O_20
REMARK   18  A    between atoms: C_19  and  C_21
REMARK                            x       y       z     vdW  Elec       q    Type
REMARK                         _______ _______ _______ _____ _____    ______ ____
ROOT
ATOM      1  C   UNL     1       5.944   6.144  18.040  0.00  0.00    +0.000 C 
ENDROOT
BRANCH   1   2
ATOM      2  C   UNL     1       5.433   4.909  17.336  0.00  0.00    +0.000 C 
ATOM      3  O   UNL     1       6.164   4.176  16.672  0.00  0.00    +0.000 OA
ATOM      4  N   UNL     1       4.081   4.690  17.531  0.00  0.00    +0.000 N 
ATOM      5  H   UNL     1       3.501   5.487  17.770  0.00  0.00    +0.000 HD
BRANCH   4   6
ATOM      6  C   UNL     1       3.443   3.591  16.820  0.00  0.00    +0.000 C 
BRANCH   6   7
ATOM      7  C   UNL     1       3.048   2.371  17.679  0.00  0.00    +0.000 C 
BRANCH   7   8
ATOM      8  C   UNL     1       2.490   2.738  19.045  0.00  0.00    +0.000 A 
ATOM      9  C   UNL     1       1.272   3.405  19.233  0.00  0.00    +0.000 A 
ATOM     10  C   UNL     1       0.865   3.711  20.520  0.00  0.00    +0.000 A 
ATOM     11  N   UNL     1       1.586   3.408  21.613  0.00  0.00    +0.000 NA
ATOM     12  C   UNL     1       2.752   2.760  21.423  0.00  0.00    +0.000 A 
ATOM     13  C   UNL     1       3.238   2.405  20.177  0.00  0.00    +0.000 A 
ENDBRANCH   7   8
BRANCH   7  14
ATOM     14  O   UNL     1       4.205   1.532  17.838  0.00  0.00    +0.000 OA
ATOM     15  H   UNL     1       4.344   1.020  17.016  0.00  0.00    +0.000 HD
ENDBRANCH   7  14
ENDBRANCH   6   7
ENDBRANCH   4   6
ENDBRANCH   1   2
BRANCH   1  16
ATOM     16  C   UNL     1       7.367   5.898  18.527  0.00  0.00    +0.000 C 
BRANCH  16  17
ATOM     17  C   UNL     1       8.182   7.177  18.594  0.00  0.00    +0.000 C 
BRANCH  17  18
ATOM     18  C   UNL     1       7.783   8.096  17.445  0.00  0.00    +0.000 C 
BRANCH  18  19
ATOM     19  C   UNL     1       7.934   9.555  17.844  0.00  0.00    +0.000 C 
BRANCH  19  20
ATOM     20  C   UNL     1       9.033   9.712  18.886  0.00  0.00    +0.000 C 
BRANCH  20  21
ATOM     21  C   UNL     1       9.845  10.969  18.610  0.00  0.00    +0.000 C 
BRANCH  21  22
ATOM     22  C   UNL     1      10.584  11.412  19.864  0.00  0.00    +0.000 C 
BRANCH  22  23
ATOM     23  C   UNL     1       9.626  11.538  21.043  0.00  0.00    +0.000 C 
BRANCH  23  24
ATOM     24  C   UNL     1       9.539  12.994  21.488  0.00  0.00    +0.000 C 
BRANCH  24  25
ATOM     25  C   UNL     1       8.745  13.131  22.789  0.00  0.00    +0.000 C 
BRANCH  25  27
ATOM     26  C   UNL     1       6.844  11.866  23.527  0.00  0.00    +0.000 C 
ATOM     27  N   UNL     1       7.299  12.913  22.610  0.00  0.00    +0.000 NA
ATOM     28  C   UNL     1       6.520  14.133  22.826  0.00  0.00    +0.000 C 
ENDBRANCH  25  27
ENDBRANCH  24  25
ENDBRANCH  23  24
ENDBRANCH  22  23
ENDBRANCH  21  22
ENDBRANCH  20  21
ENDBRANCH  19  20
ENDBRANCH  18  19
ENDBRANCH  17  18
ENDBRANCH  16  17
ENDBRANCH   1  16
TORSDOF 16
ENDMDL
MODEL 5
REMARK VINA RESULT:      -5.9      2.082      4.261
REMARK  Name = 
REMARK  18 active torsions:
REMARK  status: ('A' for Active; 'I' for Inactive)
REMARK    1  A    between atoms: C_1  and  N_2
REMARK    2  A    between atoms: N_2  and  C_3
REMARK    3  A    between atoms: N_2  and  C_4
REMARK    4  A    between atoms: C_4  and  C_5
REMARK    5  A    between atoms: C_5  and  C_6
REMARK    6  A    between atoms: C_6  and  C_7
REMARK    7  A    between atoms: C_7  and  C_8
REMARK    8  A    between atoms: C_8  and  C_9
REMARK    9  A    between atoms: C_9  and  C_10
REMARK   10  A    between atoms: C_10  and  C_11
REMARK   11  A    between atoms: C_11  and  C_12
REMARK   12  A    between atoms: C_12  and  C_13
REMARK   13  A    between atoms: C_13  and  C_14
REMARK   14  A    between atoms: C_14  and  C_15
REMARK   15  A    between atoms: N_17  and  C_18
REMARK   16  A    between atoms: C_18  and  C_19
REMARK   17  A    between atoms: C_19  and  O_20
REMARK   18  A    between atoms: C_19  and  C_21
REMARK                            x       y       z     vdW  Elec       q    Type
REMARK                         _______ _______ _______ _____ _____    ______ ____
ROOT
ATOM      1  C   UNL     1       5.134   3.872  15.602  0.00  0.00    +0.000 C 
ENDROOT
BRANCH   1   2
ATOM      2  C   UNL     1       4.076   3.427  16.585  0.00  0.00    +0.000 C 
ATOM      3  O   UNL     1       2.996   4.004  16.701  0.00  0.00    +0.000 OA
ATOM      4  N   UNL     1       4.444   2.311  17.315  0.00  0.00    +0.000 N 
ATOM      5  H   UNL     1       5.434   2.120  17.423  0.00  0.00    +0.000 HD
BRANCH   4   6
ATOM      6  C   UNL     1       3.556   1.844  18.370  0.00  0.00    +0.000 C 
BRANCH   6   7
ATOM      7  C   UNL     1       3.802   2.441  19.772  0.00  0.00    +0.000 C 
BRANCH   7   8
ATOM      8  C   UNL     1       3.073   3.753  20.015  0.00  0.00    +0.000 A 
ATOM      9  C   UNL     1       1.752   3.835  20.475  0.00  0.00    +0.000 A 
ATOM     10  C   UNL     1       1.174   5.081  20.643  0.00  0.00    +0.000 A 
ATOM     11  N   UNL     1       1.815   6.232  20.378  0.00  0.00    +0.000 NA
ATOM     12  C   UNL     1       3.088   6.144  19.944  0.00  0.00    +0.000 A 
ATOM     13  C   UNL     1       3.752   4.946  19.753  0.00  0.00    +0.000 A 
ENDBRANCH   7   8
BRANCH   7  14
ATOM     14  O   UNL     1       5.217   2.633  19.944  0.00  0.00    +0.000 OA
ATOM     15  H   UNL     1       5.693   1.881  19.540  0.00  0.00    +0.000 HD
ENDBRANCH   7  14
ENDBRANCH   6   7
ENDBRANCH   4   6
ENDBRANCH   1   2
BRANCH   1  16
ATOM     16  C   UNL     1       5.446   5.346  15.826  0.00  0.00    +0.000 C 
BRANCH  16  17
ATOM     17  C   UNL     1       6.516   5.553  16.884  0.00  0.00    +0.000 C 
BRANCH  17  18
ATOM     18  C   UNL     1       6.454   6.988  17.396  0.00  0.00    +0.000 C 
BRANCH  18  19
ATOM     19  C   UNL     1       7.828   7.458  17.844  0.00  0.00    +0.000 C 
BRANCH  19  20
ATOM     20  C   UNL     1       7.949   8.969  17.698  0.00  0.00    +0.000 C 
BRANCH  20  21
ATOM     21  C   UNL     1       8.788   9.542  18.832  0.00  0.00    +0.000 C 
BRANCH  21  22
ATOM     22  C   UNL     1       9.534  10.785  18.367  0.00  0.00    +0.000 C 
BRANCH  22  23
ATOM     23  C   UNL     1      10.488  11.280  19.447  0.00  0.00    +0.000 C 
BRANCH  23  24
ATOM     24  C   UNL     1      11.616  12.088  18.813  0.00  0.00    +0.000 C 
BRANCH  24  25
ATOM     25  C   UNL     1      11.326  13.588  18.871  0.00  0.00    +0.000 C 
BRANCH  25  27
ATOM     26  C   UNL     1      12.333  13.406  16.700  0.00  0.00    +0.000 C 
ATOM     27  N   UNL     1      11.932  14.338  17.757  0.00  0.00    +0.000 NA
ATOM     28  C   UNL     1      11.028  15.349  17.208  0.00  0.00    +0.000 C 
ENDBRANCH  25  27
ENDBRANCH  24  25
ENDBRANCH  23  24
ENDBRANCH  22  23
ENDBRANCH  21  22
ENDBRANCH  20  21
ENDBRANCH  19  20
ENDBRANCH  18  19
ENDBRANCH  17  18
ENDBRANCH  16  17
ENDBRANCH   1  16
TORSDOF 16
ENDMDL
MODEL 6
REMARK VINA RESULT:      -5.8      6.203     10.331
REMARK  Name = 
REMARK  18 active torsions:
REMARK  status: ('A' for Active; 'I' for Inactive)
REMARK    1  A    between atoms: C_1  and  N_2
REMARK    2  A    between atoms: N_2  and  C_3
REMARK    3  A    between atoms: N_2  and  C_4
REMARK    4  A    between atoms: C_4  and  C_5
REMARK    5  A    between atoms: C_5  and  C_6
REMARK    6  A    between atoms: C_6  and  C_7
REMARK    7  A    between atoms: C_7  and  C_8
REMARK    8  A    between atoms: C_8  and  C_9
REMARK    9  A    between atoms: C_9  and  C_10
REMARK   10  A    between atoms: C_10  and  C_11
REMARK   11  A    between atoms: C_11  and  C_12
REMARK   12  A    between atoms: C_12  and  C_13
REMARK   13  A    between atoms: C_13  and  C_14
REMARK   14  A    between atoms: C_14  and  C_15
REMARK   15  A    between atoms: N_17  and  C_18
REMARK   16  A    between atoms: C_18  and  C_19
REMARK   17  A    between atoms: C_19  and  O_20
REMARK   18  A    between atoms: C_19  and  C_21
REMARK                            x       y       z     vdW  Elec       q    Type
REMARK                         _______ _______ _______ _____ _____    ______ ____
ROOT
ATOM      1  C   UNL     1       2.142   7.677  20.162  0.00  0.00    +0.000 C 
ENDROOT
BRANCH   1   2
ATOM      2  C   UNL     1       1.340   8.949  20.015  0.00  0.00    +0.000 C 
ATOM      3  O   UNL     1       0.954   9.603  20.982  0.00  0.00    +0.000 OA
ATOM      4  N   UNL     1       1.105   9.297  18.697  0.00  0.00    +0.000 N 
ATOM      5  H   UNL     1       1.133   8.561  18.000  0.00  0.00    +0.000 HD
BRANCH   4   6
ATOM      6  C   UNL     1       0.254  10.445  18.420  0.00  0.00    +0.000 C 
BRANCH   6   7
ATOM      7  C   UNL     1      -1.208  10.334  18.901  0.00  0.00    +0.000 C 
BRANCH   7   8
ATOM      8  C   UNL     1      -2.233  10.500  17.791  0.00  0.00    +0.000 A 
ATOM      9  C   UNL     1      -2.190   9.796  16.580  0.00  0.00    +0.000 A 
ATOM     10  C   UNL     1      -3.162  10.039  15.626  0.00  0.00    +0.000 A 
ATOM     11  N   UNL     1      -4.154  10.931  15.794  0.00  0.00    +0.000 NA
ATOM     12  C   UNL     1      -4.192  11.597  16.964  0.00  0.00    +0.000 A 
ATOM     13  C   UNL     1      -3.271  11.418  17.980  0.00  0.00    +0.000 A 
ENDBRANCH   7   8
BRANCH   7  14
ATOM     14  O   UNL     1      -1.429  11.326  19.919  0.00  0.00    +0.000 OA
ATOM     15  H   UNL     1      -0.598  11.466  20.414  0.00  0.00    +0.000 HD
ENDBRANCH   7  14
ENDBRANCH   6   7
ENDBRANCH   4   6
ENDBRANCH   1   2
BRANCH   1  16
ATOM     16  C   UNL     1       2.327   7.033  18.794  0.00  0.00    +0.000 C 
BRANCH  16  17
ATOM     17  C   UNL     1       1.961   5.560  18.797  0.00  0.00    +0.000 C 
BRANCH  17  18
ATOM     18  C   UNL     1       1.676   5.109  20.225  0.00  0.00    +0.000 C 
BRANCH  18  19
ATOM     19  C   UNL     1       0.891   3.807  20.231  0.00  0.00    +0.000 C 
BRANCH  19  20
ATOM     20  C   UNL     1       1.835   2.614  20.282  0.00  0.00    +0.000 C 
BRANCH  20  21
ATOM     21  C   UNL     1       1.997   2.011  18.894  0.00  0.00    +0.000 C 
BRANCH  21  22
ATOM     22  C   UNL     1       3.469   1.797  18.575  0.00  0.00    +0.000 C 
BRANCH  22  23
ATOM     23  C   UNL     1       4.337   2.813  19.307  0.00  0.00    +0.000 C 
BRANCH  23  24
ATOM     24  C   UNL     1       4.924   3.809  18.312  0.00  0.00    +0.000 C 
BRANCH  24  25
ATOM     25  C   UNL     1       5.797   4.849  19.015  0.00  0.00    +0.000 C 
BRANCH  25  27
ATOM     26  C   UNL     1       5.894   6.574  17.350  0.00  0.00    +0.000 C 
ATOM     27  N   UNL     1       6.678   5.585  18.092  0.00  0.00    +0.000 NA
ATOM     28  C   UNL     1       7.783   6.248  18.785  0.00  0.00    +0.000 C 
ENDBRANCH  25  27
ENDBRANCH  24  25
ENDBRANCH  23  24
ENDBRANCH  22  23
ENDBRANCH  21  22
ENDBRANCH  20  21
ENDBRANCH  19  20
ENDBRANCH  18  19
ENDBRANCH  17  18
ENDBRANCH  16  17
ENDBRANCH   1  16
TORSDOF 16
ENDMDL
MODEL 7
REMARK VINA RESULT:      -5.8      6.271      8.061
REMARK  Name = 
REMARK  18 active torsions:
REMARK  status: ('A' for Active; 'I' for Inactive)
REMARK    1  A    between atoms: C_1  and  N_2
REMARK    2  A    between atoms: N_2  and  C_3
REMARK    3  A    between atoms: N_2  and  C_4
REMARK    4  A    between atoms: C_4  and  C_5
REMARK    5  A    between atoms: C_5  and  C_6
REMARK    6  A    between atoms: C_6  and  C_7
REMARK    7  A    between atoms: C_7  and  C_8
REMARK    8  A    between atoms: C_8  and  C_9
REMARK    9  A    between atoms: C_9  and  C_10
REMARK   10  A    between atoms: C_10  and  C_11
REMARK   11  A    between atoms: C_11  and  C_12
REMARK   12  A    between atoms: C_12  and  C_13
REMARK   13  A    between atoms: C_13  and  C_14
REMARK   14  A    between atoms: C_14  and  C_15
REMARK   15  A    between atoms: N_17  and  C_18
REMARK   16  A    between atoms: C_18  and  C_19
REMARK   17  A    between atoms: C_19  and  O_20
REMARK   18  A    between atoms: C_19  and  C_21
REMARK                            x       y       z     vdW  Elec       q    Type
REMARK                         _______ _______ _______ _____ _____    ______ ____
ROOT
ATOM      1  C   UNL     1       4.668   3.374  19.449  0.00  0.00    +0.000 C 
ENDROOT
BRANCH   1   2
ATOM      2  C   UNL     1       4.824   3.970  18.070  0.00  0.00    +0.000 C 
ATOM      3  O   UNL     1       4.283   3.489  17.076  0.00  0.00    +0.000 OA
ATOM      4  N   UNL     1       5.614   5.106  18.052  0.00  0.00    +0.000 N 
ATOM      5  H   UNL     1       6.288   5.226  18.801  0.00  0.00    +0.000 HD
BRANCH   4   6
ATOM      6  C   UNL     1       5.929   5.717  16.769  0.00  0.00    +0.000 C 
BRANCH   6   7
ATOM      7  C   UNL     1       7.222   5.224  16.086  0.00  0.00    +0.000 C 
BRANCH   7   8
ATOM      8  C   UNL     1       7.023   4.781  14.645  0.00  0.00    +0.000 A 
ATOM      9  C   UNL     1       6.129   3.774  14.257  0.00  0.00    +0.000 A 
ATOM     10  C   UNL     1       6.041   3.432  12.920  0.00  0.00    +0.000 A 
ATOM     11  N   UNL     1       6.780   4.014  11.959  0.00  0.00    +0.000 NA
ATOM     12  C   UNL     1       7.631   4.987  12.340  0.00  0.00    +0.000 A 
ATOM     13  C   UNL     1       7.784   5.402  13.651  0.00  0.00    +0.000 A 
ENDBRANCH   7   8
BRANCH   7  14
ATOM     14  O   UNL     1       7.759   4.135  16.859  0.00  0.00    +0.000 OA
ATOM     15  H   UNL     1       8.532   3.762  16.391  0.00  0.00    +0.000 HD
ENDBRANCH   7  14
ENDBRANCH   6   7
ENDBRANCH   4   6
ENDBRANCH   1   2
BRANCH   1  16
ATOM     16  C   UNL     1       3.369   2.581  19.515  0.00  0.00    +0.000 C 
BRANCH  16  17
ATOM     17  C   UNL     1       2.411   3.131  20.556  0.00  0.00    +0.000 C 
BRANCH  17  18
ATOM     18  C   UNL     1       1.580   4.252  19.943  0.00  0.00    +0.000 C 
BRANCH  18  19
ATOM     19  C   UNL     1       1.797   5.556  20.695  0.00  0.00    +0.000 C 
BRANCH  19  20
ATOM     20  C   UNL     1       2.527   6.563  19.818  0.00  0.00    +0.000 C 
BRANCH  20  21
ATOM     21  C   UNL     1       2.199   6.320  18.351  0.00  0.00    +0.000 C 
BRANCH  21  22
ATOM     22  C   UNL     1       1.629   7.581  17.717  0.00  0.00    +0.000 C 
BRANCH  22  23
ATOM     23  C   UNL     1       2.596   8.749  17.867  0.00  0.00    +0.000 C 
BRANCH  23  24
ATOM     24  C   UNL     1       1.818  10.050  18.035  0.00  0.00    +0.000 C 
BRANCH  24  25
ATOM     25  C   UNL     1       0.584   9.850  18.916  0.00  0.00    +0.000 C 
BRANCH  25  27
ATOM     26  C   UNL     1       0.855  11.242  20.853  0.00  0.00    +0.000 C 
ATOM     27  N   UNL     1       0.893   9.864  20.356  0.00  0.00    +0.000 NA
ATOM     28  C   UNL     1      -0.028   9.033  21.133  0.00  0.00    +0.000 C 
ENDBRANCH  25  27
ENDBRANCH  24  25
ENDBRANCH  23  24
ENDBRANCH  22  23
ENDBRANCH  21  22
ENDBRANCH  20  21
ENDBRANCH  19  20
ENDBRANCH  18  19
ENDBRANCH  17  18
ENDBRANCH  16  17
ENDBRANCH   1  16
TORSDOF 16
ENDMDL
MODEL 8
REMARK VINA RESULT:      -5.8      5.941     10.013
REMARK  Name = 
REMARK  18 active torsions:
REMARK  status: ('A' for Active; 'I' for Inactive)
REMARK    1  A    between atoms: C_1  and  N_2
REMARK    2  A    between atoms: N_2  and  C_3
REMARK    3  A    between atoms: N_2  and  C_4
REMARK    4  A    between atoms: C_4  and  C_5
REMARK    5  A    between atoms: C_5  and  C_6
REMARK    6  A    between atoms: C_6  and  C_7
REMARK    7  A    between atoms: C_7  and  C_8
REMARK    8  A    between atoms: C_8  and  C_9
REMARK    9  A    between atoms: C_9  and  C_10
REMARK   10  A    between atoms: C_10  and  C_11
REMARK   11  A    between atoms: C_11  and  C_12
REMARK   12  A    between atoms: C_12  and  C_13
REMARK   13  A    between atoms: C_13  and  C_14
REMARK   14  A    between atoms: C_14  and  C_15
REMARK   15  A    between atoms: N_17  and  C_18
REMARK   16  A    between atoms: C_18  and  C_19
REMARK   17  A    between atoms: C_19  and  O_20
REMARK   18  A    between atoms: C_19  and  C_21
REMARK                            x       y       z     vdW  Elec       q    Type
REMARK                         _______ _______ _______ _____ _____    ______ ____
ROOT
ATOM      1  C   UNL     1       2.338   6.411  18.371  0.00  0.00    +0.000 C 
ENDROOT
BRANCH   1   2
ATOM      2  C   UNL     1       2.259   7.895  18.099  0.00  0.00    +0.000 C 
ATOM      3  O   UNL     1       3.226   8.548  17.710  0.00  0.00    +0.000 OA
ATOM      4  N   UNL     1       0.999   8.424  18.315  0.00  0.00    +0.000 N 
ATOM      5  H   UNL     1       0.381   7.931  18.950  0.00  0.00    +0.000 HD
BRANCH   4   6
ATOM      6  C   UNL     1       0.816   9.863  18.190  0.00  0.00    +0.000 C 
BRANCH   6   7
ATOM      7  C   UNL     1      -0.352  10.467  18.998  0.00  0.00    +0.000 C 
BRANCH   7   8
ATOM      8  C   UNL     1      -1.629  10.642  18.191  0.00  0.00    +0.000 A 
ATOM      9  C   UNL     1      -2.671  11.504  18.561  0.00  0.00    +0.000 A 
ATOM     10  C   UNL     1      -3.801  11.573  17.766  0.00  0.00    +0.000 A 
ATOM     11  N   UNL     1      -3.961  10.844  16.648  0.00  0.00    +0.000 NA
ATOM     12  C   UNL     1      -2.952  10.025  16.296  0.00  0.00    +0.000 A 
ATOM     13  C   UNL     1      -1.781   9.894  17.021  0.00  0.00    +0.000 A 
ENDBRANCH   7   8
BRANCH   7  14
ATOM     14  O   UNL     1       0.068  11.738  19.524  0.00  0.00    +0.000 OA
ATOM     15  H   UNL     1       0.996  11.900  19.265  0.00  0.00    +0.000 HD
ENDBRANCH   7  14
ENDBRANCH   6   7
ENDBRANCH   4   6
ENDBRANCH   1   2
BRANCH   1  16
ATOM     16  C   UNL     1       2.977   6.179  19.735  0.00  0.00    +0.000 C 
BRANCH  16  17
ATOM     17  C   UNL     1       2.051   5.444  20.687  0.00  0.00    +0.000 C 
BRANCH  17  18
ATOM     18  C   UNL     1       1.069   4.594  19.888  0.00  0.00    +0.000 C 
BRANCH  18  19
ATOM     19  C   UNL     1       1.182   3.129  20.281  0.00  0.00    +0.000 C 
BRANCH  19  20
ATOM     20  C   UNL     1       2.407   2.496  19.635  0.00  0.00    +0.000 C 
BRANCH  20  21
ATOM     21  C   UNL     1       2.094   2.087  18.203  0.00  0.00    +0.000 C 
BRANCH  21  22
ATOM     22  C   UNL     1       2.767   3.034  17.220  0.00  0.00    +0.000 C 
BRANCH  22  23
ATOM     23  C   UNL     1       4.191   3.352  17.660  0.00  0.00    +0.000 C 
BRANCH  23  24
ATOM     24  C   UNL     1       4.987   3.909  16.484  0.00  0.00    +0.000 C 
BRANCH  24  25
ATOM     25  C   UNL     1       6.283   4.572  16.954  0.00  0.00    +0.000 C 
BRANCH  25  27
ATOM     26  C   UNL     1       6.844   5.535  19.079  0.00  0.00    +0.000 C 
ATOM     27  N   UNL     1       6.054   5.712  17.859  0.00  0.00    +0.000 NA
ATOM     28  C   UNL     1       6.387   6.993  17.236  0.00  0.00    +0.000 C 
ENDBRANCH  25  27
ENDBRANCH  24  25
ENDBRANCH  23  24
ENDBRANCH  22  23
ENDBRANCH  21  22
ENDBRANCH  20  21
ENDBRANCH  19  20
ENDBRANCH  18  19
ENDBRANCH  17  18
ENDBRANCH  16  17
ENDBRANCH   1  16
TORSDOF 16
ENDMDL
MODEL 9
REMARK VINA RESULT:      -5.7      6.199     10.320
REMARK  Name = 
REMARK  18 active torsions:
REMARK  status: ('A' for Active; 'I' for Inactive)
REMARK    1  A    between atoms: C_1  and  N_2
REMARK    2  A    between atoms: N_2  and  C_3
REMARK    3  A    between atoms: N_2  and  C_4
REMARK    4  A    between atoms: C_4  and  C_5
REMARK    5  A    between atoms: C_5  and  C_6
REMARK    6  A    between atoms: C_6  and  C_7
REMARK    7  A    between atoms: C_7  and  C_8
REMARK    8  A    between atoms: C_8  and  C_9
REMARK    9  A    between atoms: C_9  and  C_10
REMARK   10  A    between atoms: C_10  and  C_11
REMARK   11  A    between atoms: C_11  and  C_12
REMARK   12  A    between atoms: C_12  and  C_13
REMARK   13  A    between atoms: C_13  and  C_14
REMARK   14  A    between atoms: C_14  and  C_15
REMARK   15  A    between atoms: N_17  and  C_18
REMARK   16  A    between atoms: C_18  and  C_19
REMARK   17  A    between atoms: C_19  and  O_20
REMARK   18  A    between atoms: C_19  and  C_21
REMARK                            x       y       z     vdW  Elec       q    Type
REMARK                         _______ _______ _______ _____ _____    ______ ____
ROOT
ATOM      1  C   UNL     1       1.349   7.919  21.364  0.00  0.00    +0.000 C 
ENDROOT
BRANCH   1   2
ATOM      2  C   UNL     1       0.721   9.286  21.506  0.00  0.00    +0.000 C 
ATOM      3  O   UNL     1       0.092   9.624  22.506  0.00  0.00    +0.000 OA
ATOM      4  N   UNL     1       0.944  10.105  20.413  0.00  0.00    +0.000 N 
ATOM      5  H   UNL     1       1.144   9.662  19.523  0.00  0.00    +0.000 HD
BRANCH   4   6
ATOM      6  C   UNL     1       0.304  11.412  20.379  0.00  0.00    +0.000 C 
BRANCH   6   7
ATOM      7  C   UNL     1      -0.100  11.929  18.982  0.00  0.00    +0.000 C 
BRANCH   7   8
ATOM      8  C   UNL     1      -1.451  11.417  18.507  0.00  0.00    +0.000 A 
ATOM      9  C   UNL     1      -2.671  12.023  18.835  0.00  0.00    +0.000 A 
ATOM     10  C   UNL     1      -3.847  11.463  18.367  0.00  0.00    +0.000 A 
ATOM     11  N   UNL     1      -3.885  10.352  17.612  0.00  0.00    +0.000 NA
ATOM     12  C   UNL     1      -2.707   9.781  17.295  0.00  0.00    +0.000 A 
ATOM     13  C   UNL     1      -1.481  10.271  17.708  0.00  0.00    +0.000 A 
ENDBRANCH   7   8
BRANCH   7  14
ATOM     14  O   UNL     1       0.921  11.548  18.042  0.00  0.00    +0.000 OA
ATOM     15  H   UNL     1       0.933  10.574  17.961  0.00  0.00    +0.000 HD
ENDBRANCH   7  14
ENDBRANCH   6   7
ENDBRANCH   4   6
ENDBRANCH   1   2
BRANCH   1  16
ATOM     16  C   UNL     1       1.895   7.756  19.952  0.00  0.00    +0.000 C 
BRANCH  16  17
ATOM     17  C   UNL     1       2.388   6.345  19.685  0.00  0.00    +0.000 C 
BRANCH  17  18
ATOM     18  C   UNL     1       1.797   5.395  20.720  0.00  0.00    +0.000 C 
BRANCH  18  19
ATOM     19  C   UNL     1       0.967   4.313  20.047  0.00  0.00    +0.000 C 
BRANCH  19  20
ATOM     20  C   UNL     1       1.668   2.965  20.142  0.00  0.00    +0.000 C 
BRANCH  20  21
ATOM     21  C   UNL     1       1.758   2.320  18.766  0.00  0.00    +0.000 C 
BRANCH  21  22
ATOM     22  C   UNL     1       2.280   3.317  17.742  0.00  0.00    +0.000 C 
BRANCH  22  23
ATOM     23  C   UNL     1       3.744   3.045  17.417  0.00  0.00    +0.000 C 
BRANCH  23  24
ATOM     24  C   UNL     1       4.642   3.873  18.331  0.00  0.00    +0.000 C 
BRANCH  24  25
ATOM     25  C   UNL     1       5.772   4.540  17.545  0.00  0.00    +0.000 C 
BRANCH  25  27
ATOM     26  C   UNL     1       6.953   6.625  17.668  0.00  0.00    +0.000 C 
ATOM     27  N   UNL     1       5.640   6.005  17.474  0.00  0.00    +0.000 NA
ATOM     28  C   UNL     1       5.064   6.452  16.205  0.00  0.00    +0.000 C 
ENDBRANCH  25  27
ENDBRANCH  24  25
ENDBRANCH  23  24
ENDBRANCH  22  23
ENDBRANCH  21  22
ENDBRANCH  20  21
ENDBRANCH  19  20
ENDBRANCH  18  19
ENDBRANCH  17  18
ENDBRANCH  16  17
ENDBRANCH   1  16
TORSDOF 16
ENDMDL
