MODEL 1
REMARK VINA RESULT:      -8.2      0.000      0.000
REMARK  Name = 
REMARK  5 active torsions:
REMARK  status: ('A' for Active; 'I' for Inactive)
REMARK    1  A    between atoms: C_1  and  C_2
REMARK    2  A    between atoms: C_5  and  N_6
REMARK    3  A    between atoms: C_7  and  C_9
REMARK    4  A    between atoms: N_12  and  S_13
REMARK    5  A    between atoms: S_13  and  C_16
REMARK                            x       y       z     vdW  Elec       q    Type
REMARK                         _______ _______ _______ _____ _____    ______ ____
ROOT
ATOM      1  C   UNL     1       7.532   6.260  17.873  0.00  0.00    +0.000 C 
ATOM      2  C   UNL     1       7.054   5.691  19.221  0.00  0.00    +0.000 C 
ATOM      3  C   UNL     1       5.556   5.375  19.236  0.00  0.00    +0.000 C 
ATOM      4  N   UNL     1       4.745   6.569  18.844  0.00  0.00    +0.000 NA
ATOM      5  C   UNL     1       5.191   7.151  17.538  0.00  0.00    +0.000 C 
ATOM      6  C   UNL     1       6.683   7.490  17.556  0.00  0.00    +0.000 C 
ENDROOT
BRANCH   1   8
ATOM      7  N   UNL     1       6.928   5.682  15.558  0.00  0.00    +0.000 N 
ATOM      8  C   UNL     1       7.480   5.219  16.747  0.00  0.00    +0.000 C 
ATOM      9  O   UNL     1       7.935   4.092  16.917  0.00  0.00    +0.000 OA
ATOM     10  H   UNL     1       6.832   6.684  15.439  0.00  0.00    +0.000 HD
BRANCH   7  15
ATOM     11  C   UNL     1       5.657   2.427  10.996  0.00  0.00    +0.000 C 
ATOM     12  C   UNL     1       5.998   3.267  12.191  0.00  0.00    +0.000 A 
ATOM     13  C   UNL     1       7.178   4.012  12.219  0.00  0.00    +0.000 A 
ATOM     14  C   UNL     1       7.493   4.809  13.323  0.00  0.00    +0.000 A 
ATOM     15  C   UNL     1       6.636   4.883  14.426  0.00  0.00    +0.000 A 
ATOM     16  C   UNL     1       5.467   4.114  14.413  0.00  0.00    +0.000 A 
ATOM     17  C   UNL     1       5.144   3.322  13.300  0.00  0.00    +0.000 A 
ENDBRANCH   7  15
ENDBRANCH   1   8
BRANCH   4  18
ATOM     18  S   UNL     1       3.033   6.249  18.829  0.00  0.00    +0.000 S 
ATOM     19  O   UNL     1       2.471   6.645  20.107  0.00  0.00    +0.000 OA
ATOM     20  O   UNL     1       2.513   6.830  17.606  0.00  0.00    +0.000 OA
BRANCH  18  21
ATOM     21  C   UNL     1       2.886   4.484  18.698  0.00  0.00    +0.000 A 
ATOM     22  C   UNL     1       3.024   3.896  17.428  0.00  0.00    +0.000 A 
ATOM     23  C   UNL     1       2.903   2.513  17.270  0.00  0.00    +0.000 A 
ATOM     24  C   UNL     1       2.656   1.708  18.377  0.00  0.00    +0.000 A 
ATOM     25  C   UNL     1       2.486   2.292  19.634  0.00  0.00    +0.000 A 
ATOM     26  C   UNL     1       2.577   3.683  19.799  0.00  0.00    +0.000 A 
ATOM     27 CL   UNL     1       2.270   4.292  21.384  0.00  0.00    +0.000 Cl
ENDBRANCH  18  21
ENDBRANCH   4  18
TORSDOF 4
ENDMDL
MODEL 2
REMARK VINA RESULT:      -8.0      1.082      1.572
REMARK  Name = 
REMARK  5 active torsions:
REMARK  status: ('A' for Active; 'I' for Inactive)
REMARK    1  A    between atoms: C_1  and  C_2
REMARK    2  A    between atoms: C_5  and  N_6
REMARK    3  A    between atoms: C_7  and  C_9
REMARK    4  A    between atoms: N_12  and  S_13
REMARK    5  A    between atoms: S_13  and  C_16
REMARK                            x       y       z     vdW  Elec       q    Type
REMARK                         _______ _______ _______ _____ _____    ______ ____
ROOT
ATOM      1  C   UNL     1       7.507   6.206  17.940  0.00  0.00    +0.000 C 
ATOM      2  C   UNL     1       6.974   5.626  19.262  0.00  0.00    +0.000 C 
ATOM      3  C   UNL     1       5.468   5.347  19.225  0.00  0.00    +0.000 C 
ATOM      4  N   UNL     1       4.699   6.567  18.829  0.00  0.00    +0.000 NA
ATOM      5  C   UNL     1       5.200   7.160  17.548  0.00  0.00    +0.000 C 
ATOM      6  C   UNL     1       6.698   7.462  17.618  0.00  0.00    +0.000 C 
ENDROOT
BRANCH   1   8
ATOM      7  N   UNL     1       6.920   5.669  15.611  0.00  0.00    +0.000 N 
ATOM      8  C   UNL     1       7.465   5.185  16.795  0.00  0.00    +0.000 C 
ATOM      9  O   UNL     1       7.923   4.057  16.947  0.00  0.00    +0.000 OA
ATOM     10  H   UNL     1       6.822   6.672  15.509  0.00  0.00    +0.000 HD
BRANCH   7  15
ATOM     11  C   UNL     1       5.687   2.496  10.981  0.00  0.00    +0.000 C 
ATOM     12  C   UNL     1       6.018   3.315  12.193  0.00  0.00    +0.000 A 
ATOM     13  C   UNL     1       7.201   4.052  12.248  0.00  0.00    +0.000 A 
ATOM     14  C   UNL     1       7.508   4.830  13.368  0.00  0.00    +0.000 A 
ATOM     15  C   UNL     1       6.637   4.890  14.462  0.00  0.00    +0.000 A 
ATOM     16  C   UNL     1       5.465   4.128  14.422  0.00  0.00    +0.000 A 
ATOM     17  C   UNL     1       5.151   3.356  13.293  0.00  0.00    +0.000 A 
ENDBRANCH   7  15
ENDBRANCH   1   8
BRANCH   4  18
ATOM     18  S   UNL     1       2.982   6.290  18.755  0.00  0.00    +0.000 S 
ATOM     19  O   UNL     1       2.307   7.326  19.515  0.00  0.00    +0.000 OA
ATOM     20  O   UNL     1       2.652   6.098  17.357  0.00  0.00    +0.000 OA
BRANCH  18  21
ATOM     21  C   UNL     1       2.718   4.746  19.593  0.00  0.00    +0.000 A 
ATOM     22  C   UNL     1       2.375   4.778  20.957  0.00  0.00    +0.000 A 
ATOM     23  C   UNL     1       2.170   3.591  21.664  0.00  0.00    +0.000 A 
ATOM     24  C   UNL     1       2.293   2.367  21.014  0.00  0.00    +0.000 A 
ATOM     25  C   UNL     1       2.663   2.331  19.668  0.00  0.00    +0.000 A 
ATOM     26  C   UNL     1       2.900   3.517  18.955  0.00  0.00    +0.000 A 
ATOM     27 CL   UNL     1       3.430   3.342  17.323  0.00  0.00    +0.000 Cl
ENDBRANCH  18  21
ENDBRANCH   4  18
TORSDOF 4
ENDMDL
MODEL 3
REMARK VINA RESULT:      -8.0      3.045      5.701
REMARK  Name = 
REMARK  5 active torsions:
REMARK  status: ('A' for Active; 'I' for Inactive)
REMARK    1  A    between atoms: C_1  and  C_2
REMARK    2  A    between atoms: C_5  and  N_6
REMARK    3  A    between atoms: C_7  and  C_9
REMARK    4  A    between atoms: N_12  and  S_13
REMARK    5  A    between atoms: S_13  and  C_16
REMARK                            x       y       z     vdW  Elec       q    Type
REMARK                         _______ _______ _______ _____ _____    ______ ____
ROOT
ATOM      1  C   UNL     1       7.964   5.679  18.585  0.00  0.00    +0.000 C 
ATOM      2  C   UNL     1       7.657   4.697  17.441  0.00  0.00    +0.000 C 
ATOM      3  C   UNL     1       6.211   4.796  16.944  0.00  0.00    +0.000 C 
ATOM      4  N   UNL     1       5.238   4.629  18.067  0.00  0.00    +0.000 NA
ATOM      5  C   UNL     1       5.516   5.568  19.200  0.00  0.00    +0.000 C 
ATOM      6  C   UNL     1       6.954   5.428  19.704  0.00  0.00    +0.000 C 
ENDROOT
BRANCH   1   8
ATOM      7  N   UNL     1       8.735   7.997  18.889  0.00  0.00    +0.000 N 
ATOM      8  C   UNL     1       7.956   7.141  18.118  0.00  0.00    +0.000 C 
ATOM      9  O   UNL     1       7.328   7.473  17.118  0.00  0.00    +0.000 OA
ATOM     10  H   UNL     1       9.414   7.583  19.517  0.00  0.00    +0.000 HD
BRANCH   7  15
ATOM     11  C   UNL     1       8.847  13.710  18.281  0.00  0.00    +0.000 C 
ATOM     12  C   UNL     1       8.831  12.218  18.436  0.00  0.00    +0.000 A 
ATOM     13  C   UNL     1       9.478  11.611  19.512  0.00  0.00    +0.000 A 
ATOM     14  C   UNL     1       9.453  10.222  19.670  0.00  0.00    +0.000 A 
ATOM     15  C   UNL     1       8.779   9.406  18.755  0.00  0.00    +0.000 A 
ATOM     16  C   UNL     1       8.155  10.011  17.658  0.00  0.00    +0.000 A 
ATOM     17  C   UNL     1       8.170  11.405  17.506  0.00  0.00    +0.000 A 
ENDBRANCH   7  15
ENDBRANCH   1   8
BRANCH   4  18
ATOM     18  S   UNL     1       3.580   4.755  17.549  0.00  0.00    +0.000 S 
ATOM     19  O   UNL     1       3.221   6.160  17.464  0.00  0.00    +0.000 OA
ATOM     20  O   UNL     1       3.444   3.909  16.380  0.00  0.00    +0.000 OA
BRANCH  18  21
ATOM     21  C   UNL     1       2.622   4.032  18.858  0.00  0.00    +0.000 A 
ATOM     22  C   UNL     1       1.861   4.885  19.677  0.00  0.00    +0.000 A 
ATOM     23  C   UNL     1       1.101   4.366  20.728  0.00  0.00    +0.000 A 
ATOM     24  C   UNL     1       1.085   2.995  20.962  0.00  0.00    +0.000 A 
ATOM     25  C   UNL     1       1.865   2.149  20.170  0.00  0.00    +0.000 A 
ATOM     26  C   UNL     1       2.654   2.663  19.130  0.00  0.00    +0.000 A 
ATOM     27 CL   UNL     1       3.634   1.528  18.275  0.00  0.00    +0.000 Cl
ENDBRANCH  18  21
ENDBRANCH   4  18
TORSDOF 4
ENDMDL
MODEL 4
REMARK VINA RESULT:      -7.9      2.843      5.609
REMARK  Name = 
REMARK  5 active torsions:
REMARK  status: ('A' for Active; 'I' for Inactive)
REMARK    1  A    between atoms: C_1  and  C_2
REMARK    2  A    between atoms: C_5  and  N_6
REMARK    3  A    between atoms: C_7  and  C_9
REMARK    4  A    between atoms: N_12  and  S_13
REMARK    5  A    between atoms: S_13  and  C_16
REMARK                            x       y       z     vdW  Elec       q    Type
REMARK                         _______ _______ _______ _____ _____    ______ ____
ROOT
ATOM      1  C   UNL     1       7.102   5.860  17.022  0.00  0.00    +0.000 C 
ATOM      2  C   UNL     1       5.985   6.384  16.103  0.00  0.00    +0.000 C 
ATOM      3  C   UNL     1       4.718   6.775  16.870  0.00  0.00    +0.000 C 
ATOM      4  N   UNL     1       4.225   5.646  17.718  0.00  0.00    +0.000 NA
ATOM      5  C   UNL     1       5.294   5.109  18.620  0.00  0.00    +0.000 C 
ATOM      6  C   UNL     1       6.537   4.693  17.830  0.00  0.00    +0.000 C 
ENDROOT
BRANCH   1   8
ATOM      7  N   UNL     1       7.635   8.236  17.378  0.00  0.00    +0.000 N 
ATOM      8  C   UNL     1       7.680   6.959  17.925  0.00  0.00    +0.000 C 
ATOM      9  O   UNL     1       8.101   6.689  19.046  0.00  0.00    +0.000 OA
ATOM     10  H   UNL     1       7.035   8.388  16.576  0.00  0.00    +0.000 HD
BRANCH   7  15
ATOM     11  C   UNL     1      10.107  12.861  19.729  0.00  0.00    +0.000 C 
ATOM     12  C   UNL     1       9.450  11.658  19.120  0.00  0.00    +0.000 A 
ATOM     13  C   UNL     1       8.677  11.782  17.965  0.00  0.00    +0.000 A 
ATOM     14  C   UNL     1       8.075  10.662  17.384  0.00  0.00    +0.000 A 
ATOM     15  C   UNL     1       8.232   9.390  17.944  0.00  0.00    +0.000 A 
ATOM     16  C   UNL     1       8.982   9.267  19.119  0.00  0.00    +0.000 A 
ATOM     17  C   UNL     1       9.596  10.389  19.696  0.00  0.00    +0.000 A 
ENDBRANCH   7  15
ENDBRANCH   1   8
BRANCH   4  18
ATOM     18  S   UNL     1       2.796   6.055  18.624  0.00  0.00    +0.000 S 
ATOM     19  O   UNL     1       3.131   7.087  19.588  0.00  0.00    +0.000 OA
ATOM     20  O   UNL     1       1.744   6.294  17.655  0.00  0.00    +0.000 OA
BRANCH  18  21
ATOM     21  C   UNL     1       2.377   4.585  19.529  0.00  0.00    +0.000 A 
ATOM     22  C   UNL     1       2.318   4.661  20.932  0.00  0.00    +0.000 A 
ATOM     23  C   UNL     1       2.007   3.530  21.690  0.00  0.00    +0.000 A 
ATOM     24  C   UNL     1       1.739   2.321  21.055  0.00  0.00    +0.000 A 
ATOM     25  C   UNL     1       1.827   2.235  19.664  0.00  0.00    +0.000 A 
ATOM     26  C   UNL     1       2.168   3.359  18.895  0.00  0.00    +0.000 A 
ATOM     27 CL   UNL     1       2.323   3.109  17.194  0.00  0.00    +0.000 Cl
ENDBRANCH  18  21
ENDBRANCH   4  18
TORSDOF 4
ENDMDL
MODEL 5
REMARK VINA RESULT:      -7.8      2.460      3.270
REMARK  Name = 
REMARK  5 active torsions:
REMARK  status: ('A' for Active; 'I' for Inactive)
REMARK    1  A    between atoms: C_1  and  C_2
REMARK    2  A    between atoms: C_5  and  N_6
REMARK    3  A    between atoms: C_7  and  C_9
REMARK    4  A    between atoms: N_12  and  S_13
REMARK    5  A    between atoms: S_13  and  C_16
REMARK                            x       y       z     vdW  Elec       q    Type
REMARK                         _______ _______ _______ _____ _____    ______ ____
ROOT
ATOM      1  C   UNL     1       7.486   6.324  17.775  0.00  0.00    +0.000 C 
ATOM      2  C   UNL     1       7.179   5.730  19.161  0.00  0.00    +0.000 C 
ATOM      3  C   UNL     1       5.741   5.217  19.284  0.00  0.00    +0.000 C 
ATOM      4  N   UNL     1       4.752   6.281  18.929  0.00  0.00    +0.000 NA
ATOM      5  C   UNL     1       5.029   6.885  17.586  0.00  0.00    +0.000 C 
ATOM      6  C   UNL     1       6.459   7.421  17.497  0.00  0.00    +0.000 C 
ENDROOT
BRANCH   1   8
ATOM      7  N   UNL     1       6.983   5.679  15.453  0.00  0.00    +0.000 N 
ATOM      8  C   UNL     1       7.501   5.256  16.672  0.00  0.00    +0.000 C 
ATOM      9  O   UNL     1       7.978   4.146  16.884  0.00  0.00    +0.000 OA
ATOM     10  H   UNL     1       6.866   6.675  15.307  0.00  0.00    +0.000 HD
BRANCH   7  15
ATOM     11  C   UNL     1       5.967   2.282  10.931  0.00  0.00    +0.000 C 
ATOM     12  C   UNL     1       6.243   3.161  12.115  0.00  0.00    +0.000 A 
ATOM     13  C   UNL     1       7.306   4.065  12.093  0.00  0.00    +0.000 A 
ATOM     14  C   UNL     1       7.558   4.897  13.187  0.00  0.00    +0.000 A 
ATOM     15  C   UNL     1       6.752   4.847  14.330  0.00  0.00    +0.000 A 
ATOM     16  C   UNL     1       5.705   3.921  14.366  0.00  0.00    +0.000 A 
ATOM     17  C   UNL     1       5.444   3.093  13.264  0.00  0.00    +0.000 A 
ENDBRANCH   7  15
ENDBRANCH   1   8
BRANCH   4  18
ATOM     18  S   UNL     1       3.102   5.735  19.035  0.00  0.00    +0.000 S 
ATOM     19  O   UNL     1       2.607   5.477  17.695  0.00  0.00    +0.000 OA
ATOM     20  O   UNL     1       3.078   4.675  20.024  0.00  0.00    +0.000 OA
BRANCH  18  21
ATOM     21  C   UNL     1       2.192   7.112  19.692  0.00  0.00    +0.000 A 
ATOM     22  C   UNL     1       1.660   7.002  20.989  0.00  0.00    +0.000 A 
ATOM     23  C   UNL     1       0.926   8.052  21.545  0.00  0.00    +0.000 A 
ATOM     24  C   UNL     1       0.727   9.221  20.818  0.00  0.00    +0.000 A 
ATOM     25  C   UNL     1       1.226   9.321  19.517  0.00  0.00    +0.000 A 
ATOM     26  C   UNL     1       1.942   8.261  18.938  0.00  0.00    +0.000 A 
ATOM     27 CL   UNL     1       2.438   8.472  17.299  0.00  0.00    +0.000 Cl
ENDBRANCH  18  21
ENDBRANCH   4  18
TORSDOF 4
ENDMDL
MODEL 6
REMARK VINA RESULT:      -7.5      2.980      5.642
REMARK  Name = 
REMARK  5 active torsions:
REMARK  status: ('A' for Active; 'I' for Inactive)
REMARK    1  A    between atoms: C_1  and  C_2
REMARK    2  A    between atoms: C_5  and  N_6
REMARK    3  A    between atoms: C_7  and  C_9
REMARK    4  A    between atoms: N_12  and  S_13
REMARK    5  A    between atoms: S_13  and  C_16
REMARK                            x       y       z     vdW  Elec       q    Type
REMARK                         _______ _______ _______ _____ _____    ______ ____
ROOT
ATOM      1  C   UNL     1       7.998   5.700  18.634  0.00  0.00    +0.000 C 
ATOM      2  C   UNL     1       7.700   4.701  17.503  0.00  0.00    +0.000 C 
ATOM      3  C   UNL     1       6.264   4.802  16.981  0.00  0.00    +0.000 C 
ATOM      4  N   UNL     1       5.271   4.662  18.091  0.00  0.00    +0.000 NA
ATOM      5  C   UNL     1       5.539   5.617  19.213  0.00  0.00    +0.000 C 
ATOM      6  C   UNL     1       6.968   5.476  19.741  0.00  0.00    +0.000 C 
ENDROOT
BRANCH   1   8
ATOM      7  N   UNL     1       8.752   8.024  18.931  0.00  0.00    +0.000 N 
ATOM      8  C   UNL     1       8.007   7.154  18.143  0.00  0.00    +0.000 C 
ATOM      9  O   UNL     1       7.423   7.468  17.110  0.00  0.00    +0.000 OA
ATOM     10  H   UNL     1       9.403   7.623  19.595  0.00  0.00    +0.000 HD
BRANCH   7  15
ATOM     11  C   UNL     1       8.879  13.727  18.235  0.00  0.00    +0.000 C 
ATOM     12  C   UNL     1       8.858  12.238  18.412  0.00  0.00    +0.000 A 
ATOM     13  C   UNL     1       9.518  11.644  19.489  0.00  0.00    +0.000 A 
ATOM     14  C   UNL     1       9.489  10.258  19.668  0.00  0.00    +0.000 A 
ATOM     15  C   UNL     1       8.799   9.432  18.775  0.00  0.00    +0.000 A 
ATOM     16  C   UNL     1       8.162  10.022  17.678  0.00  0.00    +0.000 A 
ATOM     17  C   UNL     1       8.181  11.414  17.504  0.00  0.00    +0.000 A 
ENDBRANCH   7  15
ENDBRANCH   1   8
BRANCH   4  18
ATOM     18  S   UNL     1       3.623   4.791  17.546  0.00  0.00    +0.000 S 
ATOM     19  O   UNL     1       3.278   6.196  17.425  0.00  0.00    +0.000 OA
ATOM     20  O   UNL     1       3.497   3.921  16.393  0.00  0.00    +0.000 OA
BRANCH  18  21
ATOM     21  C   UNL     1       2.639   4.104  18.855  0.00  0.00    +0.000 A 
ATOM     22  C   UNL     1       2.371   2.723  18.833  0.00  0.00    +0.000 A 
ATOM     23  C   UNL     1       1.590   2.137  19.833  0.00  0.00    +0.000 A 
ATOM     24  C   UNL     1       1.083   2.920  20.865  0.00  0.00    +0.000 A 
ATOM     25  C   UNL     1       1.321   4.296  20.872  0.00  0.00    +0.000 A 
ATOM     26  C   UNL     1       2.080   4.900  19.857  0.00  0.00    +0.000 A 
ATOM     27 CL   UNL     1       2.237   6.617  19.931  0.00  0.00    +0.000 Cl
ENDBRANCH  18  21
ENDBRANCH   4  18
TORSDOF 4
ENDMDL
MODEL 7
REMARK VINA RESULT:      -7.3      2.211      3.170
REMARK  Name = 
REMARK  5 active torsions:
REMARK  status: ('A' for Active; 'I' for Inactive)
REMARK    1  A    between atoms: C_1  and  C_2
REMARK    2  A    between atoms: C_5  and  N_6
REMARK    3  A    between atoms: C_7  and  C_9
REMARK    4  A    between atoms: N_12  and  S_13
REMARK    5  A    between atoms: S_13  and  C_16
REMARK                            x       y       z     vdW  Elec       q    Type
REMARK                         _______ _______ _______ _____ _____    ______ ____
ROOT
ATOM      1  C   UNL     1       7.537   6.242  17.870  0.00  0.00    +0.000 C 
ATOM      2  C   UNL     1       7.087   5.636  19.210  0.00  0.00    +0.000 C 
ATOM      3  C   UNL     1       5.597   5.283  19.234  0.00  0.00    +0.000 C 
ATOM      4  N   UNL     1       4.753   6.464  18.872  0.00  0.00    +0.000 NA
ATOM      5  C   UNL     1       5.173   7.081  17.574  0.00  0.00    +0.000 C 
ATOM      6  C   UNL     1       6.655   7.457  17.584  0.00  0.00    +0.000 C 
ENDROOT
BRANCH   1   8
ATOM      7  N   UNL     1       6.867   5.671  15.571  0.00  0.00    +0.000 N 
ATOM      8  C   UNL     1       7.500   5.221  16.725  0.00  0.00    +0.000 C 
ATOM      9  O   UNL     1       8.032   4.123  16.850  0.00  0.00    +0.000 OA
ATOM     10  H   UNL     1       6.704   6.667  15.478  0.00  0.00    +0.000 HD
BRANCH   7  15
ATOM     11  C   UNL     1       5.594   2.440  10.993  0.00  0.00    +0.000 C 
ATOM     12  C   UNL     1       5.935   3.273  12.192  0.00  0.00    +0.000 A 
ATOM     13  C   UNL     1       7.143   3.970  12.250  0.00  0.00    +0.000 A 
ATOM     14  C   UNL     1       7.460   4.761  13.358  0.00  0.00    +0.000 A 
ATOM     15  C   UNL     1       6.575   4.877  14.435  0.00  0.00    +0.000 A 
ATOM     16  C   UNL     1       5.376   4.156  14.393  0.00  0.00    +0.000 A 
ATOM     17  C   UNL     1       5.053   3.371  13.276  0.00  0.00    +0.000 A 
ENDBRANCH   7  15
ENDBRANCH   1   8
BRANCH   4  18
ATOM     18  S   UNL     1       3.050   6.102  18.866  0.00  0.00    +0.000 S 
ATOM     19  O   UNL     1       2.714   5.450  17.614  0.00  0.00    +0.000 OA
ATOM     20  O   UNL     1       2.762   5.435  20.121  0.00  0.00    +0.000 OA
BRANCH  18  21
ATOM     21  C   UNL     1       2.234   7.680  18.890  0.00  0.00    +0.000 A 
ATOM     22  C   UNL     1       2.365   8.515  17.766  0.00  0.00    +0.000 A 
ATOM     23  C   UNL     1       1.754   9.771  17.741  0.00  0.00    +0.000 A 
ATOM     24  C   UNL     1       0.998  10.196  18.830  0.00  0.00    +0.000 A 
ATOM     25  C   UNL     1       0.892   9.382  19.959  0.00  0.00    +0.000 A 
ATOM     26  C   UNL     1       1.526   8.130  20.006  0.00  0.00    +0.000 A 
ATOM     27 CL   UNL     1       1.389   7.253  21.486  0.00  0.00    +0.000 Cl
ENDBRANCH  18  21
ENDBRANCH   4  18
TORSDOF 4
ENDMDL
MODEL 8
REMARK VINA RESULT:      -7.3      3.550      7.217
REMARK  Name = 
REMARK  5 active torsions:
REMARK  status: ('A' for Active; 'I' for Inactive)
REMARK    1  A    between atoms: C_1  and  C_2
REMARK    2  A    between atoms: C_5  and  N_6
REMARK    3  A    between atoms: C_7  and  C_9
REMARK    4  A    between atoms: N_12  and  S_13
REMARK    5  A    between atoms: S_13  and  C_16
REMARK                            x       y       z     vdW  Elec       q    Type
REMARK                         _______ _______ _______ _____ _____    ______ ____
ROOT
ATOM      1  C   UNL     1       3.767   3.729  18.810  0.00  0.00    +0.000 C 
ATOM      2  C   UNL     1       5.162   4.266  19.175  0.00  0.00    +0.000 C 
ATOM      3  C   UNL     1       5.720   5.236  18.129  0.00  0.00    +0.000 C 
ATOM      4  N   UNL     1       5.726   4.620  16.766  0.00  0.00    +0.000 NA
ATOM      5  C   UNL     1       4.382   4.079  16.384  0.00  0.00    +0.000 C 
ATOM      6  C   UNL     1       3.859   3.088  17.426  0.00  0.00    +0.000 C 
ENDROOT
BRANCH   1   8
ATOM      7  N   UNL     1       3.178   6.108  19.031  0.00  0.00    +0.000 N 
ATOM      8  C   UNL     1       2.687   4.817  18.870  0.00  0.00    +0.000 C 
ATOM      9  O   UNL     1       1.501   4.528  18.742  0.00  0.00    +0.000 OA
ATOM     10  H   UNL     1       4.164   6.266  18.859  0.00  0.00    +0.000 HD
BRANCH   7  15
ATOM     11  C   UNL     1      -0.034  10.799  19.870  0.00  0.00    +0.000 C 
ATOM     12  C   UNL     1       0.815   9.581  19.658  0.00  0.00    +0.000 A 
ATOM     13  C   UNL     1       1.051   8.691  20.706  0.00  0.00    +0.000 A 
ATOM     14  C   UNL     1       1.828   7.546  20.511  0.00  0.00    +0.000 A 
ATOM     15  C   UNL     1       2.387   7.261  19.260  0.00  0.00    +0.000 A 
ATOM     16  C   UNL     1       2.176   8.167  18.215  0.00  0.00    +0.000 A 
ATOM     17  C   UNL     1       1.387   9.311  18.408  0.00  0.00    +0.000 A 
ENDBRANCH   7  15
ENDBRANCH   1   8
BRANCH   4  18
ATOM     18  S   UNL     1       6.334   5.695  15.540  0.00  0.00    +0.000 S 
ATOM     19  O   UNL     1       5.391   6.785  15.362  0.00  0.00    +0.000 OA
ATOM     20  O   UNL     1       7.710   5.989  15.889  0.00  0.00    +0.000 OA
BRANCH  18  21
ATOM     21  C   UNL     1       6.346   4.742  14.041  0.00  0.00    +0.000 A 
ATOM     22  C   UNL     1       5.336   3.782  13.853  0.00  0.00    +0.000 A 
ATOM     23  C   UNL     1       5.309   2.998  12.698  0.00  0.00    +0.000 A 
ATOM     24  C   UNL     1       6.281   3.173  11.718  0.00  0.00    +0.000 A 
ATOM     25  C   UNL     1       7.305   4.103  11.916  0.00  0.00    +0.000 A 
ATOM     26  C   UNL     1       7.357   4.876  13.087  0.00  0.00    +0.000 A 
ATOM     27 CL   UNL     1       8.712   5.931  13.252  0.00  0.00    +0.000 Cl
ENDBRANCH  18  21
ENDBRANCH   4  18
TORSDOF 4
ENDMDL
MODEL 9
REMARK VINA RESULT:      -7.3      2.889      5.631
REMARK  Name = 
REMARK  5 active torsions:
REMARK  status: ('A' for Active; 'I' for Inactive)
REMARK    1  A    between atoms: C_1  and  C_2
REMARK    2  A    between atoms: C_5  and  N_6
REMARK    3  A    between atoms: C_7  and  C_9
REMARK    4  A    between atoms: N_12  and  S_13
REMARK    5  A    between atoms: S_13  and  C_16
REMARK                            x       y       z     vdW  Elec       q    Type
REMARK                         _______ _______ _______ _____ _____    ______ ____
ROOT
ATOM      1  C   UNL     1       7.423   6.214  16.906  0.00  0.00    +0.000 C 
ATOM      2  C   UNL     1       6.230   6.708  16.068  0.00  0.00    +0.000 C 
ATOM      3  C   UNL     1       4.961   6.909  16.902  0.00  0.00    +0.000 C 
ATOM      4  N   UNL     1       4.605   5.669  17.658  0.00  0.00    +0.000 NA
ATOM      5  C   UNL     1       5.750   5.159  18.478  0.00  0.00    +0.000 C 
ATOM      6  C   UNL     1       6.997   4.933  17.620  0.00  0.00    +0.000 C 
ENDROOT
BRANCH   1   8
ATOM      7  N   UNL     1       7.875   8.582  17.403  0.00  0.00    +0.000 N 
ATOM      8  C   UNL     1       7.929   7.280  17.887  0.00  0.00    +0.000 C 
ATOM      9  O   UNL     1       8.305   6.965  19.012  0.00  0.00    +0.000 OA
ATOM     10  H   UNL     1       7.308   8.759  16.582  0.00  0.00    +0.000 HD
BRANCH   7  15
ATOM     11  C   UNL     1      10.013  13.250  19.984  0.00  0.00    +0.000 C 
ATOM     12  C   UNL     1       9.468  12.029  19.306  0.00  0.00    +0.000 A 
ATOM     13  C   UNL     1       9.663  10.763  19.861  0.00  0.00    +0.000 A 
ATOM     14  C   UNL     1       9.144   9.623  19.242  0.00  0.00    +0.000 A 
ATOM     15  C   UNL     1       8.414   9.720  18.052  0.00  0.00    +0.000 A 
ATOM     16  C   UNL     1       8.242  10.984  17.478  0.00  0.00    +0.000 A 
ATOM     17  C   UNL     1       8.753  12.130  18.105  0.00  0.00    +0.000 A 
ENDBRANCH   7  15
ENDBRANCH   1   8
BRANCH   4  18
ATOM     18  S   UNL     1       3.177   5.858  18.636  0.00  0.00    +0.000 S 
ATOM     19  O   UNL     1       3.578   6.198  19.990  0.00  0.00    +0.000 OA
ATOM     20  O   UNL     1       2.289   6.744  17.909  0.00  0.00    +0.000 OA
BRANCH  18  21
ATOM     21  C   UNL     1       2.422   4.251  18.684  0.00  0.00    +0.000 A 
ATOM     22  C   UNL     1       2.838   3.291  17.745  0.00  0.00    +0.000 A 
ATOM     23  C   UNL     1       2.265   2.017  17.732  0.00  0.00    +0.000 A 
ATOM     24  C   UNL     1       1.285   1.689  18.663  0.00  0.00    +0.000 A 
ATOM     25  C   UNL     1       0.847   2.650  19.576  0.00  0.00    +0.000 A 
ATOM     26  C   UNL     1       1.395   3.942  19.578  0.00  0.00    +0.000 A 
ATOM     27 CL   UNL     1       0.717   5.065  20.700  0.00  0.00    +0.000 Cl
ENDBRANCH  18  21
ENDBRANCH   4  18
TORSDOF 4
ENDMDL
