MODEL 1
REMARK VINA RESULT:      -7.2      0.000      0.000
REMARK  Name = 
REMARK  7 active torsions:
REMARK  status: ('A' for Active; 'I' for Inactive)
REMARK    1  A    between atoms: C_1  and  O_2
REMARK    2  A    between atoms: O_2  and  C_3
REMARK    3  A    between atoms: C_6  and  C_7
REMARK    4  A    between atoms: C_7  and  N_8
REMARK    5  A    between atoms: N_8  and  C_9
REMARK    6  A    between atoms: C_15  and  C_16
REMARK    7  A    between atoms: N_17  and  O_18
REMARK                            x       y       z     vdW  Elec       q    Type
REMARK                         _______ _______ _______ _____ _____    ______ ____
ROOT
ATOM      1  N   UNL     1       4.904   3.104  17.822  0.00  0.00    +0.000 N 
ATOM      2  H   UNL     1       5.568   3.063  18.597  0.00  0.00    +0.000 HD
ENDROOT
BRANCH   1   3
ATOM      3  C   UNL     1       3.605   3.330  18.306  0.00  0.00    +0.000 A 
ATOM      4  N   UNL     1       2.687   3.795  17.432  0.00  0.00    +0.000 NA
ATOM      5  C   UNL     1       1.423   3.933  17.852  0.00  0.00    +0.000 A 
ATOM      6  N   UNL     1       0.976   3.629  19.065  0.00  0.00    +0.000 NA
ATOM      7  C   UNL     1       1.909   3.154  19.916  0.00  0.00    +0.000 A 
ATOM      8 CL   UNL     1       1.236   2.820  21.468  0.00  0.00    +0.000 Cl
ATOM      9  C   UNL     1       3.246   2.984  19.603  0.00  0.00    +0.000 A 
BRANCH   9  10
ATOM     10  C   UNL     1       4.194   2.485  20.608  0.00  0.00    +0.000 C 
ATOM     11  N   UNL     1       4.925   1.435  20.408  0.00  0.00    +0.000 NA
BRANCH  11  12
ATOM     12  O   UNL     1       5.724   1.219  21.535  0.00  0.00    +0.000 OA
ATOM     13  H   UNL     1       6.627   1.307  21.179  0.00  0.00    +0.000 HD
ENDBRANCH  11  12
ENDBRANCH   9  10
ENDBRANCH   1   3
BRANCH   1  14
ATOM     14  C   UNL     1       5.321   3.974  16.733  0.00  0.00    +0.000 C 
BRANCH  14  18
ATOM     15  C   UNL     1       7.804   7.207  18.181  0.00  0.00    +0.000 A 
ATOM     16  C   UNL     1       7.859   5.950  18.783  0.00  0.00    +0.000 A 
ATOM     17  C   UNL     1       7.052   4.906  18.325  0.00  0.00    +0.000 A 
ATOM     18  C   UNL     1       6.169   5.109  17.255  0.00  0.00    +0.000 A 
ATOM     19  C   UNL     1       6.093   6.382  16.676  0.00  0.00    +0.000 A 
ATOM     20  C   UNL     1       6.908   7.425  17.134  0.00  0.00    +0.000 A 
BRANCH  15  22
ATOM     21  C   UNL     1       8.458   9.478  18.238  0.00  0.00    +0.000 C 
ATOM     22  O   UNL     1       8.634   8.151  18.720  0.00  0.00    +0.000 OA
ENDBRANCH  15  22
ENDBRANCH  14  18
ENDBRANCH   1  14
TORSDOF 6
ENDMDL
MODEL 2
REMARK VINA RESULT:      -7.1      3.254      6.045
REMARK  Name = 
REMARK  7 active torsions:
REMARK  status: ('A' for Active; 'I' for Inactive)
REMARK    1  A    between atoms: C_1  and  O_2
REMARK    2  A    between atoms: O_2  and  C_3
REMARK    3  A    between atoms: C_6  and  C_7
REMARK    4  A    between atoms: C_7  and  N_8
REMARK    5  A    between atoms: N_8  and  C_9
REMARK    6  A    between atoms: C_15  and  C_16
REMARK    7  A    between atoms: N_17  and  O_18
REMARK                            x       y       z     vdW  Elec       q    Type
REMARK                         _______ _______ _______ _____ _____    ______ ____
ROOT
ATOM      1  N   UNL     1       4.728   6.380  16.658  0.00  0.00    +0.000 N 
ATOM      2  H   UNL     1       4.790   6.511  15.647  0.00  0.00    +0.000 HD
ENDROOT
BRANCH   1   3
ATOM      3  C   UNL     1       5.972   6.637  17.259  0.00  0.00    +0.000 A 
ATOM      4  N   UNL     1       6.536   7.841  17.033  0.00  0.00    +0.000 NA
ATOM      5  C   UNL     1       7.677   8.137  17.667  0.00  0.00    +0.000 A 
ATOM      6  N   UNL     1       8.306   7.349  18.532  0.00  0.00    +0.000 NA
ATOM      7  C   UNL     1       7.714   6.157  18.753  0.00  0.00    +0.000 A 
ATOM      8 CL   UNL     1       8.621   5.199  19.864  0.00  0.00    +0.000 Cl
ATOM      9  C   UNL     1       6.547   5.732  18.144  0.00  0.00    +0.000 A 
BRANCH   9  10
ATOM     10  C   UNL     1       5.993   4.402  18.428  0.00  0.00    +0.000 C 
ATOM     11  N   UNL     1       5.413   4.119  19.550  0.00  0.00    +0.000 NA
BRANCH  11  12
ATOM     12  O   UNL     1       4.989   2.787  19.516  0.00  0.00    +0.000 OA
ATOM     13  H   UNL     1       5.827   2.297  19.417  0.00  0.00    +0.000 HD
ENDBRANCH  11  12
ENDBRANCH   9  10
ENDBRANCH   1   3
BRANCH   1  14
ATOM     14  C   UNL     1       3.592   7.050  17.272  0.00  0.00    +0.000 C 
BRANCH  14  18
ATOM     15  C   UNL     1       1.524   4.307  19.900  0.00  0.00    +0.000 A 
ATOM     16  C   UNL     1       1.677   4.007  18.547  0.00  0.00    +0.000 A 
ATOM     17  C   UNL     1       2.336   4.895  17.692  0.00  0.00    +0.000 A 
ATOM     18  C   UNL     1       2.847   6.104  18.184  0.00  0.00    +0.000 A 
ATOM     19  C   UNL     1       2.661   6.415  19.536  0.00  0.00    +0.000 A 
ATOM     20  C   UNL     1       2.006   5.520  20.392  0.00  0.00    +0.000 A 
BRANCH  15  22
ATOM     21  C   UNL     1       1.631   2.675  21.608  0.00  0.00    +0.000 C 
ATOM     22  O   UNL     1       0.856   3.366  20.636  0.00  0.00    +0.000 OA
ENDBRANCH  15  22
ENDBRANCH  14  18
ENDBRANCH   1  14
TORSDOF 6
ENDMDL
MODEL 3
REMARK VINA RESULT:      -7.0      0.553      1.151
REMARK  Name = 
REMARK  7 active torsions:
REMARK  status: ('A' for Active; 'I' for Inactive)
REMARK    1  A    between atoms: C_1  and  O_2
REMARK    2  A    between atoms: O_2  and  C_3
REMARK    3  A    between atoms: C_6  and  C_7
REMARK    4  A    between atoms: C_7  and  N_8
REMARK    5  A    between atoms: N_8  and  C_9
REMARK    6  A    between atoms: C_15  and  C_16
REMARK    7  A    between atoms: N_17  and  O_18
REMARK                            x       y       z     vdW  Elec       q    Type
REMARK                         _______ _______ _______ _____ _____    ______ ____
ROOT
ATOM      1  N   UNL     1       4.525   2.791  17.961  0.00  0.00    +0.000 N 
ATOM      2  H   UNL     1       5.242   2.701  18.683  0.00  0.00    +0.000 HD
ENDROOT
BRANCH   1   3
ATOM      3  C   UNL     1       3.272   3.038  18.545  0.00  0.00    +0.000 A 
ATOM      4  N   UNL     1       2.284   3.476  17.738  0.00  0.00    +0.000 NA
ATOM      5  C   UNL     1       1.060   3.633  18.259  0.00  0.00    +0.000 A 
ATOM      6  N   UNL     1       0.718   3.372  19.516  0.00  0.00    +0.000 NA
ATOM      7  C   UNL     1       1.720   2.923  20.299  0.00  0.00    +0.000 A 
ATOM      8 CL   UNL     1       1.182   2.645  21.914  0.00  0.00    +0.000 Cl
ATOM      9  C   UNL     1       3.025   2.738  19.880  0.00  0.00    +0.000 A 
BRANCH   9  10
ATOM     10  C   UNL     1       4.056   2.270  20.816  0.00  0.00    +0.000 C 
ATOM     11  N   UNL     1       4.955   1.402  20.478  0.00  0.00    +0.000 NA
BRANCH  11  12
ATOM     12  O   UNL     1       5.791   1.167  21.574  0.00  0.00    +0.000 OA
ATOM     13  H   UNL     1       6.322   0.404  21.280  0.00  0.00    +0.000 HD
ENDBRANCH  11  12
ENDBRANCH   9  10
ENDBRANCH   1   3
BRANCH   1  14
ATOM     14  C   UNL     1       4.892   3.688  16.875  0.00  0.00    +0.000 C 
BRANCH  14  18
ATOM     15  C   UNL     1       7.622   6.735  18.281  0.00  0.00    +0.000 A 
ATOM     16  C   UNL     1       7.194   6.728  16.953  0.00  0.00    +0.000 A 
ATOM     17  C   UNL     1       6.319   5.740  16.493  0.00  0.00    +0.000 A 
ATOM     18  C   UNL     1       5.865   4.737  17.359  0.00  0.00    +0.000 A 
ATOM     19  C   UNL     1       6.324   4.729  18.682  0.00  0.00    +0.000 A 
ATOM     20  C   UNL     1       7.196   5.723  19.142  0.00  0.00    +0.000 A 
BRANCH  15  22
ATOM     21  C   UNL     1       8.226   9.003  18.000  0.00  0.00    +0.000 C 
ATOM     22  O   UNL     1       8.482   7.745  18.614  0.00  0.00    +0.000 OA
ENDBRANCH  15  22
ENDBRANCH  14  18
ENDBRANCH   1  14
TORSDOF 6
ENDMDL
MODEL 4
REMARK VINA RESULT:      -6.9      3.643      5.284
REMARK  Name = 
REMARK  7 active torsions:
REMARK  status: ('A' for Active; 'I' for Inactive)
REMARK    1  A    between atoms: C_1  and  O_2
REMARK    2  A    between atoms: O_2  and  C_3
REMARK    3  A    between atoms: C_6  and  C_7
REMARK    4  A    between atoms: C_7  and  N_8
REMARK    5  A    between atoms: N_8  and  C_9
REMARK    6  A    between atoms: C_15  and  C_16
REMARK    7  A    between atoms: N_17  and  O_18
REMARK                            x       y       z     vdW  Elec       q    Type
REMARK                         _______ _______ _______ _____ _____    ______ ____
ROOT
ATOM      1  N   UNL     1       4.995   3.307  18.311  0.00  0.00    +0.000 N 
ATOM      2  H   UNL     1       5.410   2.388  18.150  0.00  0.00    +0.000 HD
ENDROOT
BRANCH   1   3
ATOM      3  C   UNL     1       5.562   4.256  17.444  0.00  0.00    +0.000 A 
ATOM      4  N   UNL     1       5.205   4.203  16.143  0.00  0.00    +0.000 NA
ATOM      5  C   UNL     1       5.666   5.153  15.319  0.00  0.00    +0.000 A 
ATOM      6  N   UNL     1       6.439   6.173  15.674  0.00  0.00    +0.000 NA
ATOM      7  C   UNL     1       6.770   6.212  16.980  0.00  0.00    +0.000 A 
ATOM      8 CL   UNL     1       7.797   7.552  17.332  0.00  0.00    +0.000 Cl
ATOM      9  C   UNL     1       6.371   5.281  17.922  0.00  0.00    +0.000 A 
BRANCH   9  10
ATOM     10  C   UNL     1       6.807   5.392  19.320  0.00  0.00    +0.000 C 
ATOM     11  N   UNL     1       8.037   5.198  19.678  0.00  0.00    +0.000 NA
BRANCH  11  12
ATOM     12  O   UNL     1       8.138   5.381  21.061  0.00  0.00    +0.000 OA
ATOM     13  H   UNL     1       8.825   6.069  21.137  0.00  0.00    +0.000 HD
ENDBRANCH  11  12
ENDBRANCH   9  10
ENDBRANCH   1   3
BRANCH   1  14
ATOM     14  C   UNL     1       3.541   3.299  18.356  0.00  0.00    +0.000 C 
BRANCH  14  18
ATOM     15  C   UNL     1       2.109   7.165  19.667  0.00  0.00    +0.000 A 
ATOM     16  C   UNL     1       2.349   6.150  20.593  0.00  0.00    +0.000 A 
ATOM     17  C   UNL     1       2.803   4.896  20.173  0.00  0.00    +0.000 A 
ATOM     18  C   UNL     1       3.017   4.640  18.812  0.00  0.00    +0.000 A 
ATOM     19  C   UNL     1       2.742   5.652  17.884  0.00  0.00    +0.000 A 
ATOM     20  C   UNL     1       2.293   6.909  18.308  0.00  0.00    +0.000 A 
BRANCH  15  22
ATOM     21  C   UNL     1       0.918   8.239  21.404  0.00  0.00    +0.000 C 
ATOM     22  O   UNL     1       1.661   8.344  20.195  0.00  0.00    +0.000 OA
ENDBRANCH  15  22
ENDBRANCH  14  18
ENDBRANCH   1  14
TORSDOF 6
ENDMDL
MODEL 5
REMARK VINA RESULT:      -6.9      3.714      5.450
REMARK  Name = 
REMARK  7 active torsions:
REMARK  status: ('A' for Active; 'I' for Inactive)
REMARK    1  A    between atoms: C_1  and  O_2
REMARK    2  A    between atoms: O_2  and  C_3
REMARK    3  A    between atoms: C_6  and  C_7
REMARK    4  A    between atoms: C_7  and  N_8
REMARK    5  A    between atoms: N_8  and  C_9
REMARK    6  A    between atoms: C_15  and  C_16
REMARK    7  A    between atoms: N_17  and  O_18
REMARK                            x       y       z     vdW  Elec       q    Type
REMARK                         _______ _______ _______ _____ _____    ______ ____
ROOT
ATOM      1  N   UNL     1       4.941   3.422  18.334  0.00  0.00    +0.000 N 
ATOM      2  H   UNL     1       5.343   2.494  18.188  0.00  0.00    +0.000 HD
ENDROOT
BRANCH   1   3
ATOM      3  C   UNL     1       5.537   4.352  17.466  0.00  0.00    +0.000 A 
ATOM      4  N   UNL     1       5.175   4.312  16.166  0.00  0.00    +0.000 NA
ATOM      5  C   UNL     1       5.666   5.246  15.341  0.00  0.00    +0.000 A 
ATOM      6  N   UNL     1       6.473   6.239  15.695  0.00  0.00    +0.000 NA
ATOM      7  C   UNL     1       6.809   6.266  17.001  0.00  0.00    +0.000 A 
ATOM      8 CL   UNL     1       7.880   7.571  17.350  0.00  0.00    +0.000 Cl
ATOM      9  C   UNL     1       6.381   5.348  17.943  0.00  0.00    +0.000 A 
BRANCH   9  10
ATOM     10  C   UNL     1       6.824   5.444  19.340  0.00  0.00    +0.000 C 
ATOM     11  N   UNL     1       8.040   5.181  19.699  0.00  0.00    +0.000 NA
BRANCH  11  12
ATOM     12  O   UNL     1       8.152   5.368  21.081  0.00  0.00    +0.000 OA
ATOM     13  H   UNL     1       8.312   6.327  21.156  0.00  0.00    +0.000 HD
ENDBRANCH  11  12
ENDBRANCH   9  10
ENDBRANCH   1   3
BRANCH   1  14
ATOM     14  C   UNL     1       3.486   3.438  18.356  0.00  0.00    +0.000 C 
BRANCH  14  18
ATOM     15  C   UNL     1       1.963   7.184  19.892  0.00  0.00    +0.000 A 
ATOM     16  C   UNL     1       2.399   7.088  18.571  0.00  0.00    +0.000 A 
ATOM     17  C   UNL     1       2.901   5.882  18.074  0.00  0.00    +0.000 A 
ATOM     18  C   UNL     1       2.979   4.753  18.899  0.00  0.00    +0.000 A 
ATOM     19  C   UNL     1       2.571   4.864  20.234  0.00  0.00    +0.000 A 
ATOM     20  C   UNL     1       2.063   6.072  20.729  0.00  0.00    +0.000 A 
BRANCH  15  22
ATOM     21  C   UNL     1       0.644   8.435  21.404  0.00  0.00    +0.000 C 
ATOM     22  O   UNL     1       1.501   8.416  20.268  0.00  0.00    +0.000 OA
ENDBRANCH  15  22
ENDBRANCH  14  18
ENDBRANCH   1  14
TORSDOF 6
ENDMDL
MODEL 6
REMARK VINA RESULT:      -6.7      4.766      5.644
REMARK  Name = 
REMARK  7 active torsions:
REMARK  status: ('A' for Active; 'I' for Inactive)
REMARK    1  A    between atoms: C_1  and  O_2
REMARK    2  A    between atoms: O_2  and  C_3
REMARK    3  A    between atoms: C_6  and  C_7
REMARK    4  A    between atoms: C_7  and  N_8
REMARK    5  A    between atoms: N_8  and  C_9
REMARK    6  A    between atoms: C_15  and  C_16
REMARK    7  A    between atoms: N_17  and  O_18
REMARK                            x       y       z     vdW  Elec       q    Type
REMARK                         _______ _______ _______ _____ _____    ______ ____
ROOT
ATOM      1  N   UNL     1       3.210   6.108  19.874  0.00  0.00    +0.000 N 
ATOM      2  H   UNL     1       3.292   6.446  20.834  0.00  0.00    +0.000 HD
ENDROOT
BRANCH   1   3
ATOM      3  C   UNL     1       2.781   4.770  19.863  0.00  0.00    +0.000 A 
ATOM      4  N   UNL     1       1.588   4.493  20.430  0.00  0.00    +0.000 NA
ATOM      5  C   UNL     1       1.124   3.240  20.352  0.00  0.00    +0.000 A 
ATOM      6  N   UNL     1       1.729   2.230  19.738  0.00  0.00    +0.000 NA
ATOM      7  C   UNL     1       2.912   2.535  19.166  0.00  0.00    +0.000 A 
ATOM      8 CL   UNL     1       3.630   1.153  18.424  0.00  0.00    +0.000 Cl
ATOM      9  C   UNL     1       3.502   3.786  19.196  0.00  0.00    +0.000 A 
BRANCH   9  10
ATOM     10  C   UNL     1       4.810   4.015  18.568  0.00  0.00    +0.000 C 
ATOM     11  N   UNL     1       5.898   4.136  19.261  0.00  0.00    +0.000 NA
BRANCH  11  12
ATOM     12  O   UNL     1       6.970   4.337  18.385  0.00  0.00    +0.000 OA
ATOM     13  H   UNL     1       6.525   4.604  17.559  0.00  0.00    +0.000 HD
ENDBRANCH  11  12
ENDBRANCH   9  10
ENDBRANCH   1   3
BRANCH   1  14
ATOM     14  C   UNL     1       2.472   7.003  18.994  0.00  0.00    +0.000 C 
BRANCH  14  18
ATOM     15  C   UNL     1       0.597  10.153  21.291  0.00  0.00    +0.000 A 
ATOM     16  C   UNL     1       1.015   8.977  21.915  0.00  0.00    +0.000 A 
ATOM     17  C   UNL     1       1.613   7.953  21.175  0.00  0.00    +0.000 A 
ATOM     18  C   UNL     1       1.794   8.091  19.792  0.00  0.00    +0.000 A 
ATOM     19  C   UNL     1       1.342   9.259  19.166  0.00  0.00    +0.000 A 
ATOM     20  C   UNL     1       0.750  10.286  19.911  0.00  0.00    +0.000 A 
BRANCH  15  22
ATOM     21  C   UNL     1      -0.894  10.567  23.078  0.00  0.00    +0.000 C 
ATOM     22  O   UNL     1       0.020  11.079  22.116  0.00  0.00    +0.000 OA
ENDBRANCH  15  22
ENDBRANCH  14  18
ENDBRANCH   1  14
TORSDOF 6
ENDMDL
MODEL 7
REMARK VINA RESULT:      -6.7      4.663      5.448
REMARK  Name = 
REMARK  7 active torsions:
REMARK  status: ('A' for Active; 'I' for Inactive)
REMARK    1  A    between atoms: C_1  and  O_2
REMARK    2  A    between atoms: O_2  and  C_3
REMARK    3  A    between atoms: C_6  and  C_7
REMARK    4  A    between atoms: C_7  and  N_8
REMARK    5  A    between atoms: N_8  and  C_9
REMARK    6  A    between atoms: C_15  and  C_16
REMARK    7  A    between atoms: N_17  and  O_18
REMARK                            x       y       z     vdW  Elec       q    Type
REMARK                         _______ _______ _______ _____ _____    ______ ____
ROOT
ATOM      1  N   UNL     1       3.318   6.086  19.750  0.00  0.00    +0.000 N 
ATOM      2  H   UNL     1       3.172   6.558  20.644  0.00  0.00    +0.000 HD
ENDROOT
BRANCH   1   3
ATOM      3  C   UNL     1       2.867   4.757  19.821  0.00  0.00    +0.000 A 
ATOM      4  N   UNL     1       1.682   4.533  20.426  0.00  0.00    +0.000 NA
ATOM      5  C   UNL     1       1.194   3.286  20.427  0.00  0.00    +0.000 A 
ATOM      6  N   UNL     1       1.769   2.233  19.856  0.00  0.00    +0.000 NA
ATOM      7  C   UNL     1       2.945   2.485  19.246  0.00  0.00    +0.000 A 
ATOM      8 CL   UNL     1       3.623   1.053  18.566  0.00  0.00    +0.000 Cl
ATOM      9  C   UNL     1       3.556   3.725  19.195  0.00  0.00    +0.000 A 
BRANCH   9  10
ATOM     10  C   UNL     1       4.854   3.896  18.529  0.00  0.00    +0.000 C 
ATOM     11  N   UNL     1       5.938   4.167  19.185  0.00  0.00    +0.000 NA
BRANCH  11  12
ATOM     12  O   UNL     1       7.000   4.262  18.281  0.00  0.00    +0.000 OA
ATOM     13  H   UNL     1       6.655   3.800  17.494  0.00  0.00    +0.000 HD
ENDBRANCH  11  12
ENDBRANCH   9  10
ENDBRANCH   1   3
BRANCH   1  14
ATOM     14  C   UNL     1       2.844   6.841  18.599  0.00  0.00    +0.000 C 
BRANCH  14  18
ATOM     15  C   UNL     1       0.523  10.267  19.860  0.00  0.00    +0.000 A 
ATOM     16  C   UNL     1       0.990  10.174  18.549  0.00  0.00    +0.000 A 
ATOM     17  C   UNL     1       1.748   9.073  18.140  0.00  0.00    +0.000 A 
ATOM     18  C   UNL     1       2.056   8.049  19.046  0.00  0.00    +0.000 A 
ATOM     19  C   UNL     1       1.613   8.164  20.369  0.00  0.00    +0.000 A 
ATOM     20  C   UNL     1       0.849   9.264  20.775  0.00  0.00    +0.000 A 
BRANCH  15  22
ATOM     21  C   UNL     1      -0.220  11.785  21.512  0.00  0.00    +0.000 C 
ATOM     22  O   UNL     1      -0.201  11.392  20.145  0.00  0.00    +0.000 OA
ENDBRANCH  15  22
ENDBRANCH  14  18
ENDBRANCH   1  14
TORSDOF 6
ENDMDL
MODEL 8
REMARK VINA RESULT:      -6.6      2.662      3.621
REMARK  Name = 
REMARK  7 active torsions:
REMARK  status: ('A' for Active; 'I' for Inactive)
REMARK    1  A    between atoms: C_1  and  O_2
REMARK    2  A    between atoms: O_2  and  C_3
REMARK    3  A    between atoms: C_6  and  C_7
REMARK    4  A    between atoms: C_7  and  N_8
REMARK    5  A    between atoms: N_8  and  C_9
REMARK    6  A    between atoms: C_15  and  C_16
REMARK    7  A    between atoms: N_17  and  O_18
REMARK                            x       y       z     vdW  Elec       q    Type
REMARK                         _______ _______ _______ _____ _____    ______ ____
ROOT
ATOM      1  N   UNL     1       5.267   4.706  18.919  0.00  0.00    +0.000 N 
ATOM      2  H   UNL     1       5.990   4.499  19.609  0.00  0.00    +0.000 HD
ENDROOT
BRANCH   1   3
ATOM      3  C   UNL     1       4.012   4.804  19.542  0.00  0.00    +0.000 A 
ATOM      4  N   UNL     1       3.430   6.020  19.585  0.00  0.00    +0.000 NA
ATOM      5  C   UNL     1       2.196   6.117  20.097  0.00  0.00    +0.000 A 
ATOM      6  N   UNL     1       1.470   5.103  20.555  0.00  0.00    +0.000 NA
ATOM      7  C   UNL     1       2.067   3.896  20.488  0.00  0.00    +0.000 A 
ATOM      8 CL   UNL     1       1.057   2.656  21.133  0.00  0.00    +0.000 Cl
ATOM      9  C   UNL     1       3.342   3.674  19.998  0.00  0.00    +0.000 A 
BRANCH   9  10
ATOM     10  C   UNL     1       3.919   2.324  19.992  0.00  0.00    +0.000 C 
ATOM     11  N   UNL     1       5.092   2.071  20.480  0.00  0.00    +0.000 NA
BRANCH  11  12
ATOM     12  O   UNL     1       5.356   0.705  20.335  0.00  0.00    +0.000 OA
ATOM     13  H   UNL     1       6.331   0.672  20.346  0.00  0.00    +0.000 HD
ENDBRANCH  11  12
ENDBRANCH   9  10
ENDBRANCH   1   3
BRANCH   1  14
ATOM     14  C   UNL     1       5.602   5.804  18.024  0.00  0.00    +0.000 C 
BRANCH  14  18
ATOM     15  C   UNL     1       6.360   4.269  14.052  0.00  0.00    +0.000 A 
ATOM     16  C   UNL     1       7.365   4.933  14.756  0.00  0.00    +0.000 A 
ATOM     17  C   UNL     1       7.121   5.439  16.036  0.00  0.00    +0.000 A 
ATOM     18  C   UNL     1       5.859   5.291  16.628  0.00  0.00    +0.000 A 
ATOM     19  C   UNL     1       4.844   4.654  15.902  0.00  0.00    +0.000 A 
ATOM     20  C   UNL     1       5.093   4.143  14.623  0.00  0.00    +0.000 A 
BRANCH  15  22
ATOM     21  C   UNL     1       5.689   3.167  12.071  0.00  0.00    +0.000 C 
ATOM     22  O   UNL     1       6.713   3.826  12.807  0.00  0.00    +0.000 OA
ENDBRANCH  15  22
ENDBRANCH  14  18
ENDBRANCH   1  14
TORSDOF 6
ENDMDL
MODEL 9
REMARK VINA RESULT:      -6.6      2.749      3.746
REMARK  Name = 
REMARK  7 active torsions:
REMARK  status: ('A' for Active; 'I' for Inactive)
REMARK    1  A    between atoms: C_1  and  O_2
REMARK    2  A    between atoms: O_2  and  C_3
REMARK    3  A    between atoms: C_6  and  C_7
REMARK    4  A    between atoms: C_7  and  N_8
REMARK    5  A    between atoms: N_8  and  C_9
REMARK    6  A    between atoms: C_15  and  C_16
REMARK    7  A    between atoms: N_17  and  O_18
REMARK                            x       y       z     vdW  Elec       q    Type
REMARK                         _______ _______ _______ _____ _____    ______ ____
ROOT
ATOM      1  N   UNL     1       5.229   4.616  18.694  0.00  0.00    +0.000 N 
ATOM      2  H   UNL     1       5.969   4.341  19.341  0.00  0.00    +0.000 HD
ENDROOT
BRANCH   1   3
ATOM      3  C   UNL     1       4.024   4.814  19.388  0.00  0.00    +0.000 A 
ATOM      4  N   UNL     1       3.495   6.055  19.378  0.00  0.00    +0.000 NA
ATOM      5  C   UNL     1       2.303   6.243  19.959  0.00  0.00    +0.000 A 
ATOM      6  N   UNL     1       1.570   5.298  20.536  0.00  0.00    +0.000 NA
ATOM      7  C   UNL     1       2.112   4.064  20.521  0.00  0.00    +0.000 A 
ATOM      8 CL   UNL     1       1.099   2.919  21.319  0.00  0.00    +0.000 Cl
ATOM      9  C   UNL     1       3.341   3.750  19.968  0.00  0.00    +0.000 A 
BRANCH   9  10
ATOM     10  C   UNL     1       3.863   2.379  20.025  0.00  0.00    +0.000 C 
ATOM     11  N   UNL     1       5.121   2.124  20.194  0.00  0.00    +0.000 NA
BRANCH  11  12
ATOM     12  O   UNL     1       5.302   0.737  20.212  0.00  0.00    +0.000 OA
ATOM     13  H   UNL     1       6.240   0.639  19.964  0.00  0.00    +0.000 HD
ENDBRANCH  11  12
ENDBRANCH   9  10
ENDBRANCH   1   3
BRANCH   1  14
ATOM     14  C   UNL     1       5.606   5.690  17.787  0.00  0.00    +0.000 C 
BRANCH  14  18
ATOM     15  C   UNL     1       6.413   4.185  13.813  0.00  0.00    +0.000 A 
ATOM     16  C   UNL     1       5.248   3.816  14.484  0.00  0.00    +0.000 A 
ATOM     17  C   UNL     1       4.987   4.293  15.772  0.00  0.00    +0.000 A 
ATOM     18  C   UNL     1       5.900   5.144  16.411  0.00  0.00    +0.000 A 
ATOM     19  C   UNL     1       7.084   5.484  15.745  0.00  0.00    +0.000 A 
ATOM     20  C   UNL     1       7.339   5.011  14.453  0.00  0.00    +0.000 A 
BRANCH  15  22
ATOM     21  C   UNL     1       5.376   3.149  11.958  0.00  0.00    +0.000 C 
ATOM     22  O   UNL     1       6.562   3.651  12.563  0.00  0.00    +0.000 OA
ENDBRANCH  15  22
ENDBRANCH  14  18
ENDBRANCH   1  14
TORSDOF 6
ENDMDL
