MODEL 1
REMARK VINA RESULT:      -9.5      0.000      0.000
REMARK  Name = 
REMARK  10 active torsions:
REMARK  status: ('A' for Active; 'I' for Inactive)
REMARK    1  A    between atoms: C_1  and  O_2
REMARK    2  A    between atoms: O_2  and  C_3
REMARK    3  A    between atoms: C_6  and  C_7
REMARK    4  A    between atoms: C_7  and  C_8
REMARK    5  A    between atoms: C_8  and  C_9
REMARK    6  A    between atoms: C_8  and  O_10
REMARK    7  A    between atoms: C_8  and  C_11
REMARK    8  A    between atoms: N_17  and  C_18
REMARK    9  A    between atoms: C_18  and  C_19
REMARK   10  A    between atoms: C_19  and  C_20
REMARK                            x       y       z     vdW  Elec       q    Type
REMARK                         _______ _______ _______ _____ _____    ______ ____
ROOT
ATOM      1  C   UNL     1       5.271   3.904  16.798  0.00  0.00    +0.000 A 
ATOM      2  C   UNL     1       5.283   3.297  15.586  0.00  0.00    +0.000 A 
ATOM      3  C   UNL     1       6.083   3.780  14.482  0.00  0.00    +0.000 A 
ATOM      4  C   UNL     1       6.869   4.855  14.611  0.00  0.00    +0.000 A 
ATOM      5  C   UNL     1       6.895   5.510  15.926  0.00  0.00    +0.000 A 
ATOM      6  N   UNL     1       7.623   6.543  16.222  0.00  0.00    +0.000 NA
ATOM      7  N   UNL     1       7.295   6.797  17.531  0.00  0.00    +0.000 N 
ATOM      8  C   UNL     1       6.351   5.858  17.996  0.00  0.00    +0.000 A 
ATOM      9  O   UNL     1       5.881   5.805  19.116  0.00  0.00    +0.000 OA
ATOM     10  N   UNL     1       6.107   5.019  16.928  0.00  0.00    +0.000 N 
ENDROOT
BRANCH   1  11
ATOM     11  C   UNL     1       4.312   3.451  17.944  0.00  0.00    +0.000 C 
ATOM     12  C   UNL     1       4.863   3.869  19.331  0.00  0.00    +0.000 C 
BRANCH  11  13
ATOM     13  O   UNL     1       4.320   2.016  17.967  0.00  0.00    +0.000 OA
ATOM     14  H   UNL     1       3.767   1.715  17.217  0.00  0.00    +0.000 HD
ENDBRANCH  11  13
BRANCH  11  15
ATOM     15  C   UNL     1       2.855   4.005  17.798  0.00  0.00    +0.000 C 
BRANCH  15  19
ATOM     16  C   UNL     1       1.895   7.574  20.099  0.00  0.00    +0.000 A 
ATOM     17  C   UNL     1       1.704   6.304  20.645  0.00  0.00    +0.000 A 
ATOM     18  C   UNL     1       2.033   5.156  19.916  0.00  0.00    +0.000 A 
ATOM     19  C   UNL     1       2.531   5.255  18.609  0.00  0.00    +0.000 A 
ATOM     20  C   UNL     1       2.704   6.534  18.062  0.00  0.00    +0.000 A 
ATOM     21  C   UNL     1       2.391   7.686  18.802  0.00  0.00    +0.000 A 
BRANCH  16  23
ATOM     22  C   UNL     1       0.720   9.619  20.311  0.00  0.00    +0.000 C 
ATOM     23  O   UNL     1       1.532   8.616  20.909  0.00  0.00    +0.000 OA
ENDBRANCH  16  23
ENDBRANCH  15  19
ENDBRANCH  11  15
ENDBRANCH   1  11
BRANCH   7  24
ATOM     24  C   UNL     1       7.986   7.809  18.309  0.00  0.00    +0.000 C 
BRANCH  24  25
ATOM     25  C   UNL     1       8.198   9.136  17.582  0.00  0.00    +0.000 C 
BRANCH  25  26
ATOM     26  C   UNL     1       8.810  10.226  18.427  0.00  0.00    +0.000 A 
ATOM     27  C   UNL     1       9.142   9.930  19.743  0.00  0.00    +0.000 A 
ATOM     28  C   UNL     1       9.607  10.944  20.563  0.00  0.00    +0.000 A 
ATOM     29  C   UNL     1       9.840  12.205  20.026  0.00  0.00    +0.000 A 
ATOM     30  C   UNL     1      10.420  13.207  20.819  0.00  0.00    +0.000 A 
ATOM     31  C   UNL     1      10.790  14.419  20.251  0.00  0.00    +0.000 A 
ATOM     32  C   UNL     1      10.517  14.653  18.908  0.00  0.00    +0.000 A 
ATOM     33  C   UNL     1       9.872  13.670  18.138  0.00  0.00    +0.000 A 
ATOM     34  C   UNL     1       9.537  12.424  18.665  0.00  0.00    +0.000 A 
ATOM     35  N   UNL     1       8.985  11.460  17.889  0.00  0.00    +0.000 NA
ENDBRANCH  25  26
ENDBRANCH  24  25
ENDBRANCH   7  24
TORSDOF 8
ENDMDL
MODEL 2
REMARK VINA RESULT:      -9.4      5.064     10.090
REMARK  Name = 
REMARK  10 active torsions:
REMARK  status: ('A' for Active; 'I' for Inactive)
REMARK    1  A    between atoms: C_1  and  O_2
REMARK    2  A    between atoms: O_2  and  C_3
REMARK    3  A    between atoms: C_6  and  C_7
REMARK    4  A    between atoms: C_7  and  C_8
REMARK    5  A    between atoms: C_8  and  C_9
REMARK    6  A    between atoms: C_8  and  O_10
REMARK    7  A    between atoms: C_8  and  C_11
REMARK    8  A    between atoms: N_17  and  C_18
REMARK    9  A    between atoms: C_18  and  C_19
REMARK   10  A    between atoms: C_19  and  C_20
REMARK                            x       y       z     vdW  Elec       q    Type
REMARK                         _______ _______ _______ _____ _____    ______ ____
ROOT
ATOM      1  C   UNL     1      -1.225  11.813  21.027  0.00  0.00    +0.000 A 
ATOM      2  C   UNL     1      -1.343  11.647  22.367  0.00  0.00    +0.000 A 
ATOM      3  C   UNL     1      -0.744  10.534  23.069  0.00  0.00    +0.000 A 
ATOM      4  C   UNL     1      -0.024   9.610  22.422  0.00  0.00    +0.000 A 
ATOM      5  C   UNL     1       0.142   9.788  20.973  0.00  0.00    +0.000 A 
ATOM      6  N   UNL     1       0.832   8.997  20.207  0.00  0.00    +0.000 NA
ATOM      7  N   UNL     1       0.675   9.551  18.960  0.00  0.00    +0.000 N 
ATOM      8  C   UNL     1      -0.125  10.710  19.028  0.00  0.00    +0.000 A 
ATOM      9  O   UNL     1      -0.426  11.432  18.099  0.00  0.00    +0.000 OA
ATOM     10  N   UNL     1      -0.459  10.849  20.360  0.00  0.00    +0.000 N 
ENDROOT
BRANCH   1  11
ATOM     11  C   UNL     1      -1.977  12.947  20.261  0.00  0.00    +0.000 C 
ATOM     12  C   UNL     1      -2.999  13.660  21.181  0.00  0.00    +0.000 C 
BRANCH  11  13
ATOM     13  O   UNL     1      -2.775  12.321  19.246  0.00  0.00    +0.000 OA
ATOM     14  H   UNL     1      -2.535  12.741  18.394  0.00  0.00    +0.000 HD
ENDBRANCH  11  13
BRANCH  11  15
ATOM     15  C   UNL     1      -1.024  14.025  19.644  0.00  0.00    +0.000 C 
BRANCH  15  19
ATOM     16  C   UNL     1       2.388  15.141  22.108  0.00  0.00    +0.000 A 
ATOM     17  C   UNL     1       2.534  14.227  21.064  0.00  0.00    +0.000 A 
ATOM     18  C   UNL     1       1.444  13.884  20.256  0.00  0.00    +0.000 A 
ATOM     19  C   UNL     1       0.174  14.426  20.499  0.00  0.00    +0.000 A 
ATOM     20  C   UNL     1       0.032  15.330  21.561  0.00  0.00    +0.000 A 
ATOM     21  C   UNL     1       1.131  15.687  22.359  0.00  0.00    +0.000 A 
BRANCH  16  23
ATOM     22  C   UNL     1       4.616  15.942  22.099  0.00  0.00    +0.000 C 
ATOM     23  O   UNL     1       3.526  15.390  22.826  0.00  0.00    +0.000 OA
ENDBRANCH  16  23
ENDBRANCH  15  19
ENDBRANCH  11  15
ENDBRANCH   1  11
BRANCH   7  24
ATOM     24  C   UNL     1       1.398   9.048  17.806  0.00  0.00    +0.000 C 
BRANCH  24  25
ATOM     25  C   UNL     1       2.827   8.592  18.099  0.00  0.00    +0.000 C 
BRANCH  25  26
ATOM     26  C   UNL     1       3.063   7.112  17.925  0.00  0.00    +0.000 A 
ATOM     27  C   UNL     1       4.275   6.697  17.389  0.00  0.00    +0.000 A 
ATOM     28  C   UNL     1       4.468   5.351  17.125  0.00  0.00    +0.000 A 
ATOM     29  C   UNL     1       3.496   4.433  17.506  0.00  0.00    +0.000 A 
ATOM     30  C   UNL     1       3.731   3.059  17.350  0.00  0.00    +0.000 A 
ATOM     31  C   UNL     1       2.830   2.135  17.862  0.00  0.00    +0.000 A 
ATOM     32  C   UNL     1       1.662   2.585  18.467  0.00  0.00    +0.000 A 
ATOM     33  C   UNL     1       1.401   3.963  18.556  0.00  0.00    +0.000 A 
ATOM     34  C   UNL     1       2.310   4.916  18.102  0.00  0.00    +0.000 A 
ATOM     35  N   UNL     1       2.077   6.241  18.265  0.00  0.00    +0.000 NA
ENDBRANCH  25  26
ENDBRANCH  24  25
ENDBRANCH   7  24
TORSDOF 8
ENDMDL
MODEL 3
REMARK VINA RESULT:      -9.3      5.359     10.294
REMARK  Name = 
REMARK  10 active torsions:
REMARK  status: ('A' for Active; 'I' for Inactive)
REMARK    1  A    between atoms: C_1  and  O_2
REMARK    2  A    between atoms: O_2  and  C_3
REMARK    3  A    between atoms: C_6  and  C_7
REMARK    4  A    between atoms: C_7  and  C_8
REMARK    5  A    between atoms: C_8  and  C_9
REMARK    6  A    between atoms: C_8  and  O_10
REMARK    7  A    between atoms: C_8  and  C_11
REMARK    8  A    between atoms: N_17  and  C_18
REMARK    9  A    between atoms: C_18  and  C_19
REMARK   10  A    between atoms: C_19  and  C_20
REMARK                            x       y       z     vdW  Elec       q    Type
REMARK                         _______ _______ _______ _____ _____    ______ ____
ROOT
ATOM      1  C   UNL     1      -0.325  11.854  21.543  0.00  0.00    +0.000 A 
ATOM      2  C   UNL     1      -0.721  11.431  22.767  0.00  0.00    +0.000 A 
ATOM      3  C   UNL     1      -0.710  10.036  23.151  0.00  0.00    +0.000 A 
ATOM      4  C   UNL     1      -0.287   9.087  22.307  0.00  0.00    +0.000 A 
ATOM      5  C   UNL     1       0.176   9.528  20.984  0.00  0.00    +0.000 A 
ATOM      6  N   UNL     1       0.641   8.737  20.064  0.00  0.00    +0.000 NA
ATOM      7  N   UNL     1       0.916   9.591  19.025  0.00  0.00    +0.000 N 
ATOM      8  C   UNL     1       0.607  10.921  19.379  0.00  0.00    +0.000 A 
ATOM      9  O   UNL     1       0.759  11.905  18.683  0.00  0.00    +0.000 OA
ATOM     10  N   UNL     1       0.128  10.856  20.671  0.00  0.00    +0.000 N 
ENDROOT
BRANCH   1  11
ATOM     11  C   UNL     1      -0.458  13.344  21.095  0.00  0.00    +0.000 C 
ATOM     12  C   UNL     1      -1.540  14.081  21.924  0.00  0.00    +0.000 C 
BRANCH  11  13
ATOM     13  O   UNL     1      -0.964  13.345  19.753  0.00  0.00    +0.000 OA
ATOM     14  H   UNL     1      -1.105  14.280  19.500  0.00  0.00    +0.000 HD
ENDBRANCH  11  13
BRANCH  11  15
ATOM     15  C   UNL     1       0.881  14.150  21.194  0.00  0.00    +0.000 C 
BRANCH  15  19
ATOM     16  C   UNL     1       1.573  17.144  18.109  0.00  0.00    +0.000 A 
ATOM     17  C   UNL     1       2.379  16.008  18.190  0.00  0.00    +0.000 A 
ATOM     18  C   UNL     1       2.144  15.033  19.166  0.00  0.00    +0.000 A 
ATOM     19  C   UNL     1       1.115  15.193  20.105  0.00  0.00    +0.000 A 
ATOM     20  C   UNL     1       0.322  16.345  20.028  0.00  0.00    +0.000 A 
ATOM     21  C   UNL     1       0.547  17.313  19.036  0.00  0.00    +0.000 A 
BRANCH  16  23
ATOM     22  C   UNL     1       0.819  18.630  16.427  0.00  0.00    +0.000 C 
ATOM     23  O   UNL     1       1.906  18.024  17.115  0.00  0.00    +0.000 OA
ENDBRANCH  16  23
ENDBRANCH  15  19
ENDBRANCH  11  15
ENDBRANCH   1  11
BRANCH   7  24
ATOM     24  C   UNL     1       1.584   9.135  17.819  0.00  0.00    +0.000 C 
BRANCH  24  25
ATOM     25  C   UNL     1       3.015   8.644  18.032  0.00  0.00    +0.000 C 
BRANCH  25  26
ATOM     26  C   UNL     1       3.201   7.156  17.864  0.00  0.00    +0.000 A 
ATOM     27  C   UNL     1       4.404   6.698  17.342  0.00  0.00    +0.000 A 
ATOM     28  C   UNL     1       4.552   5.345  17.083  0.00  0.00    +0.000 A 
ATOM     29  C   UNL     1       3.545   4.462  17.457  0.00  0.00    +0.000 A 
ATOM     30  C   UNL     1       3.733   3.081  17.307  0.00  0.00    +0.000 A 
ATOM     31  C   UNL     1       2.796   2.190  17.811  0.00  0.00    +0.000 A 
ATOM     32  C   UNL     1       1.638   2.683  18.403  0.00  0.00    +0.000 A 
ATOM     33  C   UNL     1       1.424   4.069  18.486  0.00  0.00    +0.000 A 
ATOM     34  C   UNL     1       2.371   4.989  18.038  0.00  0.00    +0.000 A 
ATOM     35  N   UNL     1       2.183   6.321  18.196  0.00  0.00    +0.000 NA
ENDBRANCH  25  26
ENDBRANCH  24  25
ENDBRANCH   7  24
TORSDOF 8
ENDMDL
MODEL 4
REMARK VINA RESULT:      -9.3      5.456     10.835
REMARK  Name = 
REMARK  10 active torsions:
REMARK  status: ('A' for Active; 'I' for Inactive)
REMARK    1  A    between atoms: C_1  and  O_2
REMARK    2  A    between atoms: O_2  and  C_3
REMARK    3  A    between atoms: C_6  and  C_7
REMARK    4  A    between atoms: C_7  and  C_8
REMARK    5  A    between atoms: C_8  and  C_9
REMARK    6  A    between atoms: C_8  and  O_10
REMARK    7  A    between atoms: C_8  and  C_11
REMARK    8  A    between atoms: N_17  and  C_18
REMARK    9  A    between atoms: C_18  and  C_19
REMARK   10  A    between atoms: C_19  and  C_20
REMARK                            x       y       z     vdW  Elec       q    Type
REMARK                         _______ _______ _______ _____ _____    ______ ____
ROOT
ATOM      1  C   UNL     1      -0.154  13.215  20.375  0.00  0.00    +0.000 A 
ATOM      2  C   UNL     1      -0.557  14.224  21.185  0.00  0.00    +0.000 A 
ATOM      3  C   UNL     1      -1.065  13.994  22.520  0.00  0.00    +0.000 A 
ATOM      4  C   UNL     1      -1.149  12.759  23.029  0.00  0.00    +0.000 A 
ATOM      5  C   UNL     1      -0.688  11.653  22.178  0.00  0.00    +0.000 A 
ATOM      6  N   UNL     1      -0.678  10.404  22.533  0.00  0.00    +0.000 NA
ATOM      7  N   UNL     1      -0.193   9.764  21.419  0.00  0.00    +0.000 N 
ATOM      8  C   UNL     1       0.095  10.693  20.398  0.00  0.00    +0.000 A 
ATOM      9  O   UNL     1       0.555  10.439  19.303  0.00  0.00    +0.000 OA
ATOM     10  N   UNL     1      -0.233  11.928  20.920  0.00  0.00    +0.000 N 
ENDROOT
BRANCH   1  11
ATOM     11  C   UNL     1       0.275  13.460  18.893  0.00  0.00    +0.000 C 
ATOM     12  C   UNL     1      -0.100  14.891  18.433  0.00  0.00    +0.000 C 
BRANCH  11  13
ATOM     13  O   UNL     1      -0.516  12.593  18.069  0.00  0.00    +0.000 OA
ATOM     14  H   UNL     1       0.106  12.011  17.586  0.00  0.00    +0.000 HD
ENDBRANCH  11  13
BRANCH  11  15
ATOM     15  C   UNL     1       1.804  13.239  18.639  0.00  0.00    +0.000 C 
BRANCH  15  19
ATOM     16  C   UNL     1       4.401  16.666  19.326  0.00  0.00    +0.000 A 
ATOM     17  C   UNL     1       4.019  16.312  18.031  0.00  0.00    +0.000 A 
ATOM     18  C   UNL     1       3.166  15.225  17.810  0.00  0.00    +0.000 A 
ATOM     19  C   UNL     1       2.704  14.448  18.881  0.00  0.00    +0.000 A 
ATOM     20  C   UNL     1       3.105  14.800  20.176  0.00  0.00    +0.000 A 
ATOM     21  C   UNL     1       3.946  15.902  20.398  0.00  0.00    +0.000 A 
BRANCH  16  23
ATOM     22  C   UNL     1       5.360  18.343  20.695  0.00  0.00    +0.000 C 
ATOM     23  O   UNL     1       5.239  17.744  19.410  0.00  0.00    +0.000 OA
ENDBRANCH  16  23
ENDBRANCH  15  19
ENDBRANCH  11  15
ENDBRANCH   1  11
BRANCH   7  24
ATOM     24  C   UNL     1       0.107   8.343  21.425  0.00  0.00    +0.000 C 
BRANCH  24  25
ATOM     25  C   UNL     1       1.578   8.003  21.189  0.00  0.00    +0.000 C 
BRANCH  25  26
ATOM     26  C   UNL     1       1.812   6.842  20.253  0.00  0.00    +0.000 A 
ATOM     27  C   UNL     1       2.426   7.094  19.033  0.00  0.00    +0.000 A 
ATOM     28  C   UNL     1       2.554   6.061  18.119  0.00  0.00    +0.000 A 
ATOM     29  C   UNL     1       2.173   4.774  18.484  0.00  0.00    +0.000 A 
ATOM     30  C   UNL     1       2.406   3.702  17.610  0.00  0.00    +0.000 A 
ATOM     31  C   UNL     1       2.164   2.399  18.026  0.00  0.00    +0.000 A 
ATOM     32  C   UNL     1       1.625   2.176  19.288  0.00  0.00    +0.000 A 
ATOM     33  C   UNL     1       1.328   3.261  20.129  0.00  0.00    +0.000 A 
ATOM     34  C   UNL     1       1.610   4.576  19.763  0.00  0.00    +0.000 A 
ATOM     35  N   UNL     1       1.389   5.604  20.617  0.00  0.00    +0.000 NA
ENDBRANCH  25  26
ENDBRANCH  24  25
ENDBRANCH   7  24
TORSDOF 8
ENDMDL
MODEL 5
REMARK VINA RESULT:      -9.3      4.403      9.234
REMARK  Name = 
REMARK  10 active torsions:
REMARK  status: ('A' for Active; 'I' for Inactive)
REMARK    1  A    between atoms: C_1  and  O_2
REMARK    2  A    between atoms: O_2  and  C_3
REMARK    3  A    between atoms: C_6  and  C_7
REMARK    4  A    between atoms: C_7  and  C_8
REMARK    5  A    between atoms: C_8  and  C_9
REMARK    6  A    between atoms: C_8  and  O_10
REMARK    7  A    between atoms: C_8  and  C_11
REMARK    8  A    between atoms: N_17  and  C_18
REMARK    9  A    between atoms: C_18  and  C_19
REMARK   10  A    between atoms: C_19  and  C_20
REMARK                            x       y       z     vdW  Elec       q    Type
REMARK                         _______ _______ _______ _____ _____    ______ ____
ROOT
ATOM      1  C   UNL     1       0.265  11.257  20.215  0.00  0.00    +0.000 A 
ATOM      2  C   UNL     1      -0.425  11.955  21.149  0.00  0.00    +0.000 A 
ATOM      3  C   UNL     1      -0.787  11.393  22.432  0.00  0.00    +0.000 A 
ATOM      4  C   UNL     1      -0.440  10.145  22.766  0.00  0.00    +0.000 A 
ATOM      5  C   UNL     1       0.336   9.380  21.780  0.00  0.00    +0.000 A 
ATOM      6  N   UNL     1       0.772   8.170  21.962  0.00  0.00    +0.000 NA
ATOM      7  N   UNL     1       1.407   7.884  20.779  0.00  0.00    +0.000 N 
ATOM      8  C   UNL     1       1.339   8.983  19.899  0.00  0.00    +0.000 A 
ATOM      9  O   UNL     1       1.824   9.046  18.786  0.00  0.00    +0.000 OA
ATOM     10  N   UNL     1       0.636   9.956  20.579  0.00  0.00    +0.000 N 
ENDROOT
BRANCH   1  11
ATOM     11  C   UNL     1       0.542  11.827  18.788  0.00  0.00    +0.000 C 
ATOM     12  C   UNL     1      -0.305  13.096  18.519  0.00  0.00    +0.000 C 
BRANCH  11  13
ATOM     13  O   UNL     1       0.064  10.861  17.841  0.00  0.00    +0.000 OA
ATOM     14  H   UNL     1       0.851  10.433  17.446  0.00  0.00    +0.000 HD
ENDBRANCH  11  13
BRANCH  11  15
ATOM     15  C   UNL     1       2.049  12.169  18.532  0.00  0.00    +0.000 C 
BRANCH  15  19
ATOM     16  C   UNL     1       3.307  16.224  19.496  0.00  0.00    +0.000 A 
ATOM     17  C   UNL     1       3.192  15.813  18.168  0.00  0.00    +0.000 A 
ATOM     18  C   UNL     1       2.766  14.517  17.856  0.00  0.00    +0.000 A 
ATOM     19  C   UNL     1       2.477  13.594  18.870  0.00  0.00    +0.000 A 
ATOM     20  C   UNL     1       2.611  14.010  20.202  0.00  0.00    +0.000 A 
ATOM     21  C   UNL     1       3.021  15.316  20.513  0.00  0.00    +0.000 A 
BRANCH  16  23
ATOM     22  C   UNL     1       3.377  18.129  20.902  0.00  0.00    +0.000 C 
ATOM     23  O   UNL     1       3.736  17.512  19.671  0.00  0.00    +0.000 OA
ENDBRANCH  16  23
ENDBRANCH  15  19
ENDBRANCH  11  15
ENDBRANCH   1  11
BRANCH   7  24
ATOM     24  C   UNL     1       2.163   6.657  20.597  0.00  0.00    +0.000 C 
BRANCH  24  25
ATOM     25  C   UNL     1       1.646   5.753  19.478  0.00  0.00    +0.000 C 
BRANCH  25  26
ATOM     26  C   UNL     1       2.707   5.267  18.521  0.00  0.00    +0.000 A 
ATOM     27  C   UNL     1       2.456   4.112  17.792  0.00  0.00    +0.000 A 
ATOM     28  C   UNL     1       3.458   3.594  16.988  0.00  0.00    +0.000 A 
ATOM     29  C   UNL     1       4.648   4.299  16.838  0.00  0.00    +0.000 A 
ATOM     30  C   UNL     1       5.622   3.844  15.937  0.00  0.00    +0.000 A 
ATOM     31  C   UNL     1       6.745   4.618  15.674  0.00  0.00    +0.000 A 
ATOM     32  C   UNL     1       6.925   5.811  16.363  0.00  0.00    +0.000 A 
ATOM     33  C   UNL     1       5.979   6.225  17.316  0.00  0.00    +0.000 A 
ATOM     34  C   UNL     1       4.816   5.498  17.563  0.00  0.00    +0.000 A 
ATOM     35  N   UNL     1       3.877   5.951  18.429  0.00  0.00    +0.000 NA
ENDBRANCH  25  26
ENDBRANCH  24  25
ENDBRANCH   7  24
TORSDOF 8
ENDMDL
MODEL 6
REMARK VINA RESULT:      -9.2      5.230     10.735
REMARK  Name = 
REMARK  10 active torsions:
REMARK  status: ('A' for Active; 'I' for Inactive)
REMARK    1  A    between atoms: C_1  and  O_2
REMARK    2  A    between atoms: O_2  and  C_3
REMARK    3  A    between atoms: C_6  and  C_7
REMARK    4  A    between atoms: C_7  and  C_8
REMARK    5  A    between atoms: C_8  and  C_9
REMARK    6  A    between atoms: C_8  and  O_10
REMARK    7  A    between atoms: C_8  and  C_11
REMARK    8  A    between atoms: N_17  and  C_18
REMARK    9  A    between atoms: C_18  and  C_19
REMARK   10  A    between atoms: C_19  and  C_20
REMARK                            x       y       z     vdW  Elec       q    Type
REMARK                         _______ _______ _______ _____ _____    ______ ____
ROOT
ATOM      1  C   UNL     1      -0.356  13.384  20.415  0.00  0.00    +0.000 A 
ATOM      2  C   UNL     1      -0.666  14.394  21.263  0.00  0.00    +0.000 A 
ATOM      3  C   UNL     1      -1.041  14.166  22.641  0.00  0.00    +0.000 A 
ATOM      4  C   UNL     1      -1.085  12.930  23.154  0.00  0.00    +0.000 A 
ATOM      5  C   UNL     1      -0.722  11.823  22.259  0.00  0.00    +0.000 A 
ATOM      6  N   UNL     1      -0.689  10.572  22.609  0.00  0.00    +0.000 NA
ATOM      7  N   UNL     1      -0.324   9.931  21.451  0.00  0.00    +0.000 N 
ATOM      8  C   UNL     1      -0.131  10.860  20.408  0.00  0.00    +0.000 A 
ATOM      9  O   UNL     1       0.215  10.605  19.272  0.00  0.00    +0.000 OA
ATOM     10  N   UNL     1      -0.392  12.096  20.963  0.00  0.00    +0.000 N 
ENDROOT
BRANCH   1  11
ATOM     11  C   UNL     1      -0.075  13.630  18.898  0.00  0.00    +0.000 C 
ATOM     12  C   UNL     1      -0.197  15.133  18.544  0.00  0.00    +0.000 C 
BRANCH  11  13
ATOM     13  O   UNL     1      -1.128  12.994  18.159  0.00  0.00    +0.000 OA
ATOM     14  H   UNL     1      -1.125  13.387  17.262  0.00  0.00    +0.000 HD
ENDBRANCH  11  13
BRANCH  11  15
ATOM     15  C   UNL     1       1.330  13.119  18.431  0.00  0.00    +0.000 C 
BRANCH  15  19
ATOM     16  C   UNL     1       4.716  15.572  19.643  0.00  0.00    +0.000 A 
ATOM     17  C   UNL     1       4.038  14.787  20.576  0.00  0.00    +0.000 A 
ATOM     18  C   UNL     1       2.964  13.980  20.184  0.00  0.00    +0.000 A 
ATOM     19  C   UNL     1       2.524  13.969  18.853  0.00  0.00    +0.000 A 
ATOM     20  C   UNL     1       3.200  14.774  17.926  0.00  0.00    +0.000 A 
ATOM     21  C   UNL     1       4.290  15.568  18.317  0.00  0.00    +0.000 A 
BRANCH  16  23
ATOM     22  C   UNL     1       6.388  17.200  19.237  0.00  0.00    +0.000 C 
ATOM     23  O   UNL     1       5.745  16.319  20.150  0.00  0.00    +0.000 OA
ENDBRANCH  16  23
ENDBRANCH  15  19
ENDBRANCH  11  15
ENDBRANCH   1  11
BRANCH   7  24
ATOM     24  C   UNL     1      -0.039   8.507  21.425  0.00  0.00    +0.000 C 
BRANCH  24  25
ATOM     25  C   UNL     1       1.440   8.158  21.268  0.00  0.00    +0.000 C 
BRANCH  25  26
ATOM     26  C   UNL     1       1.718   6.997  20.344  0.00  0.00    +0.000 A 
ATOM     27  C   UNL     1       2.362   7.254  19.141  0.00  0.00    +0.000 A 
ATOM     28  C   UNL     1       2.531   6.220  18.235  0.00  0.00    +0.000 A 
ATOM     29  C   UNL     1       2.160   4.929  18.594  0.00  0.00    +0.000 A 
ATOM     30  C   UNL     1       2.433   3.857  17.732  0.00  0.00    +0.000 A 
ATOM     31  C   UNL     1       2.200   2.552  18.146  0.00  0.00    +0.000 A 
ATOM     32  C   UNL     1       1.629   2.325  19.394  0.00  0.00    +0.000 A 
ATOM     33  C   UNL     1       1.293   3.409  20.222  0.00  0.00    +0.000 A 
ATOM     34  C   UNL     1       1.565   4.726  19.858  0.00  0.00    +0.000 A 
ATOM     35  N   UNL     1       1.304   5.754  20.702  0.00  0.00    +0.000 NA
ENDBRANCH  25  26
ENDBRANCH  24  25
ENDBRANCH   7  24
TORSDOF 8
ENDMDL
MODEL 7
REMARK VINA RESULT:      -9.2      5.914     10.515
REMARK  Name = 
REMARK  10 active torsions:
REMARK  status: ('A' for Active; 'I' for Inactive)
REMARK    1  A    between atoms: C_1  and  O_2
REMARK    2  A    between atoms: O_2  and  C_3
REMARK    3  A    between atoms: C_6  and  C_7
REMARK    4  A    between atoms: C_7  and  C_8
REMARK    5  A    between atoms: C_8  and  C_9
REMARK    6  A    between atoms: C_8  and  O_10
REMARK    7  A    between atoms: C_8  and  C_11
REMARK    8  A    between atoms: N_17  and  C_18
REMARK    9  A    between atoms: C_18  and  C_19
REMARK   10  A    between atoms: C_19  and  C_20
REMARK                            x       y       z     vdW  Elec       q    Type
REMARK                         _______ _______ _______ _____ _____    ______ ____
ROOT
ATOM      1  C   UNL     1      -3.182  12.020  19.326  0.00  0.00    +0.000 A 
ATOM      2  C   UNL     1      -4.262  11.734  18.559  0.00  0.00    +0.000 A 
ATOM      3  C   UNL     1      -4.198  10.832  17.430  0.00  0.00    +0.000 A 
ATOM      4  C   UNL     1      -3.057  10.218  17.095  0.00  0.00    +0.000 A 
ATOM      5  C   UNL     1      -1.881  10.490  17.932  0.00  0.00    +0.000 A 
ATOM      6  N   UNL     1      -0.711   9.956  17.757  0.00  0.00    +0.000 NA
ATOM      7  N   UNL     1       0.047  10.523  18.751  0.00  0.00    +0.000 N 
ATOM      8  C   UNL     1      -0.732  11.405  19.528  0.00  0.00    +0.000 A 
ATOM      9  O   UNL     1      -0.353  12.041  20.492  0.00  0.00    +0.000 OA
ATOM     10  N   UNL     1      -1.996  11.364  18.976  0.00  0.00    +0.000 N 
ENDROOT
BRANCH   1  11
ATOM     11  C   UNL     1      -3.230  13.089  20.464  0.00  0.00    +0.000 C 
ATOM     12  C   UNL     1      -4.562  13.879  20.431  0.00  0.00    +0.000 C 
BRANCH  11  13
ATOM     13  O   UNL     1      -2.219  14.065  20.177  0.00  0.00    +0.000 OA
ATOM     14  H   UNL     1      -1.353  13.619  20.278  0.00  0.00    +0.000 HD
ENDBRANCH  11  13
BRANCH  11  15
ATOM     15  C   UNL     1      -3.043  12.487  21.897  0.00  0.00    +0.000 C 
BRANCH  15  19
ATOM     16  C   UNL     1      -2.038  15.352  25.017  0.00  0.00    +0.000 A 
ATOM     17  C   UNL     1      -3.358  14.942  24.829  0.00  0.00    +0.000 A 
ATOM     18  C   UNL     1      -3.680  14.003  23.841  0.00  0.00    +0.000 A 
ATOM     19  C   UNL     1      -2.689  13.481  22.999  0.00  0.00    +0.000 A 
ATOM     20  C   UNL     1      -1.368  13.912  23.184  0.00  0.00    +0.000 A 
ATOM     21  C   UNL     1      -1.044  14.839  24.187  0.00  0.00    +0.000 A 
BRANCH  16  23
ATOM     22  C   UNL     1      -0.617  16.199  26.712  0.00  0.00    +0.000 C 
ATOM     23  O   UNL     1      -1.852  16.275  26.010  0.00  0.00    +0.000 OA
ENDBRANCH  16  23
ENDBRANCH  15  19
ENDBRANCH  11  15
ENDBRANCH   1  11
BRANCH   7  24
ATOM     24  C   UNL     1       1.413  10.100  19.004  0.00  0.00    +0.000 C 
BRANCH  24  25
ATOM     25  C   UNL     1       2.063   9.327  17.857  0.00  0.00    +0.000 C 
BRANCH  25  26
ATOM     26  C   UNL     1       2.521   7.935  18.217  0.00  0.00    +0.000 A 
ATOM     27  C   UNL     1       3.546   7.366  17.473  0.00  0.00    +0.000 A 
ATOM     28  C   UNL     1       3.907   6.052  17.720  0.00  0.00    +0.000 A 
ATOM     29  C   UNL     1       3.320   5.369  18.779  0.00  0.00    +0.000 A 
ATOM     30  C   UNL     1       3.761   4.080  19.111  0.00  0.00    +0.000 A 
ATOM     31  C   UNL     1       3.284   3.452  20.254  0.00  0.00    +0.000 A 
ATOM     32  C   UNL     1       2.315   4.085  21.025  0.00  0.00    +0.000 A 
ATOM     33  C   UNL     1       1.827   5.346  20.646  0.00  0.00    +0.000 A 
ATOM     34  C   UNL     1       2.325   6.026  19.535  0.00  0.00    +0.000 A 
ATOM     35  N   UNL     1       1.898   7.275  19.228  0.00  0.00    +0.000 NA
ENDBRANCH  25  26
ENDBRANCH  24  25
ENDBRANCH   7  24
TORSDOF 8
ENDMDL
MODEL 8
REMARK VINA RESULT:      -9.1      6.048     10.588
REMARK  Name = 
REMARK  10 active torsions:
REMARK  status: ('A' for Active; 'I' for Inactive)
REMARK    1  A    between atoms: C_1  and  O_2
REMARK    2  A    between atoms: O_2  and  C_3
REMARK    3  A    between atoms: C_6  and  C_7
REMARK    4  A    between atoms: C_7  and  C_8
REMARK    5  A    between atoms: C_8  and  C_9
REMARK    6  A    between atoms: C_8  and  O_10
REMARK    7  A    between atoms: C_8  and  C_11
REMARK    8  A    between atoms: N_17  and  C_18
REMARK    9  A    between atoms: C_18  and  C_19
REMARK   10  A    between atoms: C_19  and  C_20
REMARK                            x       y       z     vdW  Elec       q    Type
REMARK                         _______ _______ _______ _____ _____    ______ ____
ROOT
ATOM      1  C   UNL     1      -2.594  11.856  19.330  0.00  0.00    +0.000 A 
ATOM      2  C   UNL     1      -3.732  11.542  18.664  0.00  0.00    +0.000 A 
ATOM      3  C   UNL     1      -3.753  10.620  17.550  0.00  0.00    +0.000 A 
ATOM      4  C   UNL     1      -2.636  10.014  17.129  0.00  0.00    +0.000 A 
ATOM      5  C   UNL     1      -1.396  10.316  17.857  0.00  0.00    +0.000 A 
ATOM      6  N   UNL     1      -0.238   9.792  17.591  0.00  0.00    +0.000 NA
ATOM      7  N   UNL     1       0.594  10.387  18.507  0.00  0.00    +0.000 N 
ATOM      8  C   UNL     1      -0.128  11.273  19.332  0.00  0.00    +0.000 A 
ATOM      9  O   UNL     1       0.323  11.932  20.248  0.00  0.00    +0.000 OA
ATOM     10  N   UNL     1      -1.433  11.207  18.891  0.00  0.00    +0.000 N 
ENDROOT
BRANCH   1  11
ATOM     11  C   UNL     1      -2.560  12.945  20.449  0.00  0.00    +0.000 C 
ATOM     12  C   UNL     1      -3.902  13.714  20.521  0.00  0.00    +0.000 C 
BRANCH  11  13
ATOM     13  O   UNL     1      -1.595  13.931  20.056  0.00  0.00    +0.000 OA
ATOM     14  H   UNL     1      -1.818  14.756  20.535  0.00  0.00    +0.000 HD
ENDBRANCH  11  13
BRANCH  11  15
ATOM     15  C   UNL     1      -2.235  12.373  21.870  0.00  0.00    +0.000 C 
BRANCH  15  19
ATOM     16  C   UNL     1      -1.964  15.323  25.061  0.00  0.00    +0.000 A 
ATOM     17  C   UNL     1      -3.100  14.524  24.927  0.00  0.00    +0.000 A 
ATOM     18  C   UNL     1      -3.180  13.560  23.915  0.00  0.00    +0.000 A 
ATOM     19  C   UNL     1      -2.135  13.397  22.996  0.00  0.00    +0.000 A 
ATOM     20  C   UNL     1      -1.004  14.215  23.128  0.00  0.00    +0.000 A 
ATOM     21  C   UNL     1      -0.918  15.169  24.154  0.00  0.00    +0.000 A 
BRANCH  16  23
ATOM     22  C   UNL     1      -1.481  17.520  25.801  0.00  0.00    +0.000 C 
ATOM     23  O   UNL     1      -2.009  16.230  26.085  0.00  0.00    +0.000 OA
ENDBRANCH  16  23
ENDBRANCH  15  19
ENDBRANCH  11  15
ENDBRANCH   1  11
BRANCH   7  24
ATOM     24  C   UNL     1       1.982   9.986  18.650  0.00  0.00    +0.000 C 
BRANCH  24  25
ATOM     25  C   UNL     1       2.360   8.717  17.885  0.00  0.00    +0.000 C 
BRANCH  25  26
ATOM     26  C   UNL     1       2.121   7.433  18.640  0.00  0.00    +0.000 A 
ATOM     27  C   UNL     1       1.912   7.505  20.011  0.00  0.00    +0.000 A 
ATOM     28  C   UNL     1       1.796   6.330  20.735  0.00  0.00    +0.000 A 
ATOM     29  C   UNL     1       1.775   5.112  20.065  0.00  0.00    +0.000 A 
ATOM     30  C   UNL     1       1.541   3.926  20.776  0.00  0.00    +0.000 A 
ATOM     31  C   UNL     1       1.372   2.727  20.096  0.00  0.00    +0.000 A 
ATOM     32  C   UNL     1       1.506   2.704  18.712  0.00  0.00    +0.000 A 
ATOM     33  C   UNL     1       1.811   3.885  18.014  0.00  0.00    +0.000 A 
ATOM     34  C   UNL     1       1.932   5.113  18.662  0.00  0.00    +0.000 A 
ATOM     35  N   UNL     1       2.150   6.254  17.965  0.00  0.00    +0.000 NA
ENDBRANCH  25  26
ENDBRANCH  24  25
ENDBRANCH   7  24
TORSDOF 8
ENDMDL
MODEL 9
REMARK VINA RESULT:      -9.1      5.578      9.764
REMARK  Name = 
REMARK  10 active torsions:
REMARK  status: ('A' for Active; 'I' for Inactive)
REMARK    1  A    between atoms: C_1  and  O_2
REMARK    2  A    between atoms: O_2  and  C_3
REMARK    3  A    between atoms: C_6  and  C_7
REMARK    4  A    between atoms: C_7  and  C_8
REMARK    5  A    between atoms: C_8  and  C_9
REMARK    6  A    between atoms: C_8  and  O_10
REMARK    7  A    between atoms: C_8  and  C_11
REMARK    8  A    between atoms: N_17  and  C_18
REMARK    9  A    between atoms: C_18  and  C_19
REMARK   10  A    between atoms: C_19  and  C_20
REMARK                            x       y       z     vdW  Elec       q    Type
REMARK                         _______ _______ _______ _____ _____    ______ ____
ROOT
ATOM      1  C   UNL     1      -0.525  12.767  19.534  0.00  0.00    +0.000 A 
ATOM      2  C   UNL     1      -1.519  12.883  18.621  0.00  0.00    +0.000 A 
ATOM      3  C   UNL     1      -2.120  11.737  17.976  0.00  0.00    +0.000 A 
ATOM      4  C   UNL     1      -1.728  10.490  18.265  0.00  0.00    +0.000 A 
ATOM      5  C   UNL     1      -0.673  10.341  19.277  0.00  0.00    +0.000 A 
ATOM      6  N   UNL     1      -0.201   9.203  19.688  0.00  0.00    +0.000 NA
ATOM      7  N   UNL     1       0.759   9.570  20.597  0.00  0.00    +0.000 N 
ATOM      8  C   UNL     1       0.823  10.974  20.714  0.00  0.00    +0.000 A 
ATOM      9  O   UNL     1       1.556  11.603  21.451  0.00  0.00    +0.000 OA
ATOM     10  N   UNL     1      -0.130  11.459  19.841  0.00  0.00    +0.000 N 
ENDROOT
BRANCH   1  11
ATOM     11  C   UNL     1       0.203  14.012  20.133  0.00  0.00    +0.000 C 
ATOM     12  C   UNL     1      -0.180  15.304  19.368  0.00  0.00    +0.000 C 
BRANCH  11  13
ATOM     13  O   UNL     1       1.607  13.846  19.887  0.00  0.00    +0.000 OA
ATOM     14  H   UNL     1       1.706  13.600  18.944  0.00  0.00    +0.000 HD
ENDBRANCH  11  13
BRANCH  11  15
ATOM     15  C   UNL     1      -0.081  14.232  21.657  0.00  0.00    +0.000 C 
BRANCH  15  19
ATOM     16  C   UNL     1      -3.948  12.814  23.068  0.00  0.00    +0.000 A 
ATOM     17  C   UNL     1      -2.777  12.134  23.404  0.00  0.00    +0.000 A 
ATOM     18  C   UNL     1      -1.530  12.601  22.970  0.00  0.00    +0.000 A 
ATOM     19  C   UNL     1      -1.434  13.742  22.162  0.00  0.00    +0.000 A 
ATOM     20  C   UNL     1      -2.617  14.409  21.815  0.00  0.00    +0.000 A 
ATOM     21  C   UNL     1      -3.865  13.950  22.266  0.00  0.00    +0.000 A 
BRANCH  16  23
ATOM     22  C   UNL     1      -6.165  13.159  23.823  0.00  0.00    +0.000 C 
ATOM     23  O   UNL     1      -5.101  12.256  23.548  0.00  0.00    +0.000 OA
ENDBRANCH  16  23
ENDBRANCH  15  19
ENDBRANCH  11  15
ENDBRANCH   1  11
BRANCH   7  24
ATOM     24  C   UNL     1       1.459   8.588  21.407  0.00  0.00    +0.000 C 
BRANCH  24  25
ATOM     25  C   UNL     1       0.996   7.146  21.199  0.00  0.00    +0.000 C 
BRANCH  25  26
ATOM     26  C   UNL     1       1.864   6.335  20.269  0.00  0.00    +0.000 A 
ATOM     27  C   UNL     1       1.882   4.955  20.422  0.00  0.00    +0.000 A 
ATOM     28  C   UNL     1       2.751   4.204  19.648  0.00  0.00    +0.000 A 
ATOM     29  C   UNL     1       3.500   4.830  18.658  0.00  0.00    +0.000 A 
ATOM     30  C   UNL     1       4.295   4.065  17.792  0.00  0.00    +0.000 A 
ATOM     31  C   UNL     1       4.929   4.666  16.712  0.00  0.00    +0.000 A 
ATOM     32  C   UNL     1       4.823   6.041  16.541  0.00  0.00    +0.000 A 
ATOM     33  C   UNL     1       4.083   6.811  17.454  0.00  0.00    +0.000 A 
ATOM     34  C   UNL     1       3.391   6.231  18.515  0.00  0.00    +0.000 A 
ATOM     35  N   UNL     1       2.620   6.978  19.341  0.00  0.00    +0.000 NA
ENDBRANCH  25  26
ENDBRANCH  24  25
ENDBRANCH   7  24
TORSDOF 8
ENDMDL
