MODEL 1
REMARK VINA RESULT:      -8.3      0.000      0.000
REMARK  Name = 
REMARK  13 active torsions:
REMARK  status: ('A' for Active; 'I' for Inactive)
REMARK    1  A    between atoms: C_1  and  C_2
REMARK    2  A    between atoms: C_2  and  C_3
REMARK    3  A    between atoms: C_3  and  C_4
REMARK    4  A    between atoms: C_4  and  N_5
REMARK    5  A    between atoms: C_6  and  C_8
REMARK    6  A    between atoms: C_8  and  C_9
REMARK    7  A    between atoms: C_8  and  N_16
REMARK    8  A    between atoms: C_9  and  C_10
REMARK    9  A    between atoms: C_17  and  C_19
REMARK   10  A    between atoms: C_19  and  C_20
REMARK   11  A    between atoms: C_19  and  N_21
REMARK   12  A    between atoms: C_22  and  C_24
REMARK   13  A    between atoms: C_24  and  C_25
REMARK                            x       y       z     vdW  Elec       q    Type
REMARK                         _______ _______ _______ _____ _____    ______ ____
ROOT
ATOM      1  N   UNL     1       4.529   4.235  18.046  0.00  0.00    +0.000 N 
ATOM      2  C   UNL     1       3.392   3.488  17.805  0.00  0.00    +0.000 C 
ATOM      3  O   UNL     1       3.240   2.829  16.778  0.00  0.00    +0.000 OA
ATOM      4  H   UNL     1       4.563   4.821  18.872  0.00  0.00    +0.000 HD
ENDROOT
BRANCH   2   5
ATOM      5  C   UNL     1       2.419   3.400  18.998  0.00  0.00    +0.000 C 
ATOM      6  C   UNL     1       1.254   2.489  18.625  0.00  0.00    +0.000 C 
BRANCH   5   7
ATOM      7  N   UNL     1       1.923   4.711  19.403  0.00  0.00    +0.000 N 
ATOM      8  C   UNL     1       2.017   5.117  20.717  0.00  0.00    +0.000 C 
ATOM      9  O   UNL     1       2.511   4.405  21.589  0.00  0.00    +0.000 OA
ATOM     10  H   UNL     1       1.348   5.227  18.745  0.00  0.00    +0.000 HD
BRANCH   8  11
ATOM     11  C   UNL     1       1.491   6.506  21.021  0.00  0.00    +0.000 C 
BRANCH  11  12
ATOM     12  C   UNL     1       1.651   7.525  19.916  0.00  0.00    +0.000 A 
ATOM     13  C   UNL     1       1.044   8.786  19.951  0.00  0.00    +0.000 A 
ATOM     14  C   UNL     1       1.282   9.715  18.930  0.00  0.00    +0.000 A 
ATOM     15  F   UNL     1       0.683  10.909  18.981  0.00  0.00    +0.000 F 
ATOM     16  C   UNL     1       2.135   9.422  17.878  0.00  0.00    +0.000 A 
ATOM     17  C   UNL     1       2.754   8.182  17.853  0.00  0.00    +0.000 A 
ATOM     18  F   UNL     1       3.599   7.885  16.851  0.00  0.00    +0.000 F 
ATOM     19  C   UNL     1       2.532   7.241  18.857  0.00  0.00    +0.000 A 
ENDBRANCH  11  12
ENDBRANCH   8  11
ENDBRANCH   5   7
ENDBRANCH   2   5
BRANCH   1  20
ATOM     20  C   UNL     1       5.636   4.366  17.078  0.00  0.00    +0.000 C 
BRANCH  20  22
ATOM     21  N   UNL     1       6.890   6.394  17.733  0.00  0.00    +0.000 N 
ATOM     22  C   UNL     1       6.888   5.016  17.719  0.00  0.00    +0.000 C 
ATOM     23  O   UNL     1       7.761   4.359  18.286  0.00  0.00    +0.000 OA
ATOM     24  H   UNL     1       6.011   6.860  17.536  0.00  0.00    +0.000 HD
BRANCH  21  25
ATOM     25  C   UNL     1       7.953   7.163  18.344  0.00  0.00    +0.000 C 
BRANCH  25  26
ATOM     26  C   UNL     1       8.013   8.604  17.834  0.00  0.00    +0.000 C 
BRANCH  26  28
ATOM     27  C   UNL     1       9.061  10.886  18.130  0.00  0.00    +0.000 C 
ATOM     28  C   UNL     1       8.880   9.498  18.724  0.00  0.00    +0.000 C 
ENDBRANCH  26  28
ENDBRANCH  25  26
ENDBRANCH  21  25
ENDBRANCH  20  22
BRANCH  20  29
ATOM     29  C   UNL     1       5.231   5.207  15.843  0.00  0.00    +0.000 C 
BRANCH  29  30
ATOM     30  C   UNL     1       5.898   4.776  14.557  0.00  0.00    +0.000 A 
ATOM     31  C   UNL     1       7.139   5.305  14.178  0.00  0.00    +0.000 A 
ATOM     32  C   UNL     1       7.731   4.925  12.972  0.00  0.00    +0.000 A 
ATOM     33  C   UNL     1       7.096   4.003  12.142  0.00  0.00    +0.000 A 
ATOM     34  C   UNL     1       5.882   3.440  12.529  0.00  0.00    +0.000 A 
ATOM     35  C   UNL     1       5.292   3.816  13.734  0.00  0.00    +0.000 A 
ENDBRANCH  29  30
ENDBRANCH  20  29
ENDBRANCH   1  20
TORSDOF 11
ENDMDL
MODEL 2
REMARK VINA RESULT:      -8.0      3.292      7.466
REMARK  Name = 
REMARK  13 active torsions:
REMARK  status: ('A' for Active; 'I' for Inactive)
REMARK    1  A    between atoms: C_1  and  C_2
REMARK    2  A    between atoms: C_2  and  C_3
REMARK    3  A    between atoms: C_3  and  C_4
REMARK    4  A    between atoms: C_4  and  N_5
REMARK    5  A    between atoms: C_6  and  C_8
REMARK    6  A    between atoms: C_8  and  C_9
REMARK    7  A    between atoms: C_8  and  N_16
REMARK    8  A    between atoms: C_9  and  C_10
REMARK    9  A    between atoms: C_17  and  C_19
REMARK   10  A    between atoms: C_19  and  C_20
REMARK   11  A    between atoms: C_19  and  N_21
REMARK   12  A    between atoms: C_22  and  C_24
REMARK   13  A    between atoms: C_24  and  C_25
REMARK                            x       y       z     vdW  Elec       q    Type
REMARK                         _______ _______ _______ _____ _____    ______ ____
ROOT
ATOM      1  N   UNL     1       6.152   5.787  18.180  0.00  0.00    +0.000 N 
ATOM      2  C   UNL     1       7.387   5.174  18.258  0.00  0.00    +0.000 C 
ATOM      3  O   UNL     1       7.684   4.197  17.573  0.00  0.00    +0.000 OA
ATOM      4  H   UNL     1       5.936   6.536  18.828  0.00  0.00    +0.000 HD
ENDROOT
BRANCH   2   5
ATOM      5  C   UNL     1       8.417   5.916  19.133  0.00  0.00    +0.000 C 
ATOM      6  C   UNL     1       8.317   5.404  20.566  0.00  0.00    +0.000 C 
BRANCH   5   7
ATOM      7  N   UNL     1       8.229   7.362  19.101  0.00  0.00    +0.000 N 
ATOM      8  C   UNL     1       8.152   8.030  17.897  0.00  0.00    +0.000 C 
ATOM      9  O   UNL     1       8.241   7.447  16.818  0.00  0.00    +0.000 OA
ATOM     10  H   UNL     1       8.343   7.877  19.968  0.00  0.00    +0.000 HD
BRANCH   8  11
ATOM     11  C   UNL     1       7.933   9.527  17.982  0.00  0.00    +0.000 C 
BRANCH  11  12
ATOM     12  C   UNL     1       9.086  10.329  18.541  0.00  0.00    +0.000 A 
ATOM     13  C   UNL     1      10.106  10.855  17.739  0.00  0.00    +0.000 A 
ATOM     14  C   UNL     1      11.114  11.647  18.304  0.00  0.00    +0.000 A 
ATOM     15  F   UNL     1      12.082  12.129  17.519  0.00  0.00    +0.000 F 
ATOM     16  C   UNL     1      11.116  11.949  19.656  0.00  0.00    +0.000 A 
ATOM     17  C   UNL     1      10.094  11.448  20.448  0.00  0.00    +0.000 A 
ATOM     18  F   UNL     1      10.067  11.744  21.759  0.00  0.00    +0.000 F 
ATOM     19  C   UNL     1       9.081  10.656  19.909  0.00  0.00    +0.000 A 
ENDBRANCH  11  12
ENDBRANCH   8  11
ENDBRANCH   5   7
ENDBRANCH   2   5
BRANCH   1  20
ATOM     20  C   UNL     1       5.056   5.301  17.320  0.00  0.00    +0.000 C 
BRANCH  20  22
ATOM     21  N   UNL     1       5.819   4.261  15.210  0.00  0.00    +0.000 N 
ATOM     22  C   UNL     1       5.404   5.428  15.815  0.00  0.00    +0.000 C 
ATOM     23  O   UNL     1       5.209   6.459  15.173  0.00  0.00    +0.000 OA
ATOM     24  H   UNL     1       5.658   3.396  15.714  0.00  0.00    +0.000 HD
BRANCH  21  25
ATOM     25  C   UNL     1       6.128   4.186  13.798  0.00  0.00    +0.000 C 
BRANCH  25  26
ATOM     26  C   UNL     1       4.959   3.661  12.961  0.00  0.00    +0.000 C 
BRANCH  26  28
ATOM     27  C   UNL     1       6.854   2.548  11.713  0.00  0.00    +0.000 C 
ATOM     28  C   UNL     1       5.423   3.053  11.635  0.00  0.00    +0.000 C 
ENDBRANCH  26  28
ENDBRANCH  25  26
ENDBRANCH  21  25
ENDBRANCH  20  22
BRANCH  20  29
ATOM     29  C   UNL     1       3.733   6.063  17.578  0.00  0.00    +0.000 C 
BRANCH  29  30
ATOM     30  C   UNL     1       2.749   5.314  18.447  0.00  0.00    +0.000 A 
ATOM     31  C   UNL     1       2.491   5.728  19.762  0.00  0.00    +0.000 A 
ATOM     32  C   UNL     1       1.605   5.009  20.567  0.00  0.00    +0.000 A 
ATOM     33  C   UNL     1       0.960   3.881  20.063  0.00  0.00    +0.000 A 
ATOM     34  C   UNL     1       1.177   3.487  18.745  0.00  0.00    +0.000 A 
ATOM     35  C   UNL     1       2.059   4.205  17.939  0.00  0.00    +0.000 A 
ENDBRANCH  29  30
ENDBRANCH  20  29
ENDBRANCH   1  20
TORSDOF 11
ENDMDL
MODEL 3
REMARK VINA RESULT:      -7.9      3.928      7.015
REMARK  Name = 
REMARK  13 active torsions:
REMARK  status: ('A' for Active; 'I' for Inactive)
REMARK    1  A    between atoms: C_1  and  C_2
REMARK    2  A    between atoms: C_2  and  C_3
REMARK    3  A    between atoms: C_3  and  C_4
REMARK    4  A    between atoms: C_4  and  N_5
REMARK    5  A    between atoms: C_6  and  C_8
REMARK    6  A    between atoms: C_8  and  C_9
REMARK    7  A    between atoms: C_8  and  N_16
REMARK    8  A    between atoms: C_9  and  C_10
REMARK    9  A    between atoms: C_17  and  C_19
REMARK   10  A    between atoms: C_19  and  C_20
REMARK   11  A    between atoms: C_19  and  N_21
REMARK   12  A    between atoms: C_22  and  C_24
REMARK   13  A    between atoms: C_24  and  C_25
REMARK                            x       y       z     vdW  Elec       q    Type
REMARK                         _______ _______ _______ _____ _____    ______ ____
ROOT
ATOM      1  N   UNL     1       2.614   7.689  18.130  0.00  0.00    +0.000 N 
ATOM      2  C   UNL     1       1.913   8.263  19.172  0.00  0.00    +0.000 C 
ATOM      3  O   UNL     1       1.914   7.792  20.308  0.00  0.00    +0.000 OA
ATOM      4  H   UNL     1       2.509   8.074  17.198  0.00  0.00    +0.000 HD
ENDROOT
BRANCH   2   5
ATOM      5  C   UNL     1       1.282   9.631  18.843  0.00  0.00    +0.000 C 
ATOM      6  C   UNL     1       2.146  10.344  17.810  0.00  0.00    +0.000 C 
BRANCH   5   7
ATOM      7  N   UNL     1       1.124  10.465  20.030  0.00  0.00    +0.000 N 
ATOM      8  C   UNL     1      -0.125  10.674  20.575  0.00  0.00    +0.000 C 
ATOM      9  O   UNL     1      -1.142  10.178  20.093  0.00  0.00    +0.000 OA
ATOM     10  H   UNL     1       1.915  11.029  20.324  0.00  0.00    +0.000 HD
BRANCH   8  11
ATOM     11  C   UNL     1      -0.169  11.538  21.819  0.00  0.00    +0.000 C 
BRANCH  11  12
ATOM     12  C   UNL     1      -1.521  12.121  22.166  0.00  0.00    +0.000 A 
ATOM     13  C   UNL     1      -2.247  11.735  23.299  0.00  0.00    +0.000 A 
ATOM     14  C   UNL     1      -3.463  12.358  23.606  0.00  0.00    +0.000 A 
ATOM     15  F   UNL     1      -4.144  11.965  24.687  0.00  0.00    +0.000 F 
ATOM     16  C   UNL     1      -3.965  13.381  22.817  0.00  0.00    +0.000 A 
ATOM     17  C   UNL     1      -3.235  13.781  21.708  0.00  0.00    +0.000 A 
ATOM     18  F   UNL     1      -3.695  14.784  20.939  0.00  0.00    +0.000 F 
ATOM     19  C   UNL     1      -2.024  13.175  21.381  0.00  0.00    +0.000 A 
ENDBRANCH  11  12
ENDBRANCH   8  11
ENDBRANCH   5   7
ENDBRANCH   2   5
BRANCH   1  20
ATOM     20  C   UNL     1       3.378   6.432  18.259  0.00  0.00    +0.000 C 
BRANCH  20  22
ATOM     21  N   UNL     1       4.603   5.577  16.288  0.00  0.00    +0.000 N 
ATOM     22  C   UNL     1       4.646   6.433  17.368  0.00  0.00    +0.000 C 
ATOM     23  O   UNL     1       5.572   7.225  17.533  0.00  0.00    +0.000 OA
ATOM     24  H   UNL     1       3.699   5.193  16.038  0.00  0.00    +0.000 HD
BRANCH  21  25
ATOM     25  C   UNL     1       5.676   5.495  15.321  0.00  0.00    +0.000 C 
BRANCH  25  26
ATOM     26  C   UNL     1       5.884   4.077  14.783  0.00  0.00    +0.000 C 
BRANCH  26  28
ATOM     27  C   UNL     1       5.789   3.303  12.378  0.00  0.00    +0.000 C 
ATOM     28  C   UNL     1       6.585   4.069  13.423  0.00  0.00    +0.000 C 
ENDBRANCH  26  28
ENDBRANCH  25  26
ENDBRANCH  21  25
ENDBRANCH  20  22
BRANCH  20  29
ATOM     29  C   UNL     1       2.525   5.193  17.888  0.00  0.00    +0.000 C 
BRANCH  29  30
ATOM     30  C   UNL     1       2.121   4.346  19.072  0.00  0.00    +0.000 A 
ATOM     31  C   UNL     1       1.251   3.257  18.914  0.00  0.00    +0.000 A 
ATOM     32  C   UNL     1       0.857   2.502  20.021  0.00  0.00    +0.000 A 
ATOM     33  C   UNL     1       1.338   2.817  21.290  0.00  0.00    +0.000 A 
ATOM     34  C   UNL     1       2.235   3.871  21.451  0.00  0.00    +0.000 A 
ATOM     35  C   UNL     1       2.632   4.624  20.348  0.00  0.00    +0.000 A 
ENDBRANCH  29  30
ENDBRANCH  20  29
ENDBRANCH   1  20
TORSDOF 11
ENDMDL
MODEL 4
REMARK VINA RESULT:      -7.9      3.626      6.309
REMARK  Name = 
REMARK  13 active torsions:
REMARK  status: ('A' for Active; 'I' for Inactive)
REMARK    1  A    between atoms: C_1  and  C_2
REMARK    2  A    between atoms: C_2  and  C_3
REMARK    3  A    between atoms: C_3  and  C_4
REMARK    4  A    between atoms: C_4  and  N_5
REMARK    5  A    between atoms: C_6  and  C_8
REMARK    6  A    between atoms: C_8  and  C_9
REMARK    7  A    between atoms: C_8  and  N_16
REMARK    8  A    between atoms: C_9  and  C_10
REMARK    9  A    between atoms: C_17  and  C_19
REMARK   10  A    between atoms: C_19  and  C_20
REMARK   11  A    between atoms: C_19  and  N_21
REMARK   12  A    between atoms: C_22  and  C_24
REMARK   13  A    between atoms: C_24  and  C_25
REMARK                            x       y       z     vdW  Elec       q    Type
REMARK                         _______ _______ _______ _____ _____    ______ ____
ROOT
ATOM      1  N   UNL     1       2.160   7.432  18.949  0.00  0.00    +0.000 N 
ATOM      2  C   UNL     1       1.922   8.721  18.512  0.00  0.00    +0.000 C 
ATOM      3  O   UNL     1       2.034   9.050  17.332  0.00  0.00    +0.000 OA
ATOM      4  H   UNL     1       2.132   7.240  19.944  0.00  0.00    +0.000 HD
ENDROOT
BRANCH   2   5
ATOM      5  C   UNL     1       1.332   9.661  19.582  0.00  0.00    +0.000 C 
ATOM      6  C   UNL     1       0.759   8.826  20.721  0.00  0.00    +0.000 C 
BRANCH   5   7
ATOM      7  N   UNL     1       0.304  10.542  19.037  0.00  0.00    +0.000 N 
ATOM      8  C   UNL     1       0.504  11.906  18.995  0.00  0.00    +0.000 C 
ATOM      9  O   UNL     1       1.536  12.430  19.410  0.00  0.00    +0.000 OA
ATOM     10  H   UNL     1      -0.617  10.152  18.868  0.00  0.00    +0.000 HD
BRANCH   8  11
ATOM     11  C   UNL     1      -0.620  12.722  18.388  0.00  0.00    +0.000 C 
BRANCH  11  12
ATOM     12  C   UNL     1      -1.885  11.960  18.066  0.00  0.00    +0.000 A 
ATOM     13  C   UNL     1      -1.960  11.007  17.044  0.00  0.00    +0.000 A 
ATOM     14  C   UNL     1      -3.141  10.283  16.835  0.00  0.00    +0.000 A 
ATOM     15  F   UNL     1      -3.191   9.386  15.845  0.00  0.00    +0.000 F 
ATOM     16  C   UNL     1      -4.250  10.472  17.643  0.00  0.00    +0.000 A 
ATOM     17  C   UNL     1      -4.171  11.399  18.671  0.00  0.00    +0.000 A 
ATOM     18  F   UNL     1      -5.230  11.585  19.478  0.00  0.00    +0.000 F 
ATOM     19  C   UNL     1      -3.008  12.132  18.897  0.00  0.00    +0.000 A 
ENDBRANCH  11  12
ENDBRANCH   8  11
ENDBRANCH   5   7
ENDBRANCH   2   5
BRANCH   1  20
ATOM     20  C   UNL     1       2.627   6.347  18.064  0.00  0.00    +0.000 C 
BRANCH  20  22
ATOM     21  N   UNL     1       1.688   4.673  19.623  0.00  0.00    +0.000 N 
ATOM     22  C   UNL     1       1.843   5.031  18.301  0.00  0.00    +0.000 C 
ATOM     23  O   UNL     1       1.291   4.414  17.391  0.00  0.00    +0.000 OA
ATOM     24  H   UNL     1       1.893   5.380  20.321  0.00  0.00    +0.000 HD
BRANCH  21  25
ATOM     25  C   UNL     1       0.933   3.506  20.028  0.00  0.00    +0.000 C 
BRANCH  25  26
ATOM     26  C   UNL     1       1.827   2.334  20.438  0.00  0.00    +0.000 C 
BRANCH  26  28
ATOM     27  C   UNL     1       4.331   2.282  20.089  0.00  0.00    +0.000 C 
ATOM     28  C   UNL     1       2.967   2.098  19.443  0.00  0.00    +0.000 C 
ENDBRANCH  26  28
ENDBRANCH  25  26
ENDBRANCH  21  25
ENDBRANCH  20  22
BRANCH  20  29
ATOM     29  C   UNL     1       4.136   6.054  18.250  0.00  0.00    +0.000 C 
BRANCH  29  30
ATOM     30  C   UNL     1       4.800   5.442  17.039  0.00  0.00    +0.000 A 
ATOM     31  C   UNL     1       5.068   4.067  16.983  0.00  0.00    +0.000 A 
ATOM     32  C   UNL     1       5.712   3.517  15.872  0.00  0.00    +0.000 A 
ATOM     33  C   UNL     1       6.082   4.333  14.804  0.00  0.00    +0.000 A 
ATOM     34  C   UNL     1       5.783   5.693  14.832  0.00  0.00    +0.000 A 
ATOM     35  C   UNL     1       5.137   6.242  15.938  0.00  0.00    +0.000 A 
ENDBRANCH  29  30
ENDBRANCH  20  29
ENDBRANCH   1  20
TORSDOF 11
ENDMDL
MODEL 5
REMARK VINA RESULT:      -7.9      1.669      2.321
REMARK  Name = 
REMARK  13 active torsions:
REMARK  status: ('A' for Active; 'I' for Inactive)
REMARK    1  A    between atoms: C_1  and  C_2
REMARK    2  A    between atoms: C_2  and  C_3
REMARK    3  A    between atoms: C_3  and  C_4
REMARK    4  A    between atoms: C_4  and  N_5
REMARK    5  A    between atoms: C_6  and  C_8
REMARK    6  A    between atoms: C_8  and  C_9
REMARK    7  A    between atoms: C_8  and  N_16
REMARK    8  A    between atoms: C_9  and  C_10
REMARK    9  A    between atoms: C_17  and  C_19
REMARK   10  A    between atoms: C_19  and  C_20
REMARK   11  A    between atoms: C_19  and  N_21
REMARK   12  A    between atoms: C_22  and  C_24
REMARK   13  A    between atoms: C_24  and  C_25
REMARK                            x       y       z     vdW  Elec       q    Type
REMARK                         _______ _______ _______ _____ _____    ______ ____
ROOT
ATOM      1  N   UNL     1       4.216   4.483  16.919  0.00  0.00    +0.000 N 
ATOM      2  C   UNL     1       3.759   3.651  17.922  0.00  0.00    +0.000 C 
ATOM      3  O   UNL     1       4.418   2.701  18.343  0.00  0.00    +0.000 OA
ATOM      4  H   UNL     1       3.596   5.199  16.557  0.00  0.00    +0.000 HD
ENDROOT
BRANCH   2   5
ATOM      5  C   UNL     1       2.449   4.112  18.591  0.00  0.00    +0.000 C 
ATOM      6  C   UNL     1       1.336   3.131  18.237  0.00  0.00    +0.000 C 
BRANCH   5   7
ATOM      7  N   UNL     1       2.073   5.465  18.193  0.00  0.00    +0.000 N 
ATOM      8  C   UNL     1       2.784   6.551  18.656  0.00  0.00    +0.000 C 
ATOM      9  O   UNL     1       3.746   6.431  19.412  0.00  0.00    +0.000 OA
ATOM     10  H   UNL     1       1.179   5.594  17.731  0.00  0.00    +0.000 HD
BRANCH   8  11
ATOM     11  C   UNL     1       2.320   7.907  18.162  0.00  0.00    +0.000 C 
BRANCH  11  12
ATOM     12  C   UNL     1       1.524   8.729  19.150  0.00  0.00    +0.000 A 
ATOM     13  C   UNL     1       1.393   8.379  20.499  0.00  0.00    +0.000 A 
ATOM     14  C   UNL     1       0.698   9.214  21.384  0.00  0.00    +0.000 A 
ATOM     15  F   UNL     1       0.578   8.853  22.665  0.00  0.00    +0.000 F 
ATOM     16  C   UNL     1       0.147  10.411  20.956  0.00  0.00    +0.000 A 
ATOM     17  C   UNL     1       0.295  10.771  19.625  0.00  0.00    +0.000 A 
ATOM     18  F   UNL     1      -0.217  11.936  19.194  0.00  0.00    +0.000 F 
ATOM     19  C   UNL     1       0.980   9.955  18.726  0.00  0.00    +0.000 A 
ENDBRANCH  11  12
ENDBRANCH   8  11
ENDBRANCH   5   7
ENDBRANCH   2   5
BRANCH   1  20
ATOM     20  C   UNL     1       5.500   4.283  16.218  0.00  0.00    +0.000 C 
BRANCH  20  22
ATOM     21  N   UNL     1       6.403   5.422  18.219  0.00  0.00    +0.000 N 
ATOM     22  C   UNL     1       6.709   4.663  17.110  0.00  0.00    +0.000 C 
ATOM     23  O   UNL     1       7.841   4.221  16.917  0.00  0.00    +0.000 OA
ATOM     24  H   UNL     1       5.425   5.483  18.482  0.00  0.00    +0.000 HD
BRANCH  21  25
ATOM     25  C   UNL     1       7.401   5.815  19.190  0.00  0.00    +0.000 C 
BRANCH  25  26
ATOM     26  C   UNL     1       8.347   6.897  18.664  0.00  0.00    +0.000 C 
BRANCH  26  28
ATOM     27  C   UNL     1       8.199   9.316  17.944  0.00  0.00    +0.000 C 
ATOM     28  C   UNL     1       7.625   7.918  17.781  0.00  0.00    +0.000 C 
ENDBRANCH  26  28
ENDBRANCH  25  26
ENDBRANCH  21  25
ENDBRANCH  20  22
BRANCH  20  29
ATOM     29  C   UNL     1       5.582   5.109  14.911  0.00  0.00    +0.000 C 
BRANCH  29  30
ATOM     30  C   UNL     1       5.853   4.282  13.675  0.00  0.00    +0.000 A 
ATOM     31  C   UNL     1       7.153   4.155  13.165  0.00  0.00    +0.000 A 
ATOM     32  C   UNL     1       7.387   3.416  12.003  0.00  0.00    +0.000 A 
ATOM     33  C   UNL     1       6.328   2.787  11.350  0.00  0.00    +0.000 A 
ATOM     34  C   UNL     1       5.040   2.873  11.872  0.00  0.00    +0.000 A 
ATOM     35  C   UNL     1       4.806   3.607  13.032  0.00  0.00    +0.000 A 
ENDBRANCH  29  30
ENDBRANCH  20  29
ENDBRANCH   1  20
TORSDOF 11
ENDMDL
MODEL 6
REMARK VINA RESULT:      -7.8      3.435      7.306
REMARK  Name = 
REMARK  13 active torsions:
REMARK  status: ('A' for Active; 'I' for Inactive)
REMARK    1  A    between atoms: C_1  and  C_2
REMARK    2  A    between atoms: C_2  and  C_3
REMARK    3  A    between atoms: C_3  and  C_4
REMARK    4  A    between atoms: C_4  and  N_5
REMARK    5  A    between atoms: C_6  and  C_8
REMARK    6  A    between atoms: C_8  and  C_9
REMARK    7  A    between atoms: C_8  and  N_16
REMARK    8  A    between atoms: C_9  and  C_10
REMARK    9  A    between atoms: C_17  and  C_19
REMARK   10  A    between atoms: C_19  and  C_20
REMARK   11  A    between atoms: C_19  and  N_21
REMARK   12  A    between atoms: C_22  and  C_24
REMARK   13  A    between atoms: C_24  and  C_25
REMARK                            x       y       z     vdW  Elec       q    Type
REMARK                         _______ _______ _______ _____ _____    ______ ____
ROOT
ATOM      1  N   UNL     1       6.202   5.392  17.988  0.00  0.00    +0.000 N 
ATOM      2  C   UNL     1       7.546   5.075  17.998  0.00  0.00    +0.000 C 
ATOM      3  O   UNL     1       8.061   4.351  17.147  0.00  0.00    +0.000 OA
ATOM      4  H   UNL     1       5.819   5.925  18.760  0.00  0.00    +0.000 HD
ENDROOT
BRANCH   2   5
ATOM      5  C   UNL     1       8.378   5.841  19.046  0.00  0.00    +0.000 C 
ATOM      6  C   UNL     1       8.041   5.311  20.435  0.00  0.00    +0.000 C 
BRANCH   5   7
ATOM      7  N   UNL     1       8.147   7.281  18.988  0.00  0.00    +0.000 N 
ATOM      8  C   UNL     1       8.083   7.929  17.773  0.00  0.00    +0.000 C 
ATOM      9  O   UNL     1       8.217   7.335  16.705  0.00  0.00    +0.000 OA
ATOM     10  H   UNL     1       8.223   7.811  19.850  0.00  0.00    +0.000 HD
BRANCH   8  11
ATOM     11  C   UNL     1       7.817   9.421  17.830  0.00  0.00    +0.000 C 
BRANCH  11  12
ATOM     12  C   UNL     1       8.891  10.254  18.491  0.00  0.00    +0.000 A 
ATOM     13  C   UNL     1       8.941  10.474  19.873  0.00  0.00    +0.000 A 
ATOM     14  C   UNL     1       9.998  11.199  20.437  0.00  0.00    +0.000 A 
ATOM     15  F   UNL     1      10.017  11.404  21.758  0.00  0.00    +0.000 F 
ATOM     16  C   UNL     1      11.027  11.695  19.653  0.00  0.00    +0.000 A 
ATOM     17  C   UNL     1      10.992  11.459  18.287  0.00  0.00    +0.000 A 
ATOM     18  F   UNL     1      11.989  11.916  17.511  0.00  0.00    +0.000 F 
ATOM     19  C   UNL     1       9.949  10.741  17.702  0.00  0.00    +0.000 A 
ENDBRANCH  11  12
ENDBRANCH   8  11
ENDBRANCH   5   7
ENDBRANCH   2   5
BRANCH   1  20
ATOM     20  C   UNL     1       5.247   4.851  17.001  0.00  0.00    +0.000 C 
BRANCH  20  22
ATOM     21  N   UNL     1       6.180   4.271  14.785  0.00  0.00    +0.000 N 
ATOM     22  C   UNL     1       5.615   5.266  15.554  0.00  0.00    +0.000 C 
ATOM     23  O   UNL     1       5.315   6.362  15.082  0.00  0.00    +0.000 OA
ATOM     24  H   UNL     1       6.110   3.321  15.134  0.00  0.00    +0.000 HD
BRANCH  21  25
ATOM     25  C   UNL     1       6.530   4.469  13.395  0.00  0.00    +0.000 C 
BRANCH  25  26
ATOM     26  C   UNL     1       6.007   3.355  12.486  0.00  0.00    +0.000 C 
BRANCH  26  28
ATOM     27  C   UNL     1       4.044   3.309  10.893  0.00  0.00    +0.000 C 
ATOM     28  C   UNL     1       4.483   3.389  12.347  0.00  0.00    +0.000 C 
ENDBRANCH  26  28
ENDBRANCH  25  26
ENDBRANCH  21  25
ENDBRANCH  20  22
BRANCH  20  29
ATOM     29  C   UNL     1       3.796   5.311  17.284  0.00  0.00    +0.000 C 
BRANCH  29  30
ATOM     30  C   UNL     1       3.045   4.424  18.251  0.00  0.00    +0.000 A 
ATOM     31  C   UNL     1       3.330   3.054  18.341  0.00  0.00    +0.000 A 
ATOM     32  C   UNL     1       2.607   2.238  19.214  0.00  0.00    +0.000 A 
ATOM     33  C   UNL     1       1.605   2.785  20.013  0.00  0.00    +0.000 A 
ATOM     34  C   UNL     1       1.343   4.152  19.962  0.00  0.00    +0.000 A 
ATOM     35  C   UNL     1       2.065   4.968  19.093  0.00  0.00    +0.000 A 
ENDBRANCH  29  30
ENDBRANCH  20  29
ENDBRANCH   1  20
TORSDOF 11
ENDMDL
MODEL 7
REMARK VINA RESULT:      -7.8      3.153      7.895
REMARK  Name = 
REMARK  13 active torsions:
REMARK  status: ('A' for Active; 'I' for Inactive)
REMARK    1  A    between atoms: C_1  and  C_2
REMARK    2  A    between atoms: C_2  and  C_3
REMARK    3  A    between atoms: C_3  and  C_4
REMARK    4  A    between atoms: C_4  and  N_5
REMARK    5  A    between atoms: C_6  and  C_8
REMARK    6  A    between atoms: C_8  and  C_9
REMARK    7  A    between atoms: C_8  and  N_16
REMARK    8  A    between atoms: C_9  and  C_10
REMARK    9  A    between atoms: C_17  and  C_19
REMARK   10  A    between atoms: C_19  and  C_20
REMARK   11  A    between atoms: C_19  and  N_21
REMARK   12  A    between atoms: C_22  and  C_24
REMARK   13  A    between atoms: C_24  and  C_25
REMARK                            x       y       z     vdW  Elec       q    Type
REMARK                         _______ _______ _______ _____ _____    ______ ____
ROOT
ATOM      1  N   UNL     1       4.967   5.872  17.811  0.00  0.00    +0.000 N 
ATOM      2  C   UNL     1       5.511   4.672  17.397  0.00  0.00    +0.000 C 
ATOM      3  O   UNL     1       4.818   3.699  17.100  0.00  0.00    +0.000 OA
ATOM      4  H   UNL     1       5.589   6.610  18.120  0.00  0.00    +0.000 HD
ENDROOT
BRANCH   2   5
ATOM      5  C   UNL     1       7.035   4.705  17.164  0.00  0.00    +0.000 C 
ATOM      6  C   UNL     1       7.584   6.045  17.641  0.00  0.00    +0.000 C 
BRANCH   5   7
ATOM      7  N   UNL     1       7.384   4.487  15.764  0.00  0.00    +0.000 N 
ATOM      8  C   UNL     1       6.709   5.154  14.764  0.00  0.00    +0.000 C 
ATOM      9  O   UNL     1       5.798   5.944  15.003  0.00  0.00    +0.000 OA
ATOM     10  H   UNL     1       7.995   3.708  15.542  0.00  0.00    +0.000 HD
BRANCH   8  11
ATOM     11  C   UNL     1       7.170   4.869  13.349  0.00  0.00    +0.000 C 
BRANCH  11  12
ATOM     12  C   UNL     1       6.364   3.838  12.591  0.00  0.00    +0.000 A 
ATOM     13  C   UNL     1       5.016   4.019  12.260  0.00  0.00    +0.000 A 
ATOM     14  C   UNL     1       4.338   3.060  11.498  0.00  0.00    +0.000 A 
ATOM     15  F   UNL     1       3.049   3.251  11.203  0.00  0.00    +0.000 F 
ATOM     16  C   UNL     1       4.984   1.924  11.035  0.00  0.00    +0.000 A 
ATOM     17  C   UNL     1       6.325   1.754  11.342  0.00  0.00    +0.000 A 
ATOM     18  F   UNL     1       6.976   0.668  10.888  0.00  0.00    +0.000 F 
ATOM     19  C   UNL     1       7.020   2.694  12.101  0.00  0.00    +0.000 A 
ENDBRANCH  11  12
ENDBRANCH   8  11
ENDBRANCH   5   7
ENDBRANCH   2   5
BRANCH   1  20
ATOM     20  C   UNL     1       3.518   6.088  17.994  0.00  0.00    +0.000 C 
BRANCH  20  22
ATOM     21  N   UNL     1       1.973   8.012  18.144  0.00  0.00    +0.000 N 
ATOM     22  C   UNL     1       3.077   7.490  17.505  0.00  0.00    +0.000 C 
ATOM     23  O   UNL     1       3.731   8.147  16.696  0.00  0.00    +0.000 OA
ATOM     24  H   UNL     1       1.678   7.560  19.002  0.00  0.00    +0.000 HD
BRANCH  21  25
ATOM     25  C   UNL     1       1.461   9.334  17.852  0.00  0.00    +0.000 C 
BRANCH  25  26
ATOM     26  C   UNL     1       1.221  10.169  19.112  0.00  0.00    +0.000 C 
BRANCH  26  28
ATOM     27  C   UNL     1      -0.431  10.411  21.011  0.00  0.00    +0.000 C 
ATOM     28  C   UNL     1      -0.255  10.197  19.516  0.00  0.00    +0.000 C 
ENDBRANCH  26  28
ENDBRANCH  25  26
ENDBRANCH  21  25
ENDBRANCH  20  22
BRANCH  20  29
ATOM     29  C   UNL     1       3.091   5.933  19.474  0.00  0.00    +0.000 C 
BRANCH  29  30
ATOM     30  C   UNL     1       2.305   4.675  19.762  0.00  0.00    +0.000 A 
ATOM     31  C   UNL     1       1.693   3.956  18.725  0.00  0.00    +0.000 A 
ATOM     32  C   UNL     1       0.941   2.814  19.005  0.00  0.00    +0.000 A 
ATOM     33  C   UNL     1       0.805   2.371  20.320  0.00  0.00    +0.000 A 
ATOM     34  C   UNL     1       1.444   3.054  21.352  0.00  0.00    +0.000 A 
ATOM     35  C   UNL     1       2.197   4.193  21.073  0.00  0.00    +0.000 A 
ENDBRANCH  29  30
ENDBRANCH  20  29
ENDBRANCH   1  20
TORSDOF 11
ENDMDL
MODEL 8
REMARK VINA RESULT:      -7.8      3.386      6.298
REMARK  Name = 
REMARK  13 active torsions:
REMARK  status: ('A' for Active; 'I' for Inactive)
REMARK    1  A    between atoms: C_1  and  C_2
REMARK    2  A    between atoms: C_2  and  C_3
REMARK    3  A    between atoms: C_3  and  C_4
REMARK    4  A    between atoms: C_4  and  N_5
REMARK    5  A    between atoms: C_6  and  C_8
REMARK    6  A    between atoms: C_8  and  C_9
REMARK    7  A    between atoms: C_8  and  N_16
REMARK    8  A    between atoms: C_9  and  C_10
REMARK    9  A    between atoms: C_17  and  C_19
REMARK   10  A    between atoms: C_19  and  C_20
REMARK   11  A    between atoms: C_19  and  N_21
REMARK   12  A    between atoms: C_22  and  C_24
REMARK   13  A    between atoms: C_24  and  C_25
REMARK                            x       y       z     vdW  Elec       q    Type
REMARK                         _______ _______ _______ _____ _____    ______ ____
ROOT
ATOM      1  N   UNL     1       2.094   7.919  19.379  0.00  0.00    +0.000 N 
ATOM      2  C   UNL     1       1.428   7.878  20.588  0.00  0.00    +0.000 C 
ATOM      3  O   UNL     1       1.331   6.849  21.255  0.00  0.00    +0.000 OA
ATOM      4  H   UNL     1       2.071   8.774  18.836  0.00  0.00    +0.000 HD
ENDROOT
BRANCH   2   5
ATOM      5  C   UNL     1       0.977   9.254  21.117  0.00  0.00    +0.000 C 
ATOM      6  C   UNL     1      -0.027   9.050  22.246  0.00  0.00    +0.000 C 
BRANCH   5   7
ATOM      7  N   UNL     1       0.393  10.085  20.069  0.00  0.00    +0.000 N 
ATOM      8  C   UNL     1       0.540  11.455  20.101  0.00  0.00    +0.000 C 
ATOM      9  O   UNL     1       1.155  12.027  20.999  0.00  0.00    +0.000 OA
ATOM     10  H   UNL     1      -0.269   9.653  19.433  0.00  0.00    +0.000 HD
BRANCH   8  11
ATOM     11  C   UNL     1      -0.087  12.217  18.951  0.00  0.00    +0.000 C 
BRANCH  11  12
ATOM     12  C   UNL     1      -1.448  11.731  18.506  0.00  0.00    +0.000 A 
ATOM     13  C   UNL     1      -1.622  10.758  17.514  0.00  0.00    +0.000 A 
ATOM     14  C   UNL     1      -2.904  10.298  17.190  0.00  0.00    +0.000 A 
ATOM     15  F   UNL     1      -3.045   9.376  16.233  0.00  0.00    +0.000 F 
ATOM     16  C   UNL     1      -4.025  10.772  17.853  0.00  0.00    +0.000 A 
ATOM     17  C   UNL     1      -3.853  11.718  18.852  0.00  0.00    +0.000 A 
ATOM     18  F   UNL     1      -4.925  12.178  19.520  0.00  0.00    +0.000 F 
ATOM     19  C   UNL     1      -2.587  12.193  19.190  0.00  0.00    +0.000 A 
ENDBRANCH  11  12
ENDBRANCH   8  11
ENDBRANCH   5   7
ENDBRANCH   2   5
BRANCH   1  20
ATOM     20  C   UNL     1       2.698   6.731  18.743  0.00  0.00    +0.000 C 
BRANCH  20  22
ATOM     21  N   UNL     1       4.827   6.257  17.577  0.00  0.00    +0.000 N 
ATOM     22  C   UNL     1       3.758   7.121  17.681  0.00  0.00    +0.000 C 
ATOM     23  O   UNL     1       3.602   8.060  16.901  0.00  0.00    +0.000 OA
ATOM     24  H   UNL     1       4.735   5.352  18.024  0.00  0.00    +0.000 HD
BRANCH  21  25
ATOM     25  C   UNL     1       5.878   6.438  16.598  0.00  0.00    +0.000 C 
BRANCH  25  26
ATOM     26  C   UNL     1       5.571   5.754  15.264  0.00  0.00    +0.000 C 
BRANCH  26  28
ATOM     27  C   UNL     1       6.141   3.853  13.699  0.00  0.00    +0.000 C 
ATOM     28  C   UNL     1       6.435   4.512  15.037  0.00  0.00    +0.000 C 
ENDBRANCH  26  28
ENDBRANCH  25  26
ENDBRANCH  21  25
ENDBRANCH  20  22
BRANCH  20  29
ATOM     29  C   UNL     1       1.636   5.834  18.062  0.00  0.00    +0.000 C 
BRANCH  29  30
ATOM     30  C   UNL     1       1.780   4.362  18.373  0.00  0.00    +0.000 A 
ATOM     31  C   UNL     1       1.203   3.810  19.525  0.00  0.00    +0.000 A 
ATOM     32  C   UNL     1       1.371   2.456  19.820  0.00  0.00    +0.000 A 
ATOM     33  C   UNL     1       2.104   1.639  18.961  0.00  0.00    +0.000 A 
ATOM     34  C   UNL     1       2.647   2.168  17.793  0.00  0.00    +0.000 A 
ATOM     35  C   UNL     1       2.477   3.519  17.496  0.00  0.00    +0.000 A 
ENDBRANCH  29  30
ENDBRANCH  20  29
ENDBRANCH   1  20
TORSDOF 11
ENDMDL
MODEL 9
REMARK VINA RESULT:      -7.8      3.430      6.089
REMARK  Name = 
REMARK  13 active torsions:
REMARK  status: ('A' for Active; 'I' for Inactive)
REMARK    1  A    between atoms: C_1  and  C_2
REMARK    2  A    between atoms: C_2  and  C_3
REMARK    3  A    between atoms: C_3  and  C_4
REMARK    4  A    between atoms: C_4  and  N_5
REMARK    5  A    between atoms: C_6  and  C_8
REMARK    6  A    between atoms: C_8  and  C_9
REMARK    7  A    between atoms: C_8  and  N_16
REMARK    8  A    between atoms: C_9  and  C_10
REMARK    9  A    between atoms: C_17  and  C_19
REMARK   10  A    between atoms: C_19  and  C_20
REMARK   11  A    between atoms: C_19  and  N_21
REMARK   12  A    between atoms: C_22  and  C_24
REMARK   13  A    between atoms: C_24  and  C_25
REMARK                            x       y       z     vdW  Elec       q    Type
REMARK                         _______ _______ _______ _____ _____    ______ ____
ROOT
ATOM      1  N   UNL     1       2.085   7.889  19.203  0.00  0.00    +0.000 N 
ATOM      2  C   UNL     1       1.500   7.886  20.454  0.00  0.00    +0.000 C 
ATOM      3  O   UNL     1       1.520   6.900  21.190  0.00  0.00    +0.000 OA
ATOM      4  H   UNL     1       1.966   8.702  18.609  0.00  0.00    +0.000 HD
ENDROOT
BRANCH   2   5
ATOM      5  C   UNL     1       0.984   9.260  20.924  0.00  0.00    +0.000 C 
ATOM      6  C   UNL     1      -0.046   9.056  22.029  0.00  0.00    +0.000 C 
BRANCH   5   7
ATOM      7  N   UNL     1       0.404  10.035  19.832  0.00  0.00    +0.000 N 
ATOM      8  C   UNL     1       0.456  11.412  19.848  0.00  0.00    +0.000 C 
ATOM      9  O   UNL     1       0.981  12.037  20.767  0.00  0.00    +0.000 OA
ATOM     10  H   UNL     1      -0.193   9.550  19.169  0.00  0.00    +0.000 HD
BRANCH   8  11
ATOM     11  C   UNL     1      -0.158  12.113  18.652  0.00  0.00    +0.000 C 
BRANCH  11  12
ATOM     12  C   UNL     1      -1.533  11.634  18.245  0.00  0.00    +0.000 A 
ATOM     13  C   UNL     1      -1.740  10.680  17.242  0.00  0.00    +0.000 A 
ATOM     14  C   UNL     1      -3.032  10.224  16.954  0.00  0.00    +0.000 A 
ATOM     15  F   UNL     1      -3.205   9.320  15.985  0.00  0.00    +0.000 F 
ATOM     16  C   UNL     1      -4.130  10.685  17.662  0.00  0.00    +0.000 A 
ATOM     17  C   UNL     1      -3.925  11.614  18.671  0.00  0.00    +0.000 A 
ATOM     18  F   UNL     1      -4.974  12.061  19.383  0.00  0.00    +0.000 F 
ATOM     19  C   UNL     1      -2.648  12.083  18.975  0.00  0.00    +0.000 A 
ENDBRANCH  11  12
ENDBRANCH   8  11
ENDBRANCH   5   7
ENDBRANCH   2   5
BRANCH   1  20
ATOM     20  C   UNL     1       2.733   6.705  18.605  0.00  0.00    +0.000 C 
BRANCH  20  22
ATOM     21  N   UNL     1       4.679   6.098  17.205  0.00  0.00    +0.000 N 
ATOM     22  C   UNL     1       3.797   7.100  17.550  0.00  0.00    +0.000 C 
ATOM     23  O   UNL     1       3.786   8.185  16.970  0.00  0.00    +0.000 OA
ATOM     24  H   UNL     1       4.439   5.154  17.485  0.00  0.00    +0.000 HD
BRANCH  21  25
ATOM     25  C   UNL     1       5.699   6.277  16.194  0.00  0.00    +0.000 C 
BRANCH  25  26
ATOM     26  C   UNL     1       7.102   5.929  16.697  0.00  0.00    +0.000 C 
BRANCH  26  28
ATOM     27  C   UNL     1       7.849   5.936  19.112  0.00  0.00    +0.000 C 
ATOM     28  C   UNL     1       7.516   6.785  17.896  0.00  0.00    +0.000 C 
ENDBRANCH  26  28
ENDBRANCH  25  26
ENDBRANCH  21  25
ENDBRANCH  20  22
BRANCH  20  29
ATOM     29  C   UNL     1       1.708   5.761  17.930  0.00  0.00    +0.000 C 
BRANCH  29  30
ATOM     30  C   UNL     1       1.803   4.322  18.383  0.00  0.00    +0.000 A 
ATOM     31  C   UNL     1       2.458   3.362  17.597  0.00  0.00    +0.000 A 
ATOM     32  C   UNL     1       2.511   2.029  18.008  0.00  0.00    +0.000 A 
ATOM     33  C   UNL     1       1.924   1.645  19.212  0.00  0.00    +0.000 A 
ATOM     34  C   UNL     1       1.308   2.598  20.020  0.00  0.00    +0.000 A 
ATOM     35  C   UNL     1       1.257   3.930  19.612  0.00  0.00    +0.000 A 
ENDBRANCH  29  30
ENDBRANCH  20  29
ENDBRANCH   1  20
TORSDOF 11
ENDMDL
