MODEL 1
REMARK VINA RESULT:      -7.9      0.000      0.000
REMARK  Name = 
REMARK  2 active torsions:
REMARK  status: ('A' for Active; 'I' for Inactive)
REMARK    1  A    between atoms: C_2  and  C_3
REMARK    2  A    between atoms: C_3  and  N_4
REMARK                            x       y       z     vdW  Elec       q    Type
REMARK                         _______ _______ _______ _____ _____    ______ ____
ROOT
ATOM      1  O   UNL     1       3.805   2.092  17.875  0.00  0.00    +0.000 OA
ATOM      2  C   UNL     1       3.768   3.326  17.715  0.00  0.00    +0.000 C 
ATOM      3  N   UNL     1       2.832   4.042  18.461  0.00  0.00    +0.000 N 
ATOM      4  C   UNL     1       2.358   3.312  19.655  0.00  0.00    +0.000 C 
ATOM      5  C   UNL     1       1.387   4.215  20.371  0.00  0.00    +0.000 C 
ATOM      6  C   UNL     1       1.979   5.519  19.963  0.00  0.00    +0.000 A 
ATOM      7  C   UNL     1       1.904   6.707  20.658  0.00  0.00    +0.000 A 
ATOM      8  C   UNL     1       2.021   7.867  19.917  0.00  0.00    +0.000 A 
ATOM      9  C   UNL     1       2.143   7.775  18.520  0.00  0.00    +0.000 A 
ATOM     10  C   UNL     1       2.439   6.542  17.881  0.00  0.00    +0.000 A 
ATOM     11  C   UNL     1       2.485   5.407  18.658  0.00  0.00    +0.000 A 
ENDROOT
BRANCH   2  12
ATOM     12  C   UNL     1       4.792   3.968  16.768  0.00  0.00    +0.000 C 
BRANCH  12  13
ATOM     13  N   UNL     1       5.844   4.893  17.328  0.00  0.00    +0.000 N 
ATOM     14  C   UNL     1       6.408   4.752  18.608  0.00  0.00    +0.000 A 
ATOM     15  C   UNL     1       7.286   5.643  19.093  0.00  0.00    +0.000 A 
ATOM     16  F   UNL     1       7.836   5.479  20.313  0.00  0.00    +0.000 F 
ATOM     17  C   UNL     1       7.666   6.795  18.332  0.00  0.00    +0.000 A 
ATOM     18  C   UNL     1       7.150   6.987  17.108  0.00  0.00    +0.000 A 
ATOM     19  C   UNL     1       6.181   6.002  16.546  0.00  0.00    +0.000 A 
ATOM     20  O   UNL     1       5.706   6.215  15.444  0.00  0.00    +0.000 OA
ENDBRANCH  12  13
ENDBRANCH   2  12
TORSDOF 2
ENDMDL
MODEL 2
REMARK VINA RESULT:      -7.8      3.375      4.870
REMARK  Name = 
REMARK  2 active torsions:
REMARK  status: ('A' for Active; 'I' for Inactive)
REMARK    1  A    between atoms: C_2  and  C_3
REMARK    2  A    between atoms: C_3  and  N_4
REMARK                            x       y       z     vdW  Elec       q    Type
REMARK                         _______ _______ _______ _____ _____    ______ ____
ROOT
ATOM      1  O   UNL     1       6.244   6.834  16.259  0.00  0.00    +0.000 OA
ATOM      2  C   UNL     1       5.876   5.664  16.469  0.00  0.00    +0.000 C 
ATOM      3  N   UNL     1       4.743   5.480  17.260  0.00  0.00    +0.000 N 
ATOM      4  C   UNL     1       3.885   6.680  17.338  0.00  0.00    +0.000 C 
ATOM      5  C   UNL     1       2.695   6.324  18.191  0.00  0.00    +0.000 C 
ATOM      6  C   UNL     1       2.638   4.871  17.865  0.00  0.00    +0.000 A 
ATOM      7  C   UNL     1       1.517   4.069  17.893  0.00  0.00    +0.000 A 
ATOM      8  C   UNL     1       1.727   2.718  18.092  0.00  0.00    +0.000 A 
ATOM      9  C   UNL     1       3.035   2.256  18.314  0.00  0.00    +0.000 A 
ATOM     10  C   UNL     1       4.166   3.077  18.056  0.00  0.00    +0.000 A 
ATOM     11  C   UNL     1       3.943   4.385  17.693  0.00  0.00    +0.000 A 
ENDROOT
BRANCH   2  12
ATOM     12  C   UNL     1       6.650   4.524  15.791  0.00  0.00    +0.000 C 
BRANCH  12  13
ATOM     13  N   UNL     1       6.574   4.361  14.293  0.00  0.00    +0.000 N 
ATOM     14  C   UNL     1       5.662   3.510  13.646  0.00  0.00    +0.000 A 
ATOM     15  C   UNL     1       5.680   3.340  12.314  0.00  0.00    +0.000 A 
ATOM     16  F   UNL     1       4.783   2.538  11.707  0.00  0.00    +0.000 F 
ATOM     17  C   UNL     1       6.652   4.003  11.499  0.00  0.00    +0.000 A 
ATOM     18  C   UNL     1       7.555   4.819  12.065  0.00  0.00    +0.000 A 
ATOM     19  C   UNL     1       7.544   5.031  13.541  0.00  0.00    +0.000 A 
ATOM     20  O   UNL     1       8.393   5.754  14.033  0.00  0.00    +0.000 OA
ENDBRANCH  12  13
ENDBRANCH   2  12
TORSDOF 2
ENDMDL
MODEL 3
REMARK VINA RESULT:      -7.4      3.177      4.453
REMARK  Name = 
REMARK  2 active torsions:
REMARK  status: ('A' for Active; 'I' for Inactive)
REMARK    1  A    between atoms: C_2  and  C_3
REMARK    2  A    between atoms: C_3  and  N_4
REMARK                            x       y       z     vdW  Elec       q    Type
REMARK                         _______ _______ _______ _____ _____    ______ ____
ROOT
ATOM      1  O   UNL     1       4.914   6.656  16.016  0.00  0.00    +0.000 OA
ATOM      2  C   UNL     1       4.818   5.603  16.672  0.00  0.00    +0.000 C 
ATOM      3  N   UNL     1       4.075   5.647  17.851  0.00  0.00    +0.000 N 
ATOM      4  C   UNL     1       3.135   6.786  17.906  0.00  0.00    +0.000 C 
ATOM      5  C   UNL     1       2.387   6.684  19.210  0.00  0.00    +0.000 C 
ATOM      6  C   UNL     1       2.430   5.202  19.356  0.00  0.00    +0.000 A 
ATOM      7  C   UNL     1       1.520   4.419  20.033  0.00  0.00    +0.000 A 
ATOM      8  C   UNL     1       1.981   3.207  20.511  0.00  0.00    +0.000 A 
ATOM      9  C   UNL     1       3.335   2.876  20.341  0.00  0.00    +0.000 A 
ATOM     10  C   UNL     1       4.171   3.604  19.451  0.00  0.00    +0.000 A 
ATOM     11  C   UNL     1       3.647   4.724  18.846  0.00  0.00    +0.000 A 
ENDROOT
BRANCH   2  12
ATOM     12  C   UNL     1       5.460   4.329  16.103  0.00  0.00    +0.000 C 
BRANCH  12  13
ATOM     13  N   UNL     1       5.897   4.298  14.659  0.00  0.00    +0.000 N 
ATOM     14  C   UNL     1       5.224   3.582  13.655  0.00  0.00    +0.000 A 
ATOM     15  C   UNL     1       5.693   3.522  12.398  0.00  0.00    +0.000 A 
ATOM     16  F   UNL     1       5.023   2.849  11.441  0.00  0.00    +0.000 F 
ATOM     17  C   UNL     1       6.918   4.168  12.036  0.00  0.00    +0.000 A 
ATOM     18  C   UNL     1       7.608   4.857  12.958  0.00  0.00    +0.000 A 
ATOM     19  C   UNL     1       7.099   4.946  14.356  0.00  0.00    +0.000 A 
ATOM     20  O   UNL     1       7.760   5.553  15.181  0.00  0.00    +0.000 OA
ENDBRANCH  12  13
ENDBRANCH   2  12
TORSDOF 2
ENDMDL
MODEL 4
REMARK VINA RESULT:      -7.3      2.638      5.898
REMARK  Name = 
REMARK  2 active torsions:
REMARK  status: ('A' for Active; 'I' for Inactive)
REMARK    1  A    between atoms: C_2  and  C_3
REMARK    2  A    between atoms: C_3  and  N_4
REMARK                            x       y       z     vdW  Elec       q    Type
REMARK                         _______ _______ _______ _____ _____    ______ ____
ROOT
ATOM      1  O   UNL     1       6.250   5.239  20.138  0.00  0.00    +0.000 OA
ATOM      2  C   UNL     1       5.806   4.642  19.141  0.00  0.00    +0.000 C 
ATOM      3  N   UNL     1       6.081   5.191  17.889  0.00  0.00    +0.000 N 
ATOM      4  C   UNL     1       7.235   6.115  17.899  0.00  0.00    +0.000 C 
ATOM      5  C   UNL     1       7.430   6.599  16.485  0.00  0.00    +0.000 C 
ATOM      6  C   UNL     1       6.910   5.393  15.782  0.00  0.00    +0.000 A 
ATOM      7  C   UNL     1       7.265   4.964  14.521  0.00  0.00    +0.000 A 
ATOM      8  C   UNL     1       6.338   4.194  13.845  0.00  0.00    +0.000 A 
ATOM      9  C   UNL     1       5.088   3.952  14.440  0.00  0.00    +0.000 A 
ATOM     10  C   UNL     1       4.856   4.222  15.815  0.00  0.00    +0.000 A 
ATOM     11  C   UNL     1       5.856   4.843  16.528  0.00  0.00    +0.000 A 
ENDROOT
BRANCH   2  12
ATOM     12  C   UNL     1       5.054   3.321  19.357  0.00  0.00    +0.000 C 
BRANCH  12  13
ATOM     13  N   UNL     1       3.546   3.318  19.376  0.00  0.00    +0.000 N 
ATOM     14  C   UNL     1       2.771   4.263  20.071  0.00  0.00    +0.000 A 
ATOM     15  C   UNL     1       1.433   4.177  20.121  0.00  0.00    +0.000 A 
ATOM     16  F   UNL     1       0.704   5.106  20.772  0.00  0.00    +0.000 F 
ATOM     17  C   UNL     1       0.738   3.098  19.487  0.00  0.00    +0.000 A 
ATOM     18  C   UNL     1       1.428   2.160  18.819  0.00  0.00    +0.000 A 
ATOM     19  C   UNL     1       2.915   2.244  18.741  0.00  0.00    +0.000 A 
ATOM     20  O   UNL     1       3.519   1.364  18.153  0.00  0.00    +0.000 OA
ENDBRANCH  12  13
ENDBRANCH   2  12
TORSDOF 2
ENDMDL
MODEL 5
REMARK VINA RESULT:      -7.3      3.124      5.947
REMARK  Name = 
REMARK  2 active torsions:
REMARK  status: ('A' for Active; 'I' for Inactive)
REMARK    1  A    between atoms: C_2  and  C_3
REMARK    2  A    between atoms: C_3  and  N_4
REMARK                            x       y       z     vdW  Elec       q    Type
REMARK                         _______ _______ _______ _____ _____    ______ ____
ROOT
ATOM      1  O   UNL     1       5.634   4.666  20.077  0.00  0.00    +0.000 OA
ATOM      2  C   UNL     1       5.342   4.219  18.953  0.00  0.00    +0.000 C 
ATOM      3  N   UNL     1       5.818   4.915  17.842  0.00  0.00    +0.000 N 
ATOM      4  C   UNL     1       6.970   5.787  18.151  0.00  0.00    +0.000 C 
ATOM      5  C   UNL     1       7.391   6.442  16.861  0.00  0.00    +0.000 C 
ATOM      6  C   UNL     1       6.968   5.357  15.932  0.00  0.00    +0.000 A 
ATOM      7  C   UNL     1       7.509   5.081  14.694  0.00  0.00    +0.000 A 
ATOM      8  C   UNL     1       6.686   4.439  13.789  0.00  0.00    +0.000 A 
ATOM      9  C   UNL     1       5.356   4.167  14.148  0.00  0.00    +0.000 A 
ATOM     10  C   UNL     1       4.916   4.266  15.495  0.00  0.00    +0.000 A 
ATOM     11  C   UNL     1       5.802   4.753  16.429  0.00  0.00    +0.000 A 
ENDROOT
BRANCH   2  12
ATOM     12  C   UNL     1       4.545   2.909  18.875  0.00  0.00    +0.000 C 
BRANCH  12  13
ATOM     13  N   UNL     1       3.103   2.888  19.321  0.00  0.00    +0.000 N 
ATOM     14  C   UNL     1       2.703   2.772  20.663  0.00  0.00    +0.000 A 
ATOM     15  C   UNL     1       1.408   2.682  21.006  0.00  0.00    +0.000 A 
ATOM     16  F   UNL     1       1.040   2.595  22.300  0.00  0.00    +0.000 F 
ATOM     17  C   UNL     1       0.379   2.674  20.010  0.00  0.00    +0.000 A 
ATOM     18  C   UNL     1       0.705   2.770  18.712  0.00  0.00    +0.000 A 
ATOM     19  C   UNL     1       2.137   2.883  18.310  0.00  0.00    +0.000 A 
ATOM     20  O   UNL     1       2.407   2.941  17.123  0.00  0.00    +0.000 OA
ENDBRANCH  12  13
ENDBRANCH   2  12
TORSDOF 2
ENDMDL
MODEL 6
REMARK VINA RESULT:      -7.2      3.021      4.798
REMARK  Name = 
REMARK  2 active torsions:
REMARK  status: ('A' for Active; 'I' for Inactive)
REMARK    1  A    between atoms: C_2  and  C_3
REMARK    2  A    between atoms: C_3  and  N_4
REMARK                            x       y       z     vdW  Elec       q    Type
REMARK                         _______ _______ _______ _____ _____    ______ ____
ROOT
ATOM      1  O   UNL     1       3.379   6.378  17.786  0.00  0.00    +0.000 OA
ATOM      2  C   UNL     1       2.646   6.615  18.763  0.00  0.00    +0.000 C 
ATOM      3  N   UNL     1       2.259   7.940  18.967  0.00  0.00    +0.000 N 
ATOM      4  C   UNL     1       2.379   8.776  17.754  0.00  0.00    +0.000 C 
ATOM      5  C   UNL     1       1.900  10.157  18.117  0.00  0.00    +0.000 C 
ATOM      6  C   UNL     1       0.921   9.766  19.169  0.00  0.00    +0.000 A 
ATOM      7  C   UNL     1      -0.207  10.467  19.540  0.00  0.00    +0.000 A 
ATOM      8  C   UNL     1      -0.668  10.260  20.826  0.00  0.00    +0.000 A 
ATOM      9  C   UNL     1       0.056   9.416  21.685  0.00  0.00    +0.000 A 
ATOM     10  C   UNL     1       1.071   8.552  21.193  0.00  0.00    +0.000 A 
ATOM     11  C   UNL     1       1.412   8.649  19.863  0.00  0.00    +0.000 A 
ENDROOT
BRANCH   2  12
ATOM     12  C   UNL     1       2.170   5.435  19.621  0.00  0.00    +0.000 C 
BRANCH  12  13
ATOM     13  N   UNL     1       2.615   4.036  19.273  0.00  0.00    +0.000 N 
ATOM     14  C   UNL     1       3.656   3.360  19.933  0.00  0.00    +0.000 A 
ATOM     15  C   UNL     1       4.068   2.145  19.539  0.00  0.00    +0.000 A 
ATOM     16  F   UNL     1       5.052   1.501  20.198  0.00  0.00    +0.000 F 
ATOM     17  C   UNL     1       3.477   1.495  18.409  0.00  0.00    +0.000 A 
ATOM     18  C   UNL     1       2.486   2.099  17.733  0.00  0.00    +0.000 A 
ATOM     19  C   UNL     1       2.006   3.445  18.161  0.00  0.00    +0.000 A 
ATOM     20  O   UNL     1       1.125   3.983  17.514  0.00  0.00    +0.000 OA
ENDBRANCH  12  13
ENDBRANCH   2  12
TORSDOF 2
ENDMDL
MODEL 7
REMARK VINA RESULT:      -7.1      3.019      4.617
REMARK  Name = 
REMARK  2 active torsions:
REMARK  status: ('A' for Active; 'I' for Inactive)
REMARK    1  A    between atoms: C_2  and  C_3
REMARK    2  A    between atoms: C_3  and  N_4
REMARK                            x       y       z     vdW  Elec       q    Type
REMARK                         _______ _______ _______ _____ _____    ______ ____
ROOT
ATOM      1  O   UNL     1       6.420   7.391  16.829  0.00  0.00    +0.000 OA
ATOM      2  C   UNL     1       6.095   6.202  16.995  0.00  0.00    +0.000 C 
ATOM      3  N   UNL     1       4.869   5.952  17.610  0.00  0.00    +0.000 N 
ATOM      4  C   UNL     1       3.939   7.099  17.545  0.00  0.00    +0.000 C 
ATOM      5  C   UNL     1       2.659   6.673  18.215  0.00  0.00    +0.000 C 
ATOM      6  C   UNL     1       2.736   5.219  17.900  0.00  0.00    +0.000 A 
ATOM      7  C   UNL     1       1.673   4.351  17.769  0.00  0.00    +0.000 A 
ATOM      8  C   UNL     1       1.931   3.016  18.012  0.00  0.00    +0.000 A 
ATOM      9  C   UNL     1       3.215   2.633  18.432  0.00  0.00    +0.000 A 
ATOM     10  C   UNL     1       4.322   3.520  18.337  0.00  0.00    +0.000 A 
ATOM     11  C   UNL     1       4.079   4.812  17.930  0.00  0.00    +0.000 A 
ENDROOT
BRANCH   2  12
ATOM     12  C   UNL     1       7.027   5.109  16.452  0.00  0.00    +0.000 C 
BRANCH  12  13
ATOM     13  N   UNL     1       7.034   4.803  14.975  0.00  0.00    +0.000 N 
ATOM     14  C   UNL     1       7.708   5.582  14.019  0.00  0.00    +0.000 A 
ATOM     15  C   UNL     1       7.624   5.315  12.706  0.00  0.00    +0.000 A 
ATOM     16  F   UNL     1       8.297   6.058  11.804  0.00  0.00    +0.000 F 
ATOM     17  C   UNL     1       6.818   4.235  12.223  0.00  0.00    +0.000 A 
ATOM     18  C   UNL     1       6.142   3.465  13.091  0.00  0.00    +0.000 A 
ATOM     19  C   UNL     1       6.232   3.738  14.554  0.00  0.00    +0.000 A 
ATOM     20  O   UNL     1       5.586   3.042  15.318  0.00  0.00    +0.000 OA
ENDBRANCH  12  13
ENDBRANCH   2  12
TORSDOF 2
ENDMDL
MODEL 8
REMARK VINA RESULT:      -7.1      1.474      1.820
REMARK  Name = 
REMARK  2 active torsions:
REMARK  status: ('A' for Active; 'I' for Inactive)
REMARK    1  A    between atoms: C_2  and  C_3
REMARK    2  A    between atoms: C_3  and  N_4
REMARK                            x       y       z     vdW  Elec       q    Type
REMARK                         _______ _______ _______ _____ _____    ______ ____
ROOT
ATOM      1  O   UNL     1       3.443   1.874  17.739  0.00  0.00    +0.000 OA
ATOM      2  C   UNL     1       3.527   3.114  17.663  0.00  0.00    +0.000 C 
ATOM      3  N   UNL     1       2.607   3.865  18.395  0.00  0.00    +0.000 N 
ATOM      4  C   UNL     1       1.986   3.108  19.502  0.00  0.00    +0.000 C 
ATOM      5  C   UNL     1       1.050   4.050  20.214  0.00  0.00    +0.000 C 
ATOM      6  C   UNL     1       1.784   5.316  19.938  0.00  0.00    +0.000 A 
ATOM      7  C   UNL     1       1.764   6.460  20.708  0.00  0.00    +0.000 A 
ATOM      8  C   UNL     1       2.037   7.648  20.059  0.00  0.00    +0.000 A 
ATOM      9  C   UNL     1       2.250   7.635  18.671  0.00  0.00    +0.000 A 
ATOM     10  C   UNL     1       2.480   6.422  17.967  0.00  0.00    +0.000 A 
ATOM     11  C   UNL     1       2.370   5.241  18.664  0.00  0.00    +0.000 A 
ENDROOT
BRANCH   2  12
ATOM     12  C   UNL     1       4.669   3.717  16.833  0.00  0.00    +0.000 C 
BRANCH  12  13
ATOM     13  N   UNL     1       5.638   4.671  17.485  0.00  0.00    +0.000 N 
ATOM     14  C   UNL     1       6.281   5.719  16.804  0.00  0.00    +0.000 A 
ATOM     15  C   UNL     1       7.193   6.497  17.408  0.00  0.00    +0.000 A 
ATOM     16  F   UNL     1       7.782   7.514  16.746  0.00  0.00    +0.000 F 
ATOM     17  C   UNL     1       7.569   6.272  18.770  0.00  0.00    +0.000 A 
ATOM     18  C   UNL     1       6.997   5.278  19.466  0.00  0.00    +0.000 A 
ATOM     19  C   UNL     1       5.972   4.410  18.818  0.00  0.00    +0.000 A 
ATOM     20  O   UNL     1       5.488   3.496  19.463  0.00  0.00    +0.000 OA
ENDBRANCH  12  13
ENDBRANCH   2  12
TORSDOF 2
ENDMDL
MODEL 9
REMARK VINA RESULT:      -7.1      2.969      6.066
REMARK  Name = 
REMARK  2 active torsions:
REMARK  status: ('A' for Active; 'I' for Inactive)
REMARK    1  A    between atoms: C_2  and  C_3
REMARK    2  A    between atoms: C_3  and  N_4
REMARK                            x       y       z     vdW  Elec       q    Type
REMARK                         _______ _______ _______ _____ _____    ______ ____
ROOT
ATOM      1  O   UNL     1       6.186   5.202  20.162  0.00  0.00    +0.000 OA
ATOM      2  C   UNL     1       5.779   4.617  19.142  0.00  0.00    +0.000 C 
ATOM      3  N   UNL     1       6.086   5.190  17.908  0.00  0.00    +0.000 N 
ATOM      4  C   UNL     1       7.228   6.125  17.968  0.00  0.00    +0.000 C 
ATOM      5  C   UNL     1       7.460   6.634  16.569  0.00  0.00    +0.000 C 
ATOM      6  C   UNL     1       6.975   5.435  15.831  0.00  0.00    +0.000 A 
ATOM      7  C   UNL     1       7.373   5.030  14.575  0.00  0.00    +0.000 A 
ATOM      8  C   UNL     1       6.475   4.261  13.859  0.00  0.00    +0.000 A 
ATOM      9  C   UNL     1       5.211   3.996  14.411  0.00  0.00    +0.000 A 
ATOM     10  C   UNL     1       4.934   4.241  15.783  0.00  0.00    +0.000 A 
ATOM     11  C   UNL     1       5.906   4.861  16.536  0.00  0.00    +0.000 A 
ENDROOT
BRANCH   2  12
ATOM     12  C   UNL     1       5.036   3.284  19.315  0.00  0.00    +0.000 C 
BRANCH  12  13
ATOM     13  N   UNL     1       3.527   3.270  19.326  0.00  0.00    +0.000 N 
ATOM     14  C   UNL     1       2.734   3.796  18.292  0.00  0.00    +0.000 A 
ATOM     15  C   UNL     1       1.394   3.830  18.380  0.00  0.00    +0.000 A 
ATOM     16  F   UNL     1       0.647   4.316  17.368  0.00  0.00    +0.000 F 
ATOM     17  C   UNL     1       0.719   3.352  19.548  0.00  0.00    +0.000 A 
ATOM     18  C   UNL     1       1.428   2.850  20.571  0.00  0.00    +0.000 A 
ATOM     19  C   UNL     1       2.915   2.792  20.489  0.00  0.00    +0.000 A 
ATOM     20  O   UNL     1       3.536   2.358  21.443  0.00  0.00    +0.000 OA
ENDBRANCH  12  13
ENDBRANCH   2  12
TORSDOF 2
ENDMDL
