MODEL 1
REMARK VINA RESULT:      -8.3      0.000      0.000
REMARK  Name = 
REMARK  1 active torsions:
REMARK  status: ('A' for Active; 'I' for Inactive)
REMARK    1  A    between atoms: C_1  and  N_2
REMARK                            x       y       z     vdW  Elec       q    Type
REMARK                         _______ _______ _______ _____ _____    ______ ____
ROOT
ATOM      1  C   UNL     1       3.791   2.711  19.690  0.00  0.00    +0.000 C 
ATOM      2  N   UNL     1       3.432   4.057  19.284  0.00  0.00    +0.000 N 
ATOM      3  C   UNL     1       3.798   4.510  18.015  0.00  0.00    +0.000 A 
ATOM      4  O   UNL     1       4.419   3.782  17.245  0.00  0.00    +0.000 OA
ATOM      5  N   UNL     1       3.464   5.783  17.625  0.00  0.00    +0.000 NA
ATOM      6  C   UNL     1       2.813   6.545  18.429  0.00  0.00    +0.000 A 
ATOM      7  O   UNL     1       2.481   7.824  18.016  0.00  0.00    +0.000 OA
ATOM      8  C   UNL     1       1.767   8.708  18.859  0.00  0.00    +0.000 A 
ATOM      9  C   UNL     1       1.484   9.970  18.349  0.00  0.00    +0.000 A 
ATOM     10  C   UNL     1       0.782  10.874  19.141  0.00  0.00    +0.000 A 
ATOM     11  C   UNL     1       0.359  10.529  20.437  0.00  0.00    +0.000 A 
ATOM     12  C   UNL     1      -0.350  11.457  21.221  0.00  0.00    +0.000 A 
ATOM     13  C   UNL     1      -0.781  11.137  22.509  0.00  0.00    +0.000 A 
ATOM     14  C   UNL     1      -0.507   9.884  23.035  0.00  0.00    +0.000 A 
ATOM     15  C   UNL     1       0.194   8.951  22.271  0.00  0.00    +0.000 A 
ATOM     16  C   UNL     1       0.646   9.242  20.959  0.00  0.00    +0.000 A 
ATOM     17  C   UNL     1       1.363   8.325  20.143  0.00  0.00    +0.000 A 
ATOM     18  C   UNL     1       1.715   6.974  20.573  0.00  0.00    +0.000 A 
ATOM     19  C   UNL     1       2.392   6.155  19.764  0.00  0.00    +0.000 A 
ATOM     20  C   UNL     1       2.734   4.802  20.214  0.00  0.00    +0.000 A 
ATOM     21  O   UNL     1       2.414   4.393  21.328  0.00  0.00    +0.000 OA
ENDROOT
TORSDOF 0
ENDMDL
MODEL 2
REMARK VINA RESULT:      -8.2      5.089      6.775
REMARK  Name = 
REMARK  1 active torsions:
REMARK  status: ('A' for Active; 'I' for Inactive)
REMARK    1  A    between atoms: C_1  and  N_2
REMARK                            x       y       z     vdW  Elec       q    Type
REMARK                         _______ _______ _______ _____ _____    ______ ____
ROOT
ATOM      1  C   UNL     1       7.112   4.205  11.868  0.00  0.00    +0.000 C 
ATOM      2  N   UNL     1       6.885   4.552  13.258  0.00  0.00    +0.000 N 
ATOM      3  C   UNL     1       7.798   5.381  13.915  0.00  0.00    +0.000 A 
ATOM      4  O   UNL     1       8.786   5.813  13.328  0.00  0.00    +0.000 OA
ATOM      5  N   UNL     1       7.591   5.711  15.231  0.00  0.00    +0.000 NA
ATOM      6  C   UNL     1       6.556   5.260  15.846  0.00  0.00    +0.000 A 
ATOM      7  O   UNL     1       6.362   5.608  17.172  0.00  0.00    +0.000 OA
ATOM      8  C   UNL     1       5.243   5.141  17.899  0.00  0.00    +0.000 A 
ATOM      9  C   UNL     1       5.141   5.548  19.224  0.00  0.00    +0.000 A 
ATOM     10  C   UNL     1       4.056   5.114  19.981  0.00  0.00    +0.000 A 
ATOM     11  C   UNL     1       3.071   4.279  19.426  0.00  0.00    +0.000 A 
ATOM     12  C   UNL     1       1.981   3.852  20.206  0.00  0.00    +0.000 A 
ATOM     13  C   UNL     1       0.992   3.023  19.677  0.00  0.00    +0.000 A 
ATOM     14  C   UNL     1       1.077   2.605  18.358  0.00  0.00    +0.000 A 
ATOM     15  C   UNL     1       2.150   3.020  17.568  0.00  0.00    +0.000 A 
ATOM     16  C   UNL     1       3.173   3.862  18.073  0.00  0.00    +0.000 A 
ATOM     17  C   UNL     1       4.284   4.310  17.308  0.00  0.00    +0.000 A 
ATOM     18  C   UNL     1       4.494   3.947  15.909  0.00  0.00    +0.000 A 
ATOM     19  C   UNL     1       5.558   4.397  15.239  0.00  0.00    +0.000 A 
ATOM     20  C   UNL     1       5.749   4.021  13.835  0.00  0.00    +0.000 A 
ATOM     21  O   UNL     1       4.950   3.295  13.247  0.00  0.00    +0.000 OA
ENDROOT
TORSDOF 0
ENDMDL
MODEL 3
REMARK VINA RESULT:      -8.2      2.579      7.138
REMARK  Name = 
REMARK  1 active torsions:
REMARK  status: ('A' for Active; 'I' for Inactive)
REMARK    1  A    between atoms: C_1  and  N_2
REMARK                            x       y       z     vdW  Elec       q    Type
REMARK                         _______ _______ _______ _____ _____    ______ ____
ROOT
ATOM      1  C   UNL     1       0.324  11.110  19.418  0.00  0.00    +0.000 C 
ATOM      2  N   UNL     1       0.938   9.806  19.584  0.00  0.00    +0.000 N 
ATOM      3  C   UNL     1       0.704   9.084  20.756  0.00  0.00    +0.000 A 
ATOM      4  O   UNL     1      -0.011   9.543  21.643  0.00  0.00    +0.000 OA
ATOM      5  N   UNL     1       1.283   7.851  20.922  0.00  0.00    +0.000 NA
ATOM      6  C   UNL     1       2.031   7.368  19.995  0.00  0.00    +0.000 A 
ATOM      7  O   UNL     1       2.603   6.121  20.178  0.00  0.00    +0.000 OA
ATOM      8  C   UNL     1       3.436   5.541  19.193  0.00  0.00    +0.000 A 
ATOM      9  C   UNL     1       3.960   4.285  19.475  0.00  0.00    +0.000 A 
ATOM     10  C   UNL     1       4.786   3.673  18.536  0.00  0.00    +0.000 A 
ATOM     11  C   UNL     1       5.090   4.303  17.316  0.00  0.00    +0.000 A 
ATOM     12  C   UNL     1       5.925   3.668  16.379  0.00  0.00    +0.000 A 
ATOM     13  C   UNL     1       6.241   4.274  15.163  0.00  0.00    +0.000 A 
ATOM     14  C   UNL     1       5.728   5.527  14.864  0.00  0.00    +0.000 A 
ATOM     15  C   UNL     1       4.898   6.171  15.782  0.00  0.00    +0.000 A 
ATOM     16  C   UNL     1       4.556   5.585  17.026  0.00  0.00    +0.000 A 
ATOM     17  C   UNL     1       3.715   6.202  17.992  0.00  0.00    +0.000 A 
ATOM     18  C   UNL     1       3.108   7.518  17.803  0.00  0.00    +0.000 A 
ATOM     19  C   UNL     1       2.325   8.050  18.746  0.00  0.00    +0.000 A 
ATOM     20  C   UNL     1       1.725   9.371  18.536  0.00  0.00    +0.000 A 
ATOM     21  O   UNL     1       1.923  10.013  17.507  0.00  0.00    +0.000 OA
ENDROOT
TORSDOF 0
ENDMDL
MODEL 4
REMARK VINA RESULT:      -8.0      4.568      7.738
REMARK  Name = 
REMARK  1 active torsions:
REMARK  status: ('A' for Active; 'I' for Inactive)
REMARK    1  A    between atoms: C_1  and  N_2
REMARK                            x       y       z     vdW  Elec       q    Type
REMARK                         _______ _______ _______ _____ _____    ______ ____
ROOT
ATOM      1  C   UNL     1       0.797   2.840  19.897  0.00  0.00    +0.000 C 
ATOM      2  N   UNL     1       1.992   3.523  19.439  0.00  0.00    +0.000 N 
ATOM      3  C   UNL     1       2.663   4.386  20.308  0.00  0.00    +0.000 A 
ATOM      4  O   UNL     1       2.250   4.571  21.450  0.00  0.00    +0.000 OA
ATOM      5  N   UNL     1       3.792   5.039  19.881  0.00  0.00    +0.000 NA
ATOM      6  C   UNL     1       4.227   4.846  18.687  0.00  0.00    +0.000 A 
ATOM      7  O   UNL     1       5.370   5.509  18.276  0.00  0.00    +0.000 OA
ATOM      8  C   UNL     1       5.893   5.337  16.973  0.00  0.00    +0.000 A 
ATOM      9  C   UNL     1       7.045   6.048  16.660  0.00  0.00    +0.000 A 
ATOM     10  C   UNL     1       7.598   5.911  15.390  0.00  0.00    +0.000 A 
ATOM     11  C   UNL     1       7.011   5.067  14.430  0.00  0.00    +0.000 A 
ATOM     12  C   UNL     1       7.585   4.940  13.152  0.00  0.00    +0.000 A 
ATOM     13  C   UNL     1       7.021   4.110  12.184  0.00  0.00    +0.000 A 
ATOM     14  C   UNL     1       5.871   3.393  12.477  0.00  0.00    +0.000 A 
ATOM     15  C   UNL     1       5.289   3.505  13.740  0.00  0.00    +0.000 A 
ATOM     16  C   UNL     1       5.835   4.339  14.747  0.00  0.00    +0.000 A 
ATOM     17  C   UNL     1       5.278   4.486  16.047  0.00  0.00    +0.000 A 
ATOM     18  C   UNL     1       4.072   3.788  16.486  0.00  0.00    +0.000 A 
ATOM     19  C   UNL     1       3.593   3.966  17.720  0.00  0.00    +0.000 A 
ATOM     20  C   UNL     1       2.382   3.255  18.142  0.00  0.00    +0.000 A 
ATOM     21  O   UNL     1       1.786   2.491  17.385  0.00  0.00    +0.000 OA
ENDROOT
TORSDOF 0
ENDMDL
MODEL 5
REMARK VINA RESULT:      -7.8      0.987      1.080
REMARK  Name = 
REMARK  1 active torsions:
REMARK  status: ('A' for Active; 'I' for Inactive)
REMARK    1  A    between atoms: C_1  and  N_2
REMARK                            x       y       z     vdW  Elec       q    Type
REMARK                         _______ _______ _______ _____ _____    ______ ____
ROOT
ATOM      1  C   UNL     1       4.351   3.872  18.664  0.00  0.00    +0.000 C 
ATOM      2  N   UNL     1       3.809   5.208  18.500  0.00  0.00    +0.000 N 
ATOM      3  C   UNL     1       4.068   5.913  17.323  0.00  0.00    +0.000 A 
ATOM      4  O   UNL     1       4.749   5.414  16.431  0.00  0.00    +0.000 OA
ATOM      5  N   UNL     1       3.561   7.178  17.162  0.00  0.00    +0.000 NA
ATOM      6  C   UNL     1       2.846   7.701  18.094  0.00  0.00    +0.000 A 
ATOM      7  O   UNL     1       2.339   8.976  17.913  0.00  0.00    +0.000 OA
ATOM      8  C   UNL     1       1.549   9.603  18.904  0.00  0.00    +0.000 A 
ATOM      9  C   UNL     1       1.089  10.884  18.623  0.00  0.00    +0.000 A 
ATOM     10  C   UNL     1       0.306  11.541  19.568  0.00  0.00    +0.000 A 
ATOM     11  C   UNL     1      -0.023  10.930  20.791  0.00  0.00    +0.000 A 
ATOM     12  C   UNL     1      -0.816  11.609  21.733  0.00  0.00    +0.000 A 
ATOM     13  C   UNL     1      -1.155  11.023  22.952  0.00  0.00    +0.000 A 
ATOM     14  C   UNL     1      -0.705   9.746  23.250  0.00  0.00    +0.000 A 
ATOM     15  C   UNL     1       0.082   9.056  22.328  0.00  0.00    +0.000 A 
ATOM     16  C   UNL     1       0.445   9.622  21.080  0.00  0.00    +0.000 A 
ATOM     17  C   UNL     1       1.244   8.958  20.109  0.00  0.00    +0.000 A 
ATOM     18  C   UNL     1       1.781   7.613  20.295  0.00  0.00    +0.000 A 
ATOM     19  C   UNL     1       2.527   7.038  19.347  0.00  0.00    +0.000 A 
ATOM     20  C   UNL     1       3.055   5.686  19.554  0.00  0.00    +0.000 A 
ATOM     21  O   UNL     1       2.830   5.057  20.585  0.00  0.00    +0.000 OA
ENDROOT
TORSDOF 0
ENDMDL
MODEL 6
REMARK VINA RESULT:      -7.8      2.972      6.335
REMARK  Name = 
REMARK  1 active torsions:
REMARK  status: ('A' for Active; 'I' for Inactive)
REMARK    1  A    between atoms: C_1  and  N_2
REMARK                            x       y       z     vdW  Elec       q    Type
REMARK                         _______ _______ _______ _____ _____    ______ ____
ROOT
ATOM      1  C   UNL     1      -1.159  11.523  22.836  0.00  0.00    +0.000 C 
ATOM      2  N   UNL     1      -0.372  10.882  21.800  0.00  0.00    +0.000 N 
ATOM      3  C   UNL     1       0.015  11.619  20.679  0.00  0.00    +0.000 A 
ATOM      4  O   UNL     1      -0.308  12.799  20.563  0.00  0.00    +0.000 OA
ATOM      5  N   UNL     1       0.757  11.019  19.693  0.00  0.00    +0.000 NA
ATOM      6  C   UNL     1       1.096   9.785  19.814  0.00  0.00    +0.000 A 
ATOM      7  O   UNL     1       1.850   9.198  18.812  0.00  0.00    +0.000 OA
ATOM      8  C   UNL     1       2.250   7.843  18.889  0.00  0.00    +0.000 A 
ATOM      9  C   UNL     1       3.004   7.351  17.830  0.00  0.00    +0.000 A 
ATOM     10  C   UNL     1       3.422   6.023  17.862  0.00  0.00    +0.000 A 
ATOM     11  C   UNL     1       3.095   5.184  18.942  0.00  0.00    +0.000 A 
ATOM     12  C   UNL     1       3.528   3.845  18.955  0.00  0.00    +0.000 A 
ATOM     13  C   UNL     1       3.216   2.995  20.016  0.00  0.00    +0.000 A 
ATOM     14  C   UNL     1       2.465   3.468  21.080  0.00  0.00    +0.000 A 
ATOM     15  C   UNL     1       2.028   4.793  21.084  0.00  0.00    +0.000 A 
ATOM     16  C   UNL     1       2.326   5.685  20.023  0.00  0.00    +0.000 A 
ATOM     17  C   UNL     1       1.903   7.041  19.983  0.00  0.00    +0.000 A 
ATOM     18  C   UNL     1       1.109   7.667  21.037  0.00  0.00    +0.000 A 
ATOM     19  C   UNL     1       0.739   8.947  20.945  0.00  0.00    +0.000 A 
ATOM     20  C   UNL     1      -0.057   9.555  22.016  0.00  0.00    +0.000 A 
ATOM     21  O   UNL     1      -0.399   8.915  23.008  0.00  0.00    +0.000 OA
ENDROOT
TORSDOF 0
ENDMDL
MODEL 7
REMARK VINA RESULT:      -7.7      2.501      6.209
REMARK  Name = 
REMARK  1 active torsions:
REMARK  status: ('A' for Active; 'I' for Inactive)
REMARK    1  A    between atoms: C_1  and  N_2
REMARK                            x       y       z     vdW  Elec       q    Type
REMARK                         _______ _______ _______ _____ _____    ______ ____
ROOT
ATOM      1  C   UNL     1      -0.306  11.752  21.008  0.00  0.00    +0.000 C 
ATOM      2  N   UNL     1       0.452  10.792  20.228  0.00  0.00    +0.000 N 
ATOM      3  C   UNL     1       0.977  11.177  18.992  0.00  0.00    +0.000 A 
ATOM      4  O   UNL     1       0.800  12.314  18.562  0.00  0.00    +0.000 OA
ATOM      5  N   UNL     1       1.693  10.274  18.246  0.00  0.00    +0.000 NA
ATOM      6  C   UNL     1       1.880   9.084  18.695  0.00  0.00    +0.000 A 
ATOM      7  O   UNL     1       2.610   8.189  17.931  0.00  0.00    +0.000 OA
ATOM      8  C   UNL     1       2.846   6.866  18.372  0.00  0.00    +0.000 A 
ATOM      9  C   UNL     1       3.589   6.047  17.531  0.00  0.00    +0.000 A 
ATOM     10  C   UNL     1       3.849   4.737  17.923  0.00  0.00    +0.000 A 
ATOM     11  C   UNL     1       3.374   4.238  19.148  0.00  0.00    +0.000 A 
ATOM     12  C   UNL     1       3.648   2.911  19.527  0.00  0.00    +0.000 A 
ATOM     13  C   UNL     1       3.187   2.394  20.738  0.00  0.00    +0.000 A 
ATOM     14  C   UNL     1       2.443   3.195  21.590  0.00  0.00    +0.000 A 
ATOM     15  C   UNL     1       2.163   4.514  21.231  0.00  0.00    +0.000 A 
ATOM     16  C   UNL     1       2.615   5.072  20.009  0.00  0.00    +0.000 A 
ATOM     17  C   UNL     1       2.355   6.409  19.601  0.00  0.00    +0.000 A 
ATOM     18  C   UNL     1       1.587   7.358  20.403  0.00  0.00    +0.000 A 
ATOM     19  C   UNL     1       1.373   8.602  19.968  0.00  0.00    +0.000 A 
ATOM     20  C   UNL     1       0.601   9.540  20.789  0.00  0.00    +0.000 A 
ATOM     21  O   UNL     1       0.137   9.212  21.879  0.00  0.00    +0.000 OA
ENDROOT
TORSDOF 0
ENDMDL
MODEL 8
REMARK VINA RESULT:      -7.5      2.729      6.908
REMARK  Name = 
REMARK  1 active torsions:
REMARK  status: ('A' for Active; 'I' for Inactive)
REMARK    1  A    between atoms: C_1  and  N_2
REMARK                            x       y       z     vdW  Elec       q    Type
REMARK                         _______ _______ _______ _____ _____    ______ ____
ROOT
ATOM      1  C   UNL     1      -0.055  12.180  19.840  0.00  0.00    +0.000 C 
ATOM      2  N   UNL     1       0.269  10.805  20.170  0.00  0.00    +0.000 N 
ATOM      3  C   UNL     1      -0.275  10.230  21.321  0.00  0.00    +0.000 A 
ATOM      4  O   UNL     1      -1.018  10.877  22.053  0.00  0.00    +0.000 OA
ATOM      5  N   UNL     1       0.029   8.931  21.641  0.00  0.00    +0.000 NA
ATOM      6  C   UNL     1       0.806   8.251  20.875  0.00  0.00    +0.000 A 
ATOM      7  O   UNL     1       1.098   6.940  21.211  0.00  0.00    +0.000 OA
ATOM      8  C   UNL     1       1.948   6.145  20.407  0.00  0.00    +0.000 A 
ATOM      9  C   UNL     1       2.176   4.842  20.833  0.00  0.00    +0.000 A 
ATOM     10  C   UNL     1       3.006   4.021  20.074  0.00  0.00    +0.000 A 
ATOM     11  C   UNL     1       3.607   4.489  18.893  0.00  0.00    +0.000 A 
ATOM     12  C   UNL     1       4.441   3.643  18.139  0.00  0.00    +0.000 A 
ATOM     13  C   UNL     1       5.049   4.086  16.964  0.00  0.00    +0.000 A 
ATOM     14  C   UNL     1       4.834   5.382  16.524  0.00  0.00    +0.000 A 
ATOM     15  C   UNL     1       4.009   6.235  17.258  0.00  0.00    +0.000 A 
ATOM     16  C   UNL     1       3.376   5.819  18.456  0.00  0.00    +0.000 A 
ATOM     17  C   UNL     1       2.527   6.650  19.237  0.00  0.00    +0.000 A 
ATOM     18  C   UNL     1       2.216   8.033  18.887  0.00  0.00    +0.000 A 
ATOM     19  C   UNL     1       1.412   8.769  19.660  0.00  0.00    +0.000 A 
ATOM     20  C   UNL     1       1.111  10.155  19.290  0.00  0.00    +0.000 A 
ATOM     21  O   UNL     1       1.582  10.669  18.277  0.00  0.00    +0.000 OA
ENDROOT
TORSDOF 0
ENDMDL
MODEL 9
REMARK VINA RESULT:      -7.5      2.587      6.917
REMARK  Name = 
REMARK  1 active torsions:
REMARK  status: ('A' for Active; 'I' for Inactive)
REMARK    1  A    between atoms: C_1  and  N_2
REMARK                            x       y       z     vdW  Elec       q    Type
REMARK                         _______ _______ _______ _____ _____    ______ ____
ROOT
ATOM      1  C   UNL     1       1.085  11.774  18.740  0.00  0.00    +0.000 C 
ATOM      2  N   UNL     1       1.181  10.464  19.356  0.00  0.00    +0.000 N 
ATOM      3  C   UNL     1       0.666  10.271  20.639  0.00  0.00    +0.000 A 
ATOM      4  O   UNL     1       0.138  11.198  21.248  0.00  0.00    +0.000 OA
ATOM      5  N   UNL     1       0.755   9.035  21.230  0.00  0.00    +0.000 NA
ATOM      6  C   UNL     1       1.306   8.064  20.593  0.00  0.00    +0.000 A 
ATOM      7  O   UNL     1       1.383   6.823  21.203  0.00  0.00    +0.000 OA
ATOM      8  C   UNL     1       1.980   5.719  20.552  0.00  0.00    +0.000 A 
ATOM      9  C   UNL     1       2.006   4.518  21.251  0.00  0.00    +0.000 A 
ATOM     10  C   UNL     1       2.583   3.402  20.651  0.00  0.00    +0.000 A 
ATOM     11  C   UNL     1       3.133   3.474  19.358  0.00  0.00    +0.000 A 
ATOM     12  C   UNL     1       3.710   2.335  18.769  0.00  0.00    +0.000 A 
ATOM     13  C   UNL     1       4.261   2.383  17.488  0.00  0.00    +0.000 A 
ATOM     14  C   UNL     1       4.245   3.572  16.776  0.00  0.00    +0.000 A 
ATOM     15  C   UNL     1       3.676   4.712  17.345  0.00  0.00    +0.000 A 
ATOM     16  C   UNL     1       3.107   4.699  18.643  0.00  0.00    +0.000 A 
ATOM     17  C   UNL     1       2.516   5.833  19.264  0.00  0.00    +0.000 A 
ATOM     18  C   UNL     1       2.431   7.144  18.625  0.00  0.00    +0.000 A 
ATOM     19  C   UNL     1       1.865   8.176  19.257  0.00  0.00    +0.000 A 
ATOM     20  C   UNL     1       1.790   9.484  18.598  0.00  0.00    +0.000 A 
ATOM     21  O   UNL     1       2.238   9.663  17.467  0.00  0.00    +0.000 OA
ENDROOT
TORSDOF 0
ENDMDL
