MODEL 1
REMARK VINA RESULT:      -8.1      0.000      0.000
REMARK  Name = 
REMARK  6 active torsions:
REMARK  status: ('A' for Active; 'I' for Inactive)
REMARK    1  A    between atoms: C_2  and  O_10
REMARK    2  A    between atoms: N_3  and  C_4
REMARK    3  A    between atoms: O_10  and  C_11
REMARK    4  A    between atoms: C_11  and  C_12
REMARK    5  A    between atoms: N_16  and  C_17
REMARK    6  A    between atoms: C_17  and  C_18
REMARK                            x       y       z     vdW  Elec       q    Type
REMARK                         _______ _______ _______ _____ _____    ______ ____
ROOT
ATOM      1  C   UNL     1       6.754   6.488  16.978  0.00  0.00    +0.000 C 
ATOM      2  C   UNL     1       7.456   6.159  18.301  0.00  0.00    +0.000 C 
ATOM      3  C   UNL     1       6.725   5.053  19.053  0.00  0.00    +0.000 C 
ATOM      4  C   UNL     1       5.231   5.359  19.204  0.00  0.00    +0.000 C 
ATOM      5  N   UNL     1       4.589   5.659  17.912  0.00  0.00    +0.000 NA
ATOM      6  C   UNL     1       5.270   6.784  17.245  0.00  0.00    +0.000 C 
ENDROOT
BRANCH   1   7
ATOM      7  C   UNL     1       6.904   5.370  15.925  0.00  0.00    +0.000 C 
BRANCH   7   8
ATOM      8  O   UNL     1       7.815   5.723  14.864  0.00  0.00    +0.000 OA
BRANCH   8  10
ATOM      9  O   UNL     1       8.034   5.534  12.609  0.00  0.00    +0.000 OA
ATOM     10  C   UNL     1       7.494   5.191  13.649  0.00  0.00    +0.000 C 
ATOM     11  N   UNL     1       6.477   4.284  13.798  0.00  0.00    +0.000 N 
ATOM     12  H   UNL     1       6.065   4.256  14.720  0.00  0.00    +0.000 HD
BRANCH  11  13
ATOM     13  C   UNL     1       5.895   3.519  12.768  0.00  0.00    +0.000 A 
ATOM     14  C   UNL     1       4.629   3.798  12.247  0.00  0.00    +0.000 A 
ATOM     15  C   UNL     1       4.073   3.003  11.243  0.00  0.00    +0.000 A 
ATOM     16  C   UNL     1       4.783   1.917  10.742  0.00  0.00    +0.000 A 
ATOM     17  C   UNL     1       6.055   1.639  11.236  0.00  0.00    +0.000 A 
ATOM     18  C   UNL     1       6.616   2.440  12.239  0.00  0.00    +0.000 A 
ENDBRANCH  11  13
ENDBRANCH   8  10
ENDBRANCH   7   8
ENDBRANCH   1   7
BRANCH   5  19
ATOM     19  C   UNL     1       3.159   5.989  18.084  0.00  0.00    +0.000 C 
BRANCH  19  20
ATOM     20  C   UNL     1       2.326   4.878  18.689  0.00  0.00    +0.000 A 
ATOM     21  C   UNL     1       1.849   4.983  20.005  0.00  0.00    +0.000 A 
ATOM     22  C   UNL     1       1.044   3.982  20.550  0.00  0.00    +0.000 A 
ATOM     23  C   UNL     1       0.704   2.866  19.788  0.00  0.00    +0.000 A 
ATOM     24  C   UNL     1       1.179   2.745  18.483  0.00  0.00    +0.000 A 
ATOM     25  C   UNL     1       1.988   3.744  17.936  0.00  0.00    +0.000 A 
ENDBRANCH  19  20
ENDBRANCH   5  19
TORSDOF 6
ENDMDL
MODEL 2
REMARK VINA RESULT:      -8.0      3.585      6.905
REMARK  Name = 
REMARK  6 active torsions:
REMARK  status: ('A' for Active; 'I' for Inactive)
REMARK    1  A    between atoms: C_2  and  O_10
REMARK    2  A    between atoms: N_3  and  C_4
REMARK    3  A    between atoms: O_10  and  C_11
REMARK    4  A    between atoms: C_11  and  C_12
REMARK    5  A    between atoms: N_16  and  C_17
REMARK    6  A    between atoms: C_17  and  C_18
REMARK                            x       y       z     vdW  Elec       q    Type
REMARK                         _______ _______ _______ _____ _____    ______ ____
ROOT
ATOM      1  C   UNL     1       5.840   6.001  16.111  0.00  0.00    +0.000 C 
ATOM      2  C   UNL     1       4.659   6.978  16.097  0.00  0.00    +0.000 C 
ATOM      3  C   UNL     1       3.864   6.901  17.396  0.00  0.00    +0.000 C 
ATOM      4  C   UNL     1       3.472   5.461  17.739  0.00  0.00    +0.000 C 
ATOM      5  N   UNL     1       4.634   4.553  17.753  0.00  0.00    +0.000 NA
ATOM      6  C   UNL     1       5.335   4.591  16.457  0.00  0.00    +0.000 C 
ENDROOT
BRANCH   1   7
ATOM      7  C   UNL     1       6.962   6.429  17.080  0.00  0.00    +0.000 C 
BRANCH   7   8
ATOM      8  O   UNL     1       7.165   7.857  17.101  0.00  0.00    +0.000 OA
BRANCH   8  10
ATOM      9  O   UNL     1       8.599   7.538  18.836  0.00  0.00    +0.000 OA
ATOM     10  C   UNL     1       8.098   8.277  18.003  0.00  0.00    +0.000 C 
ATOM     11  N   UNL     1       8.323   9.620  17.842  0.00  0.00    +0.000 N 
ATOM     12  H   UNL     1       7.696  10.081  17.198  0.00  0.00    +0.000 HD
BRANCH  11  13
ATOM     13  C   UNL     1       9.236  10.400  18.579  0.00  0.00    +0.000 A 
ATOM     14  C   UNL     1       9.144  10.557  19.964  0.00  0.00    +0.000 A 
ATOM     15  C   UNL     1      10.052  11.357  20.660  0.00  0.00    +0.000 A 
ATOM     16  C   UNL     1      11.071  12.009  19.974  0.00  0.00    +0.000 A 
ATOM     17  C   UNL     1      11.190  11.845  18.596  0.00  0.00    +0.000 A 
ATOM     18  C   UNL     1      10.282  11.037  17.899  0.00  0.00    +0.000 A 
ENDBRANCH  11  13
ENDBRANCH   8  10
ENDBRANCH   7   8
ENDBRANCH   1   7
BRANCH   5  19
ATOM     19  C   UNL     1       4.229   3.163  18.047  0.00  0.00    +0.000 C 
BRANCH  19  20
ATOM     20  C   UNL     1       3.125   3.034  19.076  0.00  0.00    +0.000 A 
ATOM     21  C   UNL     1       3.420   3.087  20.447  0.00  0.00    +0.000 A 
ATOM     22  C   UNL     1       2.400   3.013  21.397  0.00  0.00    +0.000 A 
ATOM     23  C   UNL     1       1.074   2.888  20.989  0.00  0.00    +0.000 A 
ATOM     24  C   UNL     1       0.767   2.825  19.630  0.00  0.00    +0.000 A 
ATOM     25  C   UNL     1       1.787   2.896  18.678  0.00  0.00    +0.000 A 
ENDBRANCH  19  20
ENDBRANCH   5  19
TORSDOF 6
ENDMDL
MODEL 3
REMARK VINA RESULT:      -8.0      3.638      6.979
REMARK  Name = 
REMARK  6 active torsions:
REMARK  status: ('A' for Active; 'I' for Inactive)
REMARK    1  A    between atoms: C_2  and  O_10
REMARK    2  A    between atoms: N_3  and  C_4
REMARK    3  A    between atoms: O_10  and  C_11
REMARK    4  A    between atoms: C_11  and  C_12
REMARK    5  A    between atoms: N_16  and  C_17
REMARK    6  A    between atoms: C_17  and  C_18
REMARK                            x       y       z     vdW  Elec       q    Type
REMARK                         _______ _______ _______ _____ _____    ______ ____
ROOT
ATOM      1  C   UNL     1       5.677   6.216  16.216  0.00  0.00    +0.000 C 
ATOM      2  C   UNL     1       4.483   7.177  16.259  0.00  0.00    +0.000 C 
ATOM      3  C   UNL     1       3.703   7.027  17.561  0.00  0.00    +0.000 C 
ATOM      4  C   UNL     1       3.333   5.567  17.838  0.00  0.00    +0.000 C 
ATOM      5  N   UNL     1       4.506   4.676  17.798  0.00  0.00    +0.000 NA
ATOM      6  C   UNL     1       5.194   4.784  16.498  0.00  0.00    +0.000 C 
ENDROOT
BRANCH   1   7
ATOM      7  C   UNL     1       6.803   6.612  17.193  0.00  0.00    +0.000 C 
BRANCH   7   8
ATOM      8  O   UNL     1       7.141   8.012  17.116  0.00  0.00    +0.000 OA
BRANCH   8  10
ATOM      9  O   UNL     1       8.630   7.644  18.793  0.00  0.00    +0.000 OA
ATOM     10  C   UNL     1       8.112   8.404  17.990  0.00  0.00    +0.000 C 
ATOM     11  N   UNL     1       8.350   9.746  17.842  0.00  0.00    +0.000 N 
ATOM     12  H   UNL     1       7.708  10.227  17.229  0.00  0.00    +0.000 HD
BRANCH  11  13
ATOM     13  C   UNL     1       9.301  10.500  18.559  0.00  0.00    +0.000 A 
ATOM     14  C   UNL     1      10.400  11.105  17.943  0.00  0.00    +0.000 A 
ATOM     15  C   UNL     1      11.336  11.826  18.687  0.00  0.00    +0.000 A 
ATOM     16  C   UNL     1      11.180  11.953  20.063  0.00  0.00    +0.000 A 
ATOM     17  C   UNL     1      10.079  11.373  20.689  0.00  0.00    +0.000 A 
ATOM     18  C   UNL     1       9.136  10.656  19.941  0.00  0.00    +0.000 A 
ENDBRANCH  11  13
ENDBRANCH   8  10
ENDBRANCH   7   8
ENDBRANCH   1   7
BRANCH   5  19
ATOM     19  C   UNL     1       4.123   3.268  18.029  0.00  0.00    +0.000 C 
BRANCH  19  20
ATOM     20  C   UNL     1       3.097   3.068  19.126  0.00  0.00    +0.000 A 
ATOM     21  C   UNL     1       3.503   2.950  20.465  0.00  0.00    +0.000 A 
ATOM     22  C   UNL     1       2.558   2.810  21.483  0.00  0.00    +0.000 A 
ATOM     23  C   UNL     1       1.199   2.789  21.177  0.00  0.00    +0.000 A 
ATOM     24  C   UNL     1       0.783   2.895  19.850  0.00  0.00    +0.000 A 
ATOM     25  C   UNL     1       1.727   3.032  18.829  0.00  0.00    +0.000 A 
ENDBRANCH  19  20
ENDBRANCH   5  19
TORSDOF 6
ENDMDL
MODEL 4
REMARK VINA RESULT:      -7.9      3.947      7.351
REMARK  Name = 
REMARK  6 active torsions:
REMARK  status: ('A' for Active; 'I' for Inactive)
REMARK    1  A    between atoms: C_2  and  O_10
REMARK    2  A    between atoms: N_3  and  C_4
REMARK    3  A    between atoms: O_10  and  C_11
REMARK    4  A    between atoms: C_11  and  C_12
REMARK    5  A    between atoms: N_16  and  C_17
REMARK    6  A    between atoms: C_17  and  C_18
REMARK                            x       y       z     vdW  Elec       q    Type
REMARK                         _______ _______ _______ _____ _____    ______ ____
ROOT
ATOM      1  C   UNL     1       7.302   5.653  16.963  0.00  0.00    +0.000 C 
ATOM      2  C   UNL     1       6.638   5.397  15.604  0.00  0.00    +0.000 C 
ATOM      3  C   UNL     1       5.122   5.323  15.738  0.00  0.00    +0.000 C 
ATOM      4  C   UNL     1       4.694   4.338  16.832  0.00  0.00    +0.000 C 
ATOM      5  N   UNL     1       5.344   4.622  18.124  0.00  0.00    +0.000 NA
ATOM      6  C   UNL     1       6.811   4.609  17.978  0.00  0.00    +0.000 C 
ENDROOT
BRANCH   1   7
ATOM      7  C   UNL     1       7.059   7.082  17.491  0.00  0.00    +0.000 C 
BRANCH   7   8
ATOM      8  O   UNL     1       8.130   7.555  18.333  0.00  0.00    +0.000 OA
BRANCH   8  10
ATOM      9  O   UNL     1       7.728   9.640  17.523  0.00  0.00    +0.000 OA
ATOM     10  C   UNL     1       8.303   8.908  18.313  0.00  0.00    +0.000 C 
ATOM     11  N   UNL     1       9.228   9.268  19.258  0.00  0.00    +0.000 N 
ATOM     12  H   UNL     1       9.702   8.495  19.706  0.00  0.00    +0.000 HD
BRANCH  11  13
ATOM     13  C   UNL     1       9.650  10.581  19.544  0.00  0.00    +0.000 A 
ATOM     14  C   UNL     1      10.390  11.347  18.640  0.00  0.00    +0.000 A 
ATOM     15  C   UNL     1      10.812  12.638  18.966  0.00  0.00    +0.000 A 
ATOM     16  C   UNL     1      10.492  13.181  20.205  0.00  0.00    +0.000 A 
ATOM     17  C   UNL     1       9.736  12.439  21.109  0.00  0.00    +0.000 A 
ATOM     18  C   UNL     1       9.307  11.146  20.779  0.00  0.00    +0.000 A 
ENDBRANCH  11  13
ENDBRANCH   8  10
ENDBRANCH   7   8
ENDBRANCH   1   7
BRANCH   5  19
ATOM     19  C   UNL     1       4.949   3.639  19.154  0.00  0.00    +0.000 C 
BRANCH  19  20
ATOM     20  C   UNL     1       3.521   3.778  19.641  0.00  0.00    +0.000 A 
ATOM     21  C   UNL     1       3.035   5.024  20.069  0.00  0.00    +0.000 A 
ATOM     22  C   UNL     1       1.707   5.165  20.476  0.00  0.00    +0.000 A 
ATOM     23  C   UNL     1       0.850   4.067  20.458  0.00  0.00    +0.000 A 
ATOM     24  C   UNL     1       1.323   2.822  20.044  0.00  0.00    +0.000 A 
ATOM     25  C   UNL     1       2.652   2.677  19.639  0.00  0.00    +0.000 A 
ENDBRANCH  19  20
ENDBRANCH   5  19
TORSDOF 6
ENDMDL
MODEL 5
REMARK VINA RESULT:      -7.8      4.172      8.944
REMARK  Name = 
REMARK  6 active torsions:
REMARK  status: ('A' for Active; 'I' for Inactive)
REMARK    1  A    between atoms: C_2  and  O_10
REMARK    2  A    between atoms: N_3  and  C_4
REMARK    3  A    between atoms: O_10  and  C_11
REMARK    4  A    between atoms: C_11  and  C_12
REMARK    5  A    between atoms: N_16  and  C_17
REMARK    6  A    between atoms: C_17  and  C_18
REMARK                            x       y       z     vdW  Elec       q    Type
REMARK                         _______ _______ _______ _____ _____    ______ ____
ROOT
ATOM      1  C   UNL     1       1.250   4.432  20.163  0.00  0.00    +0.000 C 
ATOM      2  C   UNL     1       1.253   3.193  21.066  0.00  0.00    +0.000 C 
ATOM      3  C   UNL     1       2.660   2.626  21.217  0.00  0.00    +0.000 C 
ATOM      4  C   UNL     1       3.335   2.405  19.859  0.00  0.00    +0.000 C 
ATOM      5  N   UNL     1       3.321   3.620  19.025  0.00  0.00    +0.000 NA
ATOM      6  C   UNL     1       1.940   4.098  18.831  0.00  0.00    +0.000 C 
ENDROOT
BRANCH   1   7
ATOM      7  C   UNL     1       1.910   5.659  20.825  0.00  0.00    +0.000 C 
BRANCH   7   8
ATOM      8  O   UNL     1       2.429   6.600  19.863  0.00  0.00    +0.000 OA
BRANCH   8  10
ATOM      9  O   UNL     1       1.783   8.572  18.936  0.00  0.00    +0.000 OA
ATOM     10  C   UNL     1       1.834   7.827  19.902  0.00  0.00    +0.000 C 
ATOM     11  N   UNL     1       1.374   8.076  21.169  0.00  0.00    +0.000 N 
ATOM     12  H   UNL     1       1.651   7.396  21.863  0.00  0.00    +0.000 HD
BRANCH  11  13
ATOM     13  C   UNL     1       0.686   9.233  21.585  0.00  0.00    +0.000 A 
ATOM     14  C   UNL     1       0.825  10.464  20.940  0.00  0.00    +0.000 A 
ATOM     15  C   UNL     1       0.147  11.597  21.395  0.00  0.00    +0.000 A 
ATOM     16  C   UNL     1      -0.687  11.508  22.504  0.00  0.00    +0.000 A 
ATOM     17  C   UNL     1      -0.852  10.283  23.147  0.00  0.00    +0.000 A 
ATOM     18  C   UNL     1      -0.177   9.145  22.686  0.00  0.00    +0.000 A 
ENDBRANCH  11  13
ENDBRANCH   8  10
ENDBRANCH   7   8
ENDBRANCH   1   7
BRANCH   5  19
ATOM     19  C   UNL     1       3.941   3.375  17.706  0.00  0.00    +0.000 C 
BRANCH  19  20
ATOM     20  C   UNL     1       5.071   4.321  17.357  0.00  0.00    +0.000 A 
ATOM     21  C   UNL     1       5.540   5.247  18.302  0.00  0.00    +0.000 A 
ATOM     22  C   UNL     1       6.610   6.090  17.999  0.00  0.00    +0.000 A 
ATOM     23  C   UNL     1       7.226   6.017  16.751  0.00  0.00    +0.000 A 
ATOM     24  C   UNL     1       6.763   5.108  15.800  0.00  0.00    +0.000 A 
ATOM     25  C   UNL     1       5.690   4.266  16.099  0.00  0.00    +0.000 A 
ENDBRANCH  19  20
ENDBRANCH   5  19
TORSDOF 6
ENDMDL
MODEL 6
REMARK VINA RESULT:      -7.8      3.969      7.342
REMARK  Name = 
REMARK  6 active torsions:
REMARK  status: ('A' for Active; 'I' for Inactive)
REMARK    1  A    between atoms: C_2  and  O_10
REMARK    2  A    between atoms: N_3  and  C_4
REMARK    3  A    between atoms: O_10  and  C_11
REMARK    4  A    between atoms: C_11  and  C_12
REMARK    5  A    between atoms: N_16  and  C_17
REMARK    6  A    between atoms: C_17  and  C_18
REMARK                            x       y       z     vdW  Elec       q    Type
REMARK                         _______ _______ _______ _____ _____    ______ ____
ROOT
ATOM      1  C   UNL     1       7.428   5.605  17.036  0.00  0.00    +0.000 C 
ATOM      2  C   UNL     1       6.867   5.410  15.622  0.00  0.00    +0.000 C 
ATOM      3  C   UNL     1       5.345   5.337  15.639  0.00  0.00    +0.000 C 
ATOM      4  C   UNL     1       4.835   4.310  16.655  0.00  0.00    +0.000 C 
ATOM      5  N   UNL     1       5.387   4.535  18.003  0.00  0.00    +0.000 NA
ATOM      6  C   UNL     1       6.861   4.521  17.967  0.00  0.00    +0.000 C 
ENDROOT
BRANCH   1   7
ATOM      7  C   UNL     1       7.148   7.011  17.604  0.00  0.00    +0.000 C 
BRANCH   7   8
ATOM      8  O   UNL     1       8.273   7.556  18.325  0.00  0.00    +0.000 OA
BRANCH   8  10
ATOM      9  O   UNL     1       7.692   9.611  17.546  0.00  0.00    +0.000 OA
ATOM     10  C   UNL     1       8.338   8.918  18.317  0.00  0.00    +0.000 C 
ATOM     11  N   UNL     1       9.248   9.341  19.251  0.00  0.00    +0.000 N 
ATOM     12  H   UNL     1       9.789   8.605  19.681  0.00  0.00    +0.000 HD
BRANCH  11  13
ATOM     13  C   UNL     1       9.568  10.681  19.544  0.00  0.00    +0.000 A 
ATOM     14  C   UNL     1       9.388  11.237  20.814  0.00  0.00    +0.000 A 
ATOM     15  C   UNL     1       9.693  12.576  21.064  0.00  0.00    +0.000 A 
ATOM     16  C   UNL     1      10.189  13.378  20.042  0.00  0.00    +0.000 A 
ATOM     17  C   UNL     1      10.394  12.834  18.776  0.00  0.00    +0.000 A 
ATOM     18  C   UNL     1      10.094  11.488  18.527  0.00  0.00    +0.000 A 
ENDBRANCH  11  13
ENDBRANCH   8  10
ENDBRANCH   7   8
ENDBRANCH   1   7
BRANCH   5  19
ATOM     19  C   UNL     1       4.914   3.512  18.958  0.00  0.00    +0.000 C 
BRANCH  19  20
ATOM     20  C   UNL     1       3.539   3.778  19.535  0.00  0.00    +0.000 A 
ATOM     21  C   UNL     1       3.153   5.084  19.878  0.00  0.00    +0.000 A 
ATOM     22  C   UNL     1       1.872   5.340  20.369  0.00  0.00    +0.000 A 
ATOM     23  C   UNL     1       0.961   4.296  20.520  0.00  0.00    +0.000 A 
ATOM     24  C   UNL     1       1.335   2.994  20.193  0.00  0.00    +0.000 A 
ATOM     25  C   UNL     1       2.617   2.735  19.705  0.00  0.00    +0.000 A 
ENDBRANCH  19  20
ENDBRANCH   5  19
TORSDOF 6
ENDMDL
MODEL 7
REMARK VINA RESULT:      -7.7      4.207      8.955
REMARK  Name = 
REMARK  6 active torsions:
REMARK  status: ('A' for Active; 'I' for Inactive)
REMARK    1  A    between atoms: C_2  and  O_10
REMARK    2  A    between atoms: N_3  and  C_4
REMARK    3  A    between atoms: O_10  and  C_11
REMARK    4  A    between atoms: C_11  and  C_12
REMARK    5  A    between atoms: N_16  and  C_17
REMARK    6  A    between atoms: C_17  and  C_18
REMARK                            x       y       z     vdW  Elec       q    Type
REMARK                         _______ _______ _______ _____ _____    ______ ____
ROOT
ATOM      1  C   UNL     1       1.222   4.538  20.250  0.00  0.00    +0.000 C 
ATOM      2  C   UNL     1       1.274   3.240  21.065  0.00  0.00    +0.000 C 
ATOM      3  C   UNL     1       2.655   2.600  20.995  0.00  0.00    +0.000 C 
ATOM      4  C   UNL     1       3.138   2.443  19.549  0.00  0.00    +0.000 C 
ATOM      5  N   UNL     1       3.084   3.713  18.802  0.00  0.00    +0.000 NA
ATOM      6  C   UNL     1       1.718   4.266  18.821  0.00  0.00    +0.000 C 
ENDROOT
BRANCH   1   7
ATOM      7  C   UNL     1       2.028   5.684  20.897  0.00  0.00    +0.000 C 
BRANCH   7   8
ATOM      8  O   UNL     1       2.479   6.660  19.935  0.00  0.00    +0.000 OA
BRANCH   8  10
ATOM      9  O   UNL     1       1.582   8.517  18.978  0.00  0.00    +0.000 OA
ATOM     10  C   UNL     1       1.796   7.841  19.972  0.00  0.00    +0.000 C 
ATOM     11  N   UNL     1       1.457   8.136  21.267  0.00  0.00    +0.000 N 
ATOM     12  H   UNL     1       1.861   7.524  21.962  0.00  0.00    +0.000 HD
BRANCH  11  13
ATOM     13  C   UNL     1       0.729   9.264  21.694  0.00  0.00    +0.000 A 
ATOM     14  C   UNL     1      -0.200   9.210  22.736  0.00  0.00    +0.000 A 
ATOM     15  C   UNL     1      -0.922  10.342  23.117  0.00  0.00    +0.000 A 
ATOM     16  C   UNL     1      -0.718  11.550  22.459  0.00  0.00    +0.000 A 
ATOM     17  C   UNL     1       0.220  11.626  21.432  0.00  0.00    +0.000 A 
ATOM     18  C   UNL     1       0.949  10.491  21.054  0.00  0.00    +0.000 A 
ENDBRANCH  11  13
ENDBRANCH   8  10
ENDBRANCH   7   8
ENDBRANCH   1   7
BRANCH   5  19
ATOM     19  C   UNL     1       3.516   3.532  17.400  0.00  0.00    +0.000 C 
BRANCH  19  20
ATOM     20  C   UNL     1       4.729   4.350  17.006  0.00  0.00    +0.000 A 
ATOM     21  C   UNL     1       5.009   5.564  17.654  0.00  0.00    +0.000 A 
ATOM     22  C   UNL     1       6.149   6.298  17.324  0.00  0.00    +0.000 A 
ATOM     23  C   UNL     1       7.023   5.829  16.346  0.00  0.00    +0.000 A 
ATOM     24  C   UNL     1       6.752   4.630  15.688  0.00  0.00    +0.000 A 
ATOM     25  C   UNL     1       5.610   3.895  16.014  0.00  0.00    +0.000 A 
ENDBRANCH  19  20
ENDBRANCH   5  19
TORSDOF 6
ENDMDL
MODEL 8
REMARK VINA RESULT:      -7.7      3.567      6.928
REMARK  Name = 
REMARK  6 active torsions:
REMARK  status: ('A' for Active; 'I' for Inactive)
REMARK    1  A    between atoms: C_2  and  O_10
REMARK    2  A    between atoms: N_3  and  C_4
REMARK    3  A    between atoms: O_10  and  C_11
REMARK    4  A    between atoms: C_11  and  C_12
REMARK    5  A    between atoms: N_16  and  C_17
REMARK    6  A    between atoms: C_17  and  C_18
REMARK                            x       y       z     vdW  Elec       q    Type
REMARK                         _______ _______ _______ _____ _____    ______ ____
ROOT
ATOM      1  C   UNL     1       6.625   5.461  17.565  0.00  0.00    +0.000 C 
ATOM      2  C   UNL     1       7.240   5.088  16.210  0.00  0.00    +0.000 C 
ATOM      3  C   UNL     1       6.179   5.048  15.116  0.00  0.00    +0.000 C 
ATOM      4  C   UNL     1       4.984   4.176  15.514  0.00  0.00    +0.000 C 
ATOM      5  N   UNL     1       4.413   4.571  16.815  0.00  0.00    +0.000 NA
ATOM      6  C   UNL     1       5.445   4.524  17.867  0.00  0.00    +0.000 C 
ENDROOT
BRANCH   1   7
ATOM      7  C   UNL     1       6.180   6.937  17.636  0.00  0.00    +0.000 C 
BRANCH   7   8
ATOM      8  O   UNL     1       7.153   7.840  17.072  0.00  0.00    +0.000 OA
BRANCH   8  10
ATOM      9  O   UNL     1       8.583   7.574  18.819  0.00  0.00    +0.000 OA
ATOM     10  C   UNL     1       8.085   8.287  17.963  0.00  0.00    +0.000 C 
ATOM     11  N   UNL     1       8.310   9.624  17.761  0.00  0.00    +0.000 N 
ATOM     12  H   UNL     1       7.685  10.066  17.102  0.00  0.00    +0.000 HD
BRANCH  11  13
ATOM     13  C   UNL     1       9.222  10.425  18.476  0.00  0.00    +0.000 A 
ATOM     14  C   UNL     1      10.255  11.130  17.851  0.00  0.00    +0.000 A 
ATOM     15  C   UNL     1      11.156  11.895  18.594  0.00  0.00    +0.000 A 
ATOM     16  C   UNL     1      11.032  11.969  19.977  0.00  0.00    +0.000 A 
ATOM     17  C   UNL     1       9.995  11.289  20.613  0.00  0.00    +0.000 A 
ATOM     18  C   UNL     1       9.086  10.527  19.867  0.00  0.00    +0.000 A 
ENDBRANCH  11  13
ENDBRANCH   8  10
ENDBRANCH   7   8
ENDBRANCH   1   7
BRANCH   5  19
ATOM     19  C   UNL     1       3.287   3.695  17.198  0.00  0.00    +0.000 C 
BRANCH  19  20
ATOM     20  C   UNL     1       2.882   3.792  18.654  0.00  0.00    +0.000 A 
ATOM     21  C   UNL     1       2.240   4.943  19.138  0.00  0.00    +0.000 A 
ATOM     22  C   UNL     1       1.825   5.018  20.469  0.00  0.00    +0.000 A 
ATOM     23  C   UNL     1       2.046   3.946  21.331  0.00  0.00    +0.000 A 
ATOM     24  C   UNL     1       2.691   2.801  20.866  0.00  0.00    +0.000 A 
ATOM     25  C   UNL     1       3.109   2.724  19.535  0.00  0.00    +0.000 A 
ENDBRANCH  19  20
ENDBRANCH   5  19
TORSDOF 6
ENDMDL
MODEL 9
REMARK VINA RESULT:      -7.6      3.851      7.175
REMARK  Name = 
REMARK  6 active torsions:
REMARK  status: ('A' for Active; 'I' for Inactive)
REMARK    1  A    between atoms: C_2  and  O_10
REMARK    2  A    between atoms: N_3  and  C_4
REMARK    3  A    between atoms: O_10  and  C_11
REMARK    4  A    between atoms: C_11  and  C_12
REMARK    5  A    between atoms: N_16  and  C_17
REMARK    6  A    between atoms: C_17  and  C_18
REMARK                            x       y       z     vdW  Elec       q    Type
REMARK                         _______ _______ _______ _____ _____    ______ ____
ROOT
ATOM      1  C   UNL     1       6.565   5.624  18.339  0.00  0.00    +0.000 C 
ATOM      2  C   UNL     1       6.717   4.384  17.450  0.00  0.00    +0.000 C 
ATOM      3  C   UNL     1       5.747   4.427  16.275  0.00  0.00    +0.000 C 
ATOM      4  C   UNL     1       4.308   4.687  16.733  0.00  0.00    +0.000 C 
ATOM      5  N   UNL     1       4.200   5.892  17.576  0.00  0.00    +0.000 NA
ATOM      6  C   UNL     1       5.092   5.786  18.746  0.00  0.00    +0.000 C 
ENDROOT
BRANCH   1   7
ATOM      7  C   UNL     1       7.089   6.911  17.669  0.00  0.00    +0.000 C 
BRANCH   7   8
ATOM      8  O   UNL     1       8.245   7.457  18.337  0.00  0.00    +0.000 OA
BRANCH   8  10
ATOM      9  O   UNL     1       7.659   9.507  17.548  0.00  0.00    +0.000 OA
ATOM     10  C   UNL     1       8.314   8.819  18.316  0.00  0.00    +0.000 C 
ATOM     11  N   UNL     1       9.239   9.248  19.232  0.00  0.00    +0.000 N 
ATOM     12  H   UNL     1       9.784   8.514  19.661  0.00  0.00    +0.000 HD
BRANCH  11  13
ATOM     13  C   UNL     1       9.568  10.590  19.508  0.00  0.00    +0.000 A 
ATOM     14  C   UNL     1       9.334  11.181  20.753  0.00  0.00    +0.000 A 
ATOM     15  C   UNL     1       9.650  12.521  20.984  0.00  0.00    +0.000 A 
ATOM     16  C   UNL     1      10.211  13.288  19.970  0.00  0.00    +0.000 A 
ATOM     17  C   UNL     1      10.470  12.708  18.729  0.00  0.00    +0.000 A 
ATOM     18  C   UNL     1      10.159  11.362  18.499  0.00  0.00    +0.000 A 
ENDBRANCH  11  13
ENDBRANCH   8  10
ENDBRANCH   7   8
ENDBRANCH   1   7
BRANCH   5  19
ATOM     19  C   UNL     1       2.813   6.104  18.039  0.00  0.00    +0.000 C 
BRANCH  19  20
ATOM     20  C   UNL     1       2.236   4.956  18.840  0.00  0.00    +0.000 A 
ATOM     21  C   UNL     1       2.262   4.985  20.243  0.00  0.00    +0.000 A 
ATOM     22  C   UNL     1       1.692   3.949  20.985  0.00  0.00    +0.000 A 
ATOM     23  C   UNL     1       1.086   2.876  20.335  0.00  0.00    +0.000 A 
ATOM     24  C   UNL     1       1.061   2.830  18.942  0.00  0.00    +0.000 A 
ATOM     25  C   UNL     1       1.635   3.864  18.198  0.00  0.00    +0.000 A 
ENDBRANCH  19  20
ENDBRANCH   5  19
TORSDOF 6
ENDMDL
