MODEL 1
REMARK VINA RESULT:      -8.4      0.000      0.000
REMARK  Name = 
REMARK  5 active torsions:
REMARK  status: ('A' for Active; 'I' for Inactive)
REMARK    1  A    between atoms: C_2  and  C_24
REMARK    2  A    between atoms: N_3  and  C_4
REMARK    3  A    between atoms: C_9  and  S_10
REMARK    4  A    between atoms: S_10  and  N_13
REMARK    5  A    between atoms: N_13  and  C_14
REMARK                            x       y       z     vdW  Elec       q    Type
REMARK                         _______ _______ _______ _____ _____    ______ ____
ROOT
ATOM      1  S   UNL     1       5.717   5.000  19.237  0.00  0.00    +0.000 S 
ATOM      2  O   UNL     1       6.994   5.358  19.825  0.00  0.00    +0.000 OA
ATOM      3  O   UNL     1       4.495   5.636  19.661  0.00  0.00    +0.000 OA
ENDROOT
BRANCH   1   9
ATOM      4  C   UNL     1       5.114   6.234  16.790  0.00  0.00    +0.000 A 
ATOM      5  C   UNL     1       5.269   6.335  15.396  0.00  0.00    +0.000 A 
ATOM      6  C   UNL     1       6.082   5.447  14.689  0.00  0.00    +0.000 A 
ATOM      7  C   UNL     1       6.747   4.429  15.363  0.00  0.00    +0.000 A 
ATOM      8  C   UNL     1       6.627   4.320  16.747  0.00  0.00    +0.000 A 
ATOM      9  C   UNL     1       5.842   5.241  17.468  0.00  0.00    +0.000 A 
BRANCH   4  12
ATOM     10  O   UNL     1       2.330   5.948  17.461  0.00  0.00    +0.000 OA
ATOM     11  C   UNL     1       2.933   6.997  17.698  0.00  0.00    +0.000 C 
ATOM     12  N   UNL     1       4.298   7.171  17.467  0.00  0.00    +0.000 N 
ATOM     13  H   UNL     1       4.760   7.840  18.087  0.00  0.00    +0.000 HD
BRANCH  11  14
ATOM     14  C   UNL     1       2.239   8.221  18.322  0.00  0.00    +0.000 C 
ATOM     15  F   UNL     1       2.056   8.090  19.667  0.00  0.00    +0.000 F 
ATOM     16  F   UNL     1       2.961   9.364  18.150  0.00  0.00    +0.000 F 
ATOM     17  F   UNL     1       1.008   8.453  17.792  0.00  0.00    +0.000 F 
ENDBRANCH  11  14
ENDBRANCH   4  12
ENDBRANCH   1   9
BRANCH   1  18
ATOM     18  N   UNL     1       5.481   3.307  19.430  0.00  0.00    +0.000 N 
ATOM     19  H   UNL     1       5.618   3.070  20.419  0.00  0.00    +0.000 HD
BRANCH  18  20
ATOM     20  C   UNL     1       4.185   2.849  18.978  0.00  0.00    +0.000 A 
ATOM     21  C   UNL     1       3.964   2.778  17.600  0.00  0.00    +0.000 A 
ATOM     22  C   UNL     1       2.675   2.598  17.117  0.00  0.00    +0.000 A 
ATOM     23  C   UNL     1       1.608   2.569  18.010  0.00  0.00    +0.000 A 
ATOM     24  C   UNL     1       1.829   2.668  19.392  0.00  0.00    +0.000 A 
ATOM     25  C   UNL     1       0.772   2.772  20.303  0.00  0.00    +0.000 A 
ATOM     26  C   UNL     1       1.034   2.881  21.663  0.00  0.00    +0.000 A 
ATOM     27  C   UNL     1       2.350   2.828  22.078  0.00  0.00    +0.000 A 
ATOM     28  N   UNL     1       3.400   2.759  21.229  0.00  0.00    +0.000 NA
ATOM     29  C   UNL     1       3.142   2.725  19.904  0.00  0.00    +0.000 A 
ENDBRANCH  18  20
ENDBRANCH   1  18
TORSDOF 5
ENDMDL
MODEL 2
REMARK VINA RESULT:      -8.3      3.263      6.131
REMARK  Name = 
REMARK  5 active torsions:
REMARK  status: ('A' for Active; 'I' for Inactive)
REMARK    1  A    between atoms: C_2  and  C_24
REMARK    2  A    between atoms: N_3  and  C_4
REMARK    3  A    between atoms: C_9  and  S_10
REMARK    4  A    between atoms: S_10  and  N_13
REMARK    5  A    between atoms: N_13  and  C_14
REMARK                            x       y       z     vdW  Elec       q    Type
REMARK                         _______ _______ _______ _____ _____    ______ ____
ROOT
ATOM      1  S   UNL     1       2.824   5.831  18.677  0.00  0.00    +0.000 S 
ATOM      2  O   UNL     1       3.997   6.081  17.860  0.00  0.00    +0.000 OA
ATOM      3  O   UNL     1       1.519   5.676  18.083  0.00  0.00    +0.000 OA
ENDROOT
BRANCH   1   9
ATOM      4  C   UNL     1       4.244   3.526  19.417  0.00  0.00    +0.000 A 
ATOM      5  C   UNL     1       4.392   2.382  20.220  0.00  0.00    +0.000 A 
ATOM      6  C   UNL     1       3.442   2.044  21.185  0.00  0.00    +0.000 A 
ATOM      7  C   UNL     1       2.315   2.839  21.357  0.00  0.00    +0.000 A 
ATOM      8  C   UNL     1       2.155   3.991  20.588  0.00  0.00    +0.000 A 
ATOM      9  C   UNL     1       3.134   4.357  19.644  0.00  0.00    +0.000 A 
BRANCH   4  12
ATOM     10  O   UNL     1       6.645   5.051  19.861  0.00  0.00    +0.000 OA
ATOM     11  C   UNL     1       6.352   4.647  18.734  0.00  0.00    +0.000 C 
ATOM     12  N   UNL     1       5.244   3.841  18.467  0.00  0.00    +0.000 N 
ATOM     13  H   UNL     1       5.347   3.216  17.663  0.00  0.00    +0.000 HD
BRANCH  11  14
ATOM     14  C   UNL     1       7.214   4.961  17.499  0.00  0.00    +0.000 C 
ATOM     15  F   UNL     1       7.707   6.233  17.514  0.00  0.00    +0.000 F 
ATOM     16  F   UNL     1       8.297   4.139  17.405  0.00  0.00    +0.000 F 
ATOM     17  F   UNL     1       6.526   4.834  16.332  0.00  0.00    +0.000 F 
ENDBRANCH  11  14
ENDBRANCH   4  12
ENDBRANCH   1   9
BRANCH   1  18
ATOM     18  N   UNL     1       2.687   7.093  19.838  0.00  0.00    +0.000 N 
ATOM     19  H   UNL     1       3.631   7.392  20.106  0.00  0.00    +0.000 HD
BRANCH  18  20
ATOM     20  C   UNL     1       1.915   8.225  19.373  0.00  0.00    +0.000 A 
ATOM     21  C   UNL     1       2.259   8.785  18.140  0.00  0.00    +0.000 A 
ATOM     22  C   UNL     1       1.731  10.014  17.770  0.00  0.00    +0.000 A 
ATOM     23  C   UNL     1       0.925  10.711  18.667  0.00  0.00    +0.000 A 
ATOM     24  C   UNL     1       0.603  10.158  19.915  0.00  0.00    +0.000 A 
ATOM     25  C   UNL     1      -0.096  10.885  20.886  0.00  0.00    +0.000 A 
ATOM     26  C   UNL     1      -0.384  10.305  22.115  0.00  0.00    +0.000 A 
ATOM     27  C   UNL     1      -0.012   8.991  22.318  0.00  0.00    +0.000 A 
ATOM     28  N   UNL     1       0.689   8.265  21.419  0.00  0.00    +0.000 NA
ATOM     29  C   UNL     1       1.029   8.857  20.253  0.00  0.00    +0.000 A 
ENDBRANCH  18  20
ENDBRANCH   1  18
TORSDOF 5
ENDMDL
MODEL 3
REMARK VINA RESULT:      -8.3      3.498      6.324
REMARK  Name = 
REMARK  5 active torsions:
REMARK  status: ('A' for Active; 'I' for Inactive)
REMARK    1  A    between atoms: C_2  and  C_24
REMARK    2  A    between atoms: N_3  and  C_4
REMARK    3  A    between atoms: C_9  and  S_10
REMARK    4  A    between atoms: S_10  and  N_13
REMARK    5  A    between atoms: N_13  and  C_14
REMARK                            x       y       z     vdW  Elec       q    Type
REMARK                         _______ _______ _______ _____ _____    ______ ____
ROOT
ATOM      1  S   UNL     1       2.738   6.281  18.954  0.00  0.00    +0.000 S 
ATOM      2  O   UNL     1       4.037   6.641  18.417  0.00  0.00    +0.000 OA
ATOM      3  O   UNL     1       1.583   6.163  18.099  0.00  0.00    +0.000 OA
ENDROOT
BRANCH   1   9
ATOM      4  C   UNL     1       3.688   3.664  19.300  0.00  0.00    +0.000 A 
ATOM      5  C   UNL     1       3.752   2.470  20.040  0.00  0.00    +0.000 A 
ATOM      6  C   UNL     1       3.029   2.309  21.223  0.00  0.00    +0.000 A 
ATOM      7  C   UNL     1       2.215   3.337  21.685  0.00  0.00    +0.000 A 
ATOM      8  C   UNL     1       2.151   4.539  20.981  0.00  0.00    +0.000 A 
ATOM      9  C   UNL     1       2.913   4.719  19.810  0.00  0.00    +0.000 A 
BRANCH   4  12
ATOM     10  O   UNL     1       6.469   4.381  19.103  0.00  0.00    +0.000 OA
ATOM     11  C   UNL     1       5.787   4.211  18.091  0.00  0.00    +0.000 C 
ATOM     12  N   UNL     1       4.457   3.789  18.119  0.00  0.00    +0.000 N 
ATOM     13  H   UNL     1       4.153   3.258  17.298  0.00  0.00    +0.000 HD
BRANCH  11  14
ATOM     14  C   UNL     1       6.355   4.407  16.674  0.00  0.00    +0.000 C 
ATOM     15  F   UNL     1       5.953   3.431  15.809  0.00  0.00    +0.000 F 
ATOM     16  F   UNL     1       5.958   5.587  16.119  0.00  0.00    +0.000 F 
ATOM     17  F   UNL     1       7.715   4.401  16.648  0.00  0.00    +0.000 F 
ENDBRANCH  11  14
ENDBRANCH   4  12
ENDBRANCH   1   9
BRANCH   1  18
ATOM     18  N   UNL     1       2.323   7.408  20.185  0.00  0.00    +0.000 N 
ATOM     19  H   UNL     1       3.188   7.755  20.614  0.00  0.00    +0.000 HD
BRANCH  18  20
ATOM     20  C   UNL     1       1.521   8.515  19.709  0.00  0.00    +0.000 A 
ATOM     21  C   UNL     1       1.809   9.030  18.442  0.00  0.00    +0.000 A 
ATOM     22  C   UNL     1       1.255  10.240  18.047  0.00  0.00    +0.000 A 
ATOM     23  C   UNL     1       0.478  10.963  18.949  0.00  0.00    +0.000 A 
ATOM     24  C   UNL     1       0.212  10.456  20.230  0.00  0.00    +0.000 A 
ATOM     25  C   UNL     1      -0.454  11.214  21.199  0.00  0.00    +0.000 A 
ATOM     26  C   UNL     1      -0.687  10.679  22.461  0.00  0.00    +0.000 A 
ATOM     27  C   UNL     1      -0.294   9.377  22.698  0.00  0.00    +0.000 A 
ATOM     28  N   UNL     1       0.378   8.623  21.800  0.00  0.00    +0.000 NA
ATOM     29  C   UNL     1       0.665   9.172  20.599  0.00  0.00    +0.000 A 
ENDBRANCH  18  20
ENDBRANCH   1  18
TORSDOF 5
ENDMDL
MODEL 4
REMARK VINA RESULT:      -8.2      3.568      6.226
REMARK  Name = 
REMARK  5 active torsions:
REMARK  status: ('A' for Active; 'I' for Inactive)
REMARK    1  A    between atoms: C_2  and  C_24
REMARK    2  A    between atoms: N_3  and  C_4
REMARK    3  A    between atoms: C_9  and  S_10
REMARK    4  A    between atoms: S_10  and  N_13
REMARK    5  A    between atoms: N_13  and  C_14
REMARK                            x       y       z     vdW  Elec       q    Type
REMARK                         _______ _______ _______ _____ _____    ______ ____
ROOT
ATOM      1  S   UNL     1       2.865   6.250  19.007  0.00  0.00    +0.000 S 
ATOM      2  O   UNL     1       4.154   6.749  18.568  0.00  0.00    +0.000 OA
ATOM      3  O   UNL     1       1.776   6.073  18.077  0.00  0.00    +0.000 OA
ENDROOT
BRANCH   1   9
ATOM      4  C   UNL     1       4.127   3.772  19.381  0.00  0.00    +0.000 A 
ATOM      5  C   UNL     1       4.249   2.548  20.062  0.00  0.00    +0.000 A 
ATOM      6  C   UNL     1       3.376   2.202  21.095  0.00  0.00    +0.000 A 
ATOM      7  C   UNL     1       2.354   3.070  21.460  0.00  0.00    +0.000 A 
ATOM      8  C   UNL     1       2.225   4.299  20.816  0.00  0.00    +0.000 A 
ATOM      9  C   UNL     1       3.131   4.670  19.802  0.00  0.00    +0.000 A 
BRANCH   4  12
ATOM     10  O   UNL     1       3.714   3.546  16.542  0.00  0.00    +0.000 OA
ATOM     11  C   UNL     1       4.807   3.889  16.996  0.00  0.00    +0.000 C 
ATOM     12  N   UNL     1       5.049   4.090  18.356  0.00  0.00    +0.000 N 
ATOM     13  H   UNL     1       5.776   4.777  18.569  0.00  0.00    +0.000 HD
BRANCH  11  14
ATOM     14  C   UNL     1       6.020   4.175  16.093  0.00  0.00    +0.000 C 
ATOM     15  F   UNL     1       5.968   5.414  15.525  0.00  0.00    +0.000 F 
ATOM     16  F   UNL     1       7.196   4.125  16.779  0.00  0.00    +0.000 F 
ATOM     17  F   UNL     1       6.129   3.291  15.065  0.00  0.00    +0.000 F 
ENDBRANCH  11  14
ENDBRANCH   4  12
ENDBRANCH   1   9
BRANCH   1  18
ATOM     18  N   UNL     1       2.278   7.275  20.257  0.00  0.00    +0.000 N 
ATOM     19  H   UNL     1       3.073   7.579  20.829  0.00  0.00    +0.000 HD
BRANCH  18  20
ATOM     20  C   UNL     1       1.543   8.421  19.768  0.00  0.00    +0.000 A 
ATOM     21  C   UNL     1       1.879   8.920  18.506  0.00  0.00    +0.000 A 
ATOM     22  C   UNL     1       1.395  10.156  18.103  0.00  0.00    +0.000 A 
ATOM     23  C   UNL     1       0.644  10.920  18.992  0.00  0.00    +0.000 A 
ATOM     24  C   UNL     1       0.331  10.429  20.268  0.00  0.00    +0.000 A 
ATOM     25  C   UNL     1      -0.310  11.223  21.227  0.00  0.00    +0.000 A 
ATOM     26  C   UNL     1      -0.591  10.703  22.484  0.00  0.00    +0.000 A 
ATOM     27  C   UNL     1      -0.271   9.382  22.728  0.00  0.00    +0.000 A 
ATOM     28  N   UNL     1       0.375   8.592  21.841  0.00  0.00    +0.000 NA
ATOM     29  C   UNL     1       0.709   9.124  20.645  0.00  0.00    +0.000 A 
ENDBRANCH  18  20
ENDBRANCH   1  18
TORSDOF 5
ENDMDL
MODEL 5
REMARK VINA RESULT:      -8.1      2.116      5.031
REMARK  Name = 
REMARK  5 active torsions:
REMARK  status: ('A' for Active; 'I' for Inactive)
REMARK    1  A    between atoms: C_2  and  C_24
REMARK    2  A    between atoms: N_3  and  C_4
REMARK    3  A    between atoms: C_9  and  S_10
REMARK    4  A    between atoms: S_10  and  N_13
REMARK    5  A    between atoms: N_13  and  C_14
REMARK                            x       y       z     vdW  Elec       q    Type
REMARK                         _______ _______ _______ _____ _____    ______ ____
ROOT
ATOM      1  S   UNL     1       2.753   2.949  17.549  0.00  0.00    +0.000 S 
ATOM      2  O   UNL     1       2.136   1.664  17.283  0.00  0.00    +0.000 OA
ATOM      3  O   UNL     1       2.395   4.121  16.789  0.00  0.00    +0.000 OA
ENDROOT
BRANCH   1   9
ATOM      4  C   UNL     1       2.527   4.660  19.762  0.00  0.00    +0.000 A 
ATOM      5  C   UNL     1       2.309   4.867  21.136  0.00  0.00    +0.000 A 
ATOM      6  C   UNL     1       2.098   3.796  22.007  0.00  0.00    +0.000 A 
ATOM      7  C   UNL     1       2.113   2.494  21.522  0.00  0.00    +0.000 A 
ATOM      8  C   UNL     1       2.306   2.263  20.160  0.00  0.00    +0.000 A 
ATOM      9  C   UNL     1       2.476   3.344  19.273  0.00  0.00    +0.000 A 
BRANCH   4  12
ATOM     10  O   UNL     1       1.875   7.405  20.334  0.00  0.00    +0.000 OA
ATOM     11  C   UNL     1       2.309   7.076  19.228  0.00  0.00    +0.000 C 
ATOM     12  N   UNL     1       2.713   5.777  18.914  0.00  0.00    +0.000 N 
ATOM     13  H   UNL     1       3.443   5.712  18.199  0.00  0.00    +0.000 HD
BRANCH  11  14
ATOM     14  C   UNL     1       2.490   8.086  18.081  0.00  0.00    +0.000 C 
ATOM     15  F   UNL     1       3.563   7.794  17.292  0.00  0.00    +0.000 F 
ATOM     16  F   UNL     1       1.410   8.121  17.251  0.00  0.00    +0.000 F 
ATOM     17  F   UNL     1       2.681   9.357  18.527  0.00  0.00    +0.000 F 
ENDBRANCH  11  14
ENDBRANCH   4  12
ENDBRANCH   1   9
BRANCH   1  18
ATOM     18  N   UNL     1       4.458   2.777  17.411  0.00  0.00    +0.000 N 
ATOM     19  H   UNL     1       4.657   1.906  16.908  0.00  0.00    +0.000 HD
BRANCH  18  20
ATOM     20  C   UNL     1       5.100   3.894  16.752  0.00  0.00    +0.000 A 
ATOM     21  C   UNL     1       5.097   3.916  15.354  0.00  0.00    +0.000 A 
ATOM     22  C   UNL     1       5.912   4.812  14.677  0.00  0.00    +0.000 A 
ATOM     23  C   UNL     1       6.780   5.628  15.398  0.00  0.00    +0.000 A 
ATOM     24  C   UNL     1       6.800   5.586  16.800  0.00  0.00    +0.000 A 
ATOM     25  C   UNL     1       7.748   6.296  17.546  0.00  0.00    +0.000 A 
ATOM     26  C   UNL     1       7.743   6.217  18.933  0.00  0.00    +0.000 A 
ATOM     27  C   UNL     1       6.751   5.471  19.538  0.00  0.00    +0.000 A 
ATOM     28  N   UNL     1       5.837   4.747  18.855  0.00  0.00    +0.000 NA
ATOM     29  C   UNL     1       5.891   4.770  17.505  0.00  0.00    +0.000 A 
ENDBRANCH  18  20
ENDBRANCH   1  18
TORSDOF 5
ENDMDL
MODEL 6
REMARK VINA RESULT:      -8.1      2.867      5.102
REMARK  Name = 
REMARK  5 active torsions:
REMARK  status: ('A' for Active; 'I' for Inactive)
REMARK    1  A    between atoms: C_2  and  C_24
REMARK    2  A    between atoms: N_3  and  C_4
REMARK    3  A    between atoms: C_9  and  S_10
REMARK    4  A    between atoms: S_10  and  N_13
REMARK    5  A    between atoms: N_13  and  C_14
REMARK                            x       y       z     vdW  Elec       q    Type
REMARK                         _______ _______ _______ _____ _____    ______ ____
ROOT
ATOM      1  S   UNL     1       4.877   6.083  17.904  0.00  0.00    +0.000 S 
ATOM      2  O   UNL     1       5.211   5.273  19.059  0.00  0.00    +0.000 OA
ATOM      3  O   UNL     1       5.417   7.411  17.741  0.00  0.00    +0.000 OA
ENDROOT
BRANCH   1   9
ATOM      4  C   UNL     1       5.174   3.763  16.354  0.00  0.00    +0.000 A 
ATOM      5  C   UNL     1       5.566   3.125  15.164  0.00  0.00    +0.000 A 
ATOM      6  C   UNL     1       6.134   3.841  14.109  0.00  0.00    +0.000 A 
ATOM      7  C   UNL     1       6.335   5.211  14.228  0.00  0.00    +0.000 A 
ATOM      8  C   UNL     1       5.935   5.871  15.390  0.00  0.00    +0.000 A 
ATOM      9  C   UNL     1       5.322   5.158  16.438  0.00  0.00    +0.000 A 
BRANCH   4  12
ATOM     10  O   UNL     1       2.364   3.324  16.797  0.00  0.00    +0.000 OA
ATOM     11  C   UNL     1       3.204   2.886  17.586  0.00  0.00    +0.000 C 
ATOM     12  N   UNL     1       4.581   3.000  17.387  0.00  0.00    +0.000 N 
ATOM     13  H   UNL     1       5.142   2.254  17.806  0.00  0.00    +0.000 HD
BRANCH  11  14
ATOM     14  C   UNL     1       2.814   2.122  18.863  0.00  0.00    +0.000 C 
ATOM     15  F   UNL     1       3.191   2.776  20.000  0.00  0.00    +0.000 F 
ATOM     16  F   UNL     1       1.467   1.941  18.964  0.00  0.00    +0.000 F 
ATOM     17  F   UNL     1       3.380   0.887  18.930  0.00  0.00    +0.000 F 
ENDBRANCH  11  14
ENDBRANCH   4  12
ENDBRANCH   1   9
BRANCH   1  18
ATOM     18  N   UNL     1       3.166   6.237  17.819  0.00  0.00    +0.000 N 
ATOM     19  H   UNL     1       2.764   5.311  17.641  0.00  0.00    +0.000 HD
BRANCH  18  20
ATOM     20  C   UNL     1       2.579   6.819  19.007  0.00  0.00    +0.000 A 
ATOM     21  C   UNL     1       2.254   5.959  20.061  0.00  0.00    +0.000 A 
ATOM     22  C   UNL     1       1.461   6.416  21.104  0.00  0.00    +0.000 A 
ATOM     23  C   UNL     1       0.935   7.704  21.050  0.00  0.00    +0.000 A 
ATOM     24  C   UNL     1       1.240   8.556  19.978  0.00  0.00    +0.000 A 
ATOM     25  C   UNL     1       0.626   9.805  19.830  0.00  0.00    +0.000 A 
ATOM     26  C   UNL     1       0.947  10.614  18.748  0.00  0.00    +0.000 A 
ATOM     27  C   UNL     1       1.917  10.172  17.870  0.00  0.00    +0.000 A 
ATOM     28  N   UNL     1       2.512   8.961  17.961  0.00  0.00    +0.000 NA
ATOM     29  C   UNL     1       2.144   8.149  18.975  0.00  0.00    +0.000 A 
ENDBRANCH  18  20
ENDBRANCH   1  18
TORSDOF 5
ENDMDL
MODEL 7
REMARK VINA RESULT:      -8.0      0.841      1.137
REMARK  Name = 
REMARK  5 active torsions:
REMARK  status: ('A' for Active; 'I' for Inactive)
REMARK    1  A    between atoms: C_2  and  C_24
REMARK    2  A    between atoms: N_3  and  C_4
REMARK    3  A    between atoms: C_9  and  S_10
REMARK    4  A    between atoms: S_10  and  N_13
REMARK    5  A    between atoms: N_13  and  C_14
REMARK                            x       y       z     vdW  Elec       q    Type
REMARK                         _______ _______ _______ _____ _____    ______ ____
ROOT
ATOM      1  S   UNL     1       5.811   4.818  19.249  0.00  0.00    +0.000 S 
ATOM      2  O   UNL     1       7.063   5.135  19.910  0.00  0.00    +0.000 OA
ATOM      3  O   UNL     1       4.587   5.491  19.608  0.00  0.00    +0.000 OA
ENDROOT
BRANCH   1   9
ATOM      4  C   UNL     1       5.040   5.604  16.668  0.00  0.00    +0.000 A 
ATOM      5  C   UNL     1       5.311   5.743  15.296  0.00  0.00    +0.000 A 
ATOM      6  C   UNL     1       6.521   5.312  14.748  0.00  0.00    +0.000 A 
ATOM      7  C   UNL     1       7.479   4.719  15.561  0.00  0.00    +0.000 A 
ATOM      8  C   UNL     1       7.243   4.589  16.929  0.00  0.00    +0.000 A 
ATOM      9  C   UNL     1       6.041   5.063  17.492  0.00  0.00    +0.000 A 
BRANCH   4  12
ATOM     10  O   UNL     1       4.362   8.322  17.332  0.00  0.00    +0.000 OA
ATOM     11  C   UNL     1       3.571   7.402  17.550  0.00  0.00    +0.000 C 
ATOM     12  N   UNL     1       3.809   6.077  17.183  0.00  0.00    +0.000 N 
ATOM     13  H   UNL     1       2.970   5.524  16.986  0.00  0.00    +0.000 HD
BRANCH  11  14
ATOM     14  C   UNL     1       2.205   7.633  18.220  0.00  0.00    +0.000 C 
ATOM     15  F   UNL     1       1.488   8.624  17.617  0.00  0.00    +0.000 F 
ATOM     16  F   UNL     1       1.417   6.522  18.180  0.00  0.00    +0.000 F 
ATOM     17  F   UNL     1       2.315   7.987  19.529  0.00  0.00    +0.000 F 
ENDBRANCH  11  14
ENDBRANCH   4  12
ENDBRANCH   1   9
BRANCH   1  18
ATOM     18  N   UNL     1       5.513   3.133  19.420  0.00  0.00    +0.000 N 
ATOM     19  H   UNL     1       5.646   2.877  20.404  0.00  0.00    +0.000 HD
BRANCH  18  20
ATOM     20  C   UNL     1       4.198   2.730  18.969  0.00  0.00    +0.000 A 
ATOM     21  C   UNL     1       3.977   2.654  17.591  0.00  0.00    +0.000 A 
ATOM     22  C   UNL     1       2.682   2.529  17.106  0.00  0.00    +0.000 A 
ATOM     23  C   UNL     1       1.612   2.559  17.997  0.00  0.00    +0.000 A 
ATOM     24  C   UNL     1       1.835   2.662  19.378  0.00  0.00    +0.000 A 
ATOM     25  C   UNL     1       0.782   2.824  20.286  0.00  0.00    +0.000 A 
ATOM     26  C   UNL     1       1.046   2.936  21.645  0.00  0.00    +0.000 A 
ATOM     27  C   UNL     1       2.357   2.828  22.064  0.00  0.00    +0.000 A 
ATOM     28  N   UNL     1       3.405   2.701  21.219  0.00  0.00    +0.000 NA
ATOM     29  C   UNL     1       3.148   2.664  19.893  0.00  0.00    +0.000 A 
ENDBRANCH  18  20
ENDBRANCH   1  18
TORSDOF 5
ENDMDL
MODEL 8
REMARK VINA RESULT:      -8.0      2.970      4.062
REMARK  Name = 
REMARK  5 active torsions:
REMARK  status: ('A' for Active; 'I' for Inactive)
REMARK    1  A    between atoms: C_2  and  C_24
REMARK    2  A    between atoms: N_3  and  C_4
REMARK    3  A    between atoms: C_9  and  S_10
REMARK    4  A    between atoms: S_10  and  N_13
REMARK    5  A    between atoms: N_13  and  C_14
REMARK                            x       y       z     vdW  Elec       q    Type
REMARK                         _______ _______ _______ _____ _____    ______ ____
ROOT
ATOM      1  S   UNL     1       4.476   3.543  17.129  0.00  0.00    +0.000 S 
ATOM      2  O   UNL     1       4.243   2.113  17.074  0.00  0.00    +0.000 OA
ATOM      3  O   UNL     1       5.069   4.159  18.291  0.00  0.00    +0.000 OA
ENDROOT
BRANCH   1   9
ATOM      4  C   UNL     1       6.532   4.932  15.820  0.00  0.00    +0.000 A 
ATOM      5  C   UNL     1       7.270   5.223  14.659  0.00  0.00    +0.000 A 
ATOM      6  C   UNL     1       6.958   4.632  13.433  0.00  0.00    +0.000 A 
ATOM      7  C   UNL     1       5.891   3.746  13.341  0.00  0.00    +0.000 A 
ATOM      8  C   UNL     1       5.157   3.425  14.482  0.00  0.00    +0.000 A 
ATOM      9  C   UNL     1       5.497   3.986  15.728  0.00  0.00    +0.000 A 
BRANCH   4  12
ATOM     10  O   UNL     1       8.498   3.994  17.702  0.00  0.00    +0.000 OA
ATOM     11  C   UNL     1       7.813   4.990  17.946  0.00  0.00    +0.000 C 
ATOM     12  N   UNL     1       6.900   5.538  17.044  0.00  0.00    +0.000 N 
ATOM     13  H   UNL     1       6.751   6.546  17.137  0.00  0.00    +0.000 HD
BRANCH  11  14
ATOM     14  C   UNL     1       7.931   5.764  19.271  0.00  0.00    +0.000 C 
ATOM     15  F   UNL     1       8.301   7.064  19.086  0.00  0.00    +0.000 F 
ATOM     16  F   UNL     1       6.751   5.803  19.952  0.00  0.00    +0.000 F 
ATOM     17  F   UNL     1       8.852   5.224  20.114  0.00  0.00    +0.000 F 
ENDBRANCH  11  14
ENDBRANCH   4  12
ENDBRANCH   1   9
BRANCH   1  18
ATOM     18  N   UNL     1       2.983   4.352  16.854  0.00  0.00    +0.000 N 
ATOM     19  H   UNL     1       2.309   3.674  16.483  0.00  0.00    +0.000 HD
BRANCH  18  20
ATOM     20  C   UNL     1       2.449   4.998  18.033  0.00  0.00    +0.000 A 
ATOM     21  C   UNL     1       2.644   6.376  18.166  0.00  0.00    +0.000 A 
ATOM     22  C   UNL     1       2.387   6.994  19.382  0.00  0.00    +0.000 A 
ATOM     23  C   UNL     1       2.011   6.221  20.477  0.00  0.00    +0.000 A 
ATOM     24  C   UNL     1       1.842   4.834  20.348  0.00  0.00    +0.000 A 
ATOM     25  C   UNL     1       1.592   4.015  21.455  0.00  0.00    +0.000 A 
ATOM     26  C   UNL     1       1.443   2.644  21.287  0.00  0.00    +0.000 A 
ATOM     27  C   UNL     1       1.495   2.138  20.003  0.00  0.00    +0.000 A 
ATOM     28  N   UNL     1       1.764   2.889  18.912  0.00  0.00    +0.000 NA
ATOM     29  C   UNL     1       1.978   4.211  19.090  0.00  0.00    +0.000 A 
ENDBRANCH  18  20
ENDBRANCH   1  18
TORSDOF 5
ENDMDL
MODEL 9
REMARK VINA RESULT:      -7.9      3.500      5.757
REMARK  Name = 
REMARK  5 active torsions:
REMARK  status: ('A' for Active; 'I' for Inactive)
REMARK    1  A    between atoms: C_2  and  C_24
REMARK    2  A    between atoms: N_3  and  C_4
REMARK    3  A    between atoms: C_9  and  S_10
REMARK    4  A    between atoms: S_10  and  N_13
REMARK    5  A    between atoms: N_13  and  C_14
REMARK                            x       y       z     vdW  Elec       q    Type
REMARK                         _______ _______ _______ _____ _____    ______ ____
ROOT
ATOM      1  S   UNL     1       2.894   6.548  18.575  0.00  0.00    +0.000 S 
ATOM      2  O   UNL     1       1.840   6.138  17.667  0.00  0.00    +0.000 OA
ATOM      3  O   UNL     1       2.981   6.009  19.910  0.00  0.00    +0.000 OA
ENDROOT
BRANCH   1   9
ATOM      4  C   UNL     1       4.864   4.925  17.410  0.00  0.00    +0.000 A 
ATOM      5  C   UNL     1       6.122   4.767  16.803  0.00  0.00    +0.000 A 
ATOM      6  C   UNL     1       6.977   5.854  16.612  0.00  0.00    +0.000 A 
ATOM      7  C   UNL     1       6.596   7.121  17.039  0.00  0.00    +0.000 A 
ATOM      8  C   UNL     1       5.345   7.307  17.625  0.00  0.00    +0.000 A 
ATOM      9  C   UNL     1       4.462   6.220  17.779  0.00  0.00    +0.000 A 
BRANCH   4  12
ATOM     10  O   UNL     1       4.790   3.095  19.631  0.00  0.00    +0.000 OA
ATOM     11  C   UNL     1       4.087   2.909  18.635  0.00  0.00    +0.000 C 
ATOM     12  N   UNL     1       4.021   3.798  17.562  0.00  0.00    +0.000 N 
ATOM     13  H   UNL     1       3.131   3.801  17.056  0.00  0.00    +0.000 HD
BRANCH  11  14
ATOM     14  C   UNL     1       3.166   1.684  18.495  0.00  0.00    +0.000 C 
ATOM     15  F   UNL     1       2.237   1.611  19.492  0.00  0.00    +0.000 F 
ATOM     16  F   UNL     1       2.465   1.698  17.327  0.00  0.00    +0.000 F 
ATOM     17  F   UNL     1       3.850   0.508  18.527  0.00  0.00    +0.000 F 
ENDBRANCH  11  14
ENDBRANCH   4  12
ENDBRANCH   1   9
BRANCH   1  18
ATOM     18  N   UNL     1       2.838   8.259  18.741  0.00  0.00    +0.000 N 
ATOM     19  H   UNL     1       3.313   8.679  17.935  0.00  0.00    +0.000 HD
BRANCH  18  20
ATOM     20  C   UNL     1       1.496   8.785  18.864  0.00  0.00    +0.000 A 
ATOM     21  C   UNL     1       0.860   9.226  17.699  0.00  0.00    +0.000 A 
ATOM     22  C   UNL     1      -0.309   9.969  17.791  0.00  0.00    +0.000 A 
ATOM     23  C   UNL     1      -0.791  10.332  19.045  0.00  0.00    +0.000 A 
ATOM     24  C   UNL     1      -0.137   9.911  20.212  0.00  0.00    +0.000 A 
ATOM     25  C   UNL     1      -0.522  10.365  21.479  0.00  0.00    +0.000 A 
ATOM     26  C   UNL     1       0.161   9.934  22.610  0.00  0.00    +0.000 A 
ATOM     27  C   UNL     1       1.178   9.015  22.444  0.00  0.00    +0.000 A 
ATOM     28  N   UNL     1       1.600   8.575  21.237  0.00  0.00    +0.000 NA
ATOM     29  C   UNL     1       0.979   9.052  20.136  0.00  0.00    +0.000 A 
ENDBRANCH  18  20
ENDBRANCH   1  18
TORSDOF 5
ENDMDL
