MODEL 1
REMARK VINA RESULT:      -7.3      0.000      0.000
REMARK  Name = 
REMARK  10 active torsions:
REMARK  status: ('A' for Active; 'I' for Inactive)
REMARK    1  A    between atoms: C_1  and  O_2
REMARK    2  A    between atoms: O_2  and  C_3
REMARK    3  A    between atoms: C_4  and  C_5
REMARK    4  A    between atoms: N_9  and  C_10
REMARK    5  A    between atoms: C_13  and  C_14
REMARK    6  A    between atoms: N_20  and  C_21
REMARK    7  A    between atoms: C_21  and  C_22
REMARK    8  A    between atoms: C_27  and  O_28
REMARK    9  A    between atoms: C_32  and  C_33
REMARK   10  A    between atoms: C_32  and  C_34
REMARK                            x       y       z     vdW  Elec       q    Type
REMARK                         _______ _______ _______ _____ _____    ______ ____
ROOT
ATOM      1  C   UNL     1      -0.827  12.614  20.614  0.00  0.00    +0.000 C 
ATOM      2  C   UNL     1      -0.633  11.652  21.763  0.00  0.00    +0.000 C 
ATOM      3  C   UNL     1       0.239  10.486  21.354  0.00  0.00    +0.000 C 
ATOM      4  O   UNL     1       0.863   9.917  22.251  0.00  0.00    +0.000 OA
ATOM      5  N   UNL     1       0.245  10.148  19.995  0.00  0.00    +0.000 N 
ATOM      6  C   UNL     1      -0.734  10.643  19.111  0.00  0.00    +0.000 C 
ATOM      7  O   UNL     1      -1.086  10.054  18.087  0.00  0.00    +0.000 OA
ATOM      8  N   UNL     1      -1.343  11.828  19.493  0.00  0.00    +0.000 N 
ENDROOT
BRANCH   1  10
ATOM      9  C   UNL     1       1.142  14.203  21.361  0.00  0.00    +0.000 C 
ATOM     10  C   UNL     1       0.452  13.405  20.234  0.00  0.00    +0.000 C 
ATOM     11  O   UNL     1       0.118  14.383  19.226  0.00  0.00    +0.000 OA
ATOM     12  C   UNL     1       1.120  15.392  19.263  0.00  0.00    +0.000 C 
ATOM     13  O   UNL     1       2.083  15.191  18.232  0.00  0.00    +0.000 OA
ATOM     14  C   UNL     1       3.356  15.256  18.868  0.00  0.00    +0.000 C 
ATOM     15  C   UNL     1       4.322  14.293  18.198  0.00  0.00    +0.000 C 
ATOM     16  C   UNL     1       3.878  16.693  18.784  0.00  0.00    +0.000 C 
ATOM     17  O   UNL     1       3.201  14.874  20.235  0.00  0.00    +0.000 OA
ATOM     18  C   UNL     1       1.874  15.280  20.575  0.00  0.00    +0.000 C 
BRANCH   9  20
ATOM     19  C   UNL     1       0.607  16.050  22.773  0.00  0.00    +0.000 C 
ATOM     20  O   UNL     1       0.185  14.788  22.255  0.00  0.00    +0.000 OA
ENDBRANCH   9  20
ENDBRANCH   1  10
BRANCH   5  21
ATOM     21  C   UNL     1       1.194   9.172  19.476  0.00  0.00    +0.000 A 
ATOM     22  C   UNL     1       1.829   9.297  18.230  0.00  0.00    +0.000 A 
ATOM     23  C   UNL     1       2.677   8.294  17.728  0.00  0.00    +0.000 A 
ATOM     24  C   UNL     1       2.917   7.134  18.468  0.00  0.00    +0.000 A 
ATOM     25  C   UNL     1       2.314   6.993  19.712  0.00  0.00    +0.000 A 
ATOM     26  C   UNL     1       1.467   7.995  20.206  0.00  0.00    +0.000 A 
BRANCH  24  27
ATOM     27  C   UNL     1       3.762   6.100  17.947  0.00  0.00    +0.000 C 
ATOM     28  N   UNL     1       4.451   5.272  17.522  0.00  0.00    +0.000 NA
ENDBRANCH  24  27
ENDBRANCH   5  21
BRANCH   8  29
ATOM     29  C   UNL     1      -2.362  12.429  18.628  0.00  0.00    +0.000 C 
BRANCH  29  30
ATOM     30  C   UNL     1      -3.763  12.026  19.028  0.00  0.00    +0.000 A 
ATOM     31  C   UNL     1      -4.362  12.607  20.160  0.00  0.00    +0.000 A 
ATOM     32  C   UNL     1      -5.675  12.294  20.518  0.00  0.00    +0.000 A 
ATOM     33  C   UNL     1      -6.409  11.396  19.750  0.00  0.00    +0.000 A 
ATOM     34  C   UNL     1      -5.826  10.794  18.636  0.00  0.00    +0.000 A 
ATOM     35  C   UNL     1      -4.511  11.107  18.285  0.00  0.00    +0.000 A 
BRANCH  35  36
ATOM     36  O   UNL     1      -3.937  10.501  17.203  0.00  0.00    +0.000 OA
ATOM     37  H   UNL     1      -3.261   9.880  17.518  0.00  0.00    +0.000 HD
ENDBRANCH  35  36
ENDBRANCH  29  30
ENDBRANCH   8  29
TORSDOF 7
ENDMDL
MODEL 2
REMARK VINA RESULT:      -7.2      1.136      1.790
REMARK  Name = 
REMARK  10 active torsions:
REMARK  status: ('A' for Active; 'I' for Inactive)
REMARK    1  A    between atoms: C_1  and  O_2
REMARK    2  A    between atoms: O_2  and  C_3
REMARK    3  A    between atoms: C_4  and  C_5
REMARK    4  A    between atoms: N_9  and  C_10
REMARK    5  A    between atoms: C_13  and  C_14
REMARK    6  A    between atoms: N_20  and  C_21
REMARK    7  A    between atoms: C_21  and  C_22
REMARK    8  A    between atoms: C_27  and  O_28
REMARK    9  A    between atoms: C_32  and  C_33
REMARK   10  A    between atoms: C_32  and  C_34
REMARK                            x       y       z     vdW  Elec       q    Type
REMARK                         _______ _______ _______ _____ _____    ______ ____
ROOT
ATOM      1  C   UNL     1      -0.902  12.622  21.268  0.00  0.00    +0.000 C 
ATOM      2  C   UNL     1      -0.482  11.670  22.364  0.00  0.00    +0.000 C 
ATOM      3  C   UNL     1       0.352  10.536  21.808  0.00  0.00    +0.000 C 
ATOM      4  O   UNL     1       1.139   9.992  22.585  0.00  0.00    +0.000 OA
ATOM      5  N   UNL     1       0.142  10.197  20.466  0.00  0.00    +0.000 N 
ATOM      6  C   UNL     1      -0.990  10.653  19.762  0.00  0.00    +0.000 C 
ATOM      7  O   UNL     1      -1.487  10.050  18.809  0.00  0.00    +0.000 OA
ATOM      8  N   UNL     1      -1.570  11.815  20.246  0.00  0.00    +0.000 N 
ENDROOT
BRANCH   1  10
ATOM      9  C   UNL     1       0.718  14.693  21.494  0.00  0.00    +0.000 C 
ATOM     10  C   UNL     1       0.265  13.460  20.683  0.00  0.00    +0.000 C 
ATOM     11  O   UNL     1      -0.130  13.977  19.394  0.00  0.00    +0.000 OA
ATOM     12  C   UNL     1       0.694  15.104  19.118  0.00  0.00    +0.000 C 
ATOM     13  O   UNL     1       1.763  14.752  18.246  0.00  0.00    +0.000 OA
ATOM     14  C   UNL     1       2.949  15.248  18.860  0.00  0.00    +0.000 C 
ATOM     15  C   UNL     1       4.111  14.307  18.585  0.00  0.00    +0.000 C 
ATOM     16  C   UNL     1       3.242  16.647  18.311  0.00  0.00    +0.000 C 
ATOM     17  O   UNL     1       2.736  15.314  20.271  0.00  0.00    +0.000 OA
ATOM     18  C   UNL     1       1.337  15.565  20.413  0.00  0.00    +0.000 C 
BRANCH   9  20
ATOM     19  C   UNL     1      -0.149  16.742  22.355  0.00  0.00    +0.000 C 
ATOM     20  O   UNL     1      -0.395  15.357  22.108  0.00  0.00    +0.000 OA
ENDBRANCH   9  20
ENDBRANCH   1  10
BRANCH   5  21
ATOM     21  C   UNL     1       1.025   9.256  19.790  0.00  0.00    +0.000 A 
ATOM     22  C   UNL     1       1.474   9.429  18.471  0.00  0.00    +0.000 A 
ATOM     23  C   UNL     1       2.262   8.458  17.825  0.00  0.00    +0.000 A 
ATOM     24  C   UNL     1       2.625   7.285  18.490  0.00  0.00    +0.000 A 
ATOM     25  C   UNL     1       2.208   7.098  19.802  0.00  0.00    +0.000 A 
ATOM     26  C   UNL     1       1.421   8.067  20.439  0.00  0.00    +0.000 A 
BRANCH  24  27
ATOM     27  C   UNL     1       3.407   6.284  17.825  0.00  0.00    +0.000 C 
ATOM     28  N   UNL     1       4.032   5.475  17.280  0.00  0.00    +0.000 NA
ENDBRANCH  24  27
ENDBRANCH   5  21
BRANCH   8  29
ATOM     29  C   UNL     1      -2.741  12.377  19.569  0.00  0.00    +0.000 C 
BRANCH  29  30
ATOM     30  C   UNL     1      -3.672  13.085  20.527  0.00  0.00    +0.000 A 
ATOM     31  C   UNL     1      -4.645  12.350  21.228  0.00  0.00    +0.000 A 
ATOM     32  C   UNL     1      -5.480  12.970  22.160  0.00  0.00    +0.000 A 
ATOM     33  C   UNL     1      -5.355  14.334  22.406  0.00  0.00    +0.000 A 
ATOM     34  C   UNL     1      -4.409  15.082  21.706  0.00  0.00    +0.000 A 
ATOM     35  C   UNL     1      -3.581  14.459  20.771  0.00  0.00    +0.000 A 
BRANCH  35  36
ATOM     36  O   UNL     1      -2.668  15.200  20.075  0.00  0.00    +0.000 OA
ATOM     37  H   UNL     1      -1.786  15.033  20.446  0.00  0.00    +0.000 HD
ENDBRANCH  35  36
ENDBRANCH  29  30
ENDBRANCH   8  29
TORSDOF 7
ENDMDL
MODEL 3
REMARK VINA RESULT:      -7.1      0.895      1.060
REMARK  Name = 
REMARK  10 active torsions:
REMARK  status: ('A' for Active; 'I' for Inactive)
REMARK    1  A    between atoms: C_1  and  O_2
REMARK    2  A    between atoms: O_2  and  C_3
REMARK    3  A    between atoms: C_4  and  C_5
REMARK    4  A    between atoms: N_9  and  C_10
REMARK    5  A    between atoms: C_13  and  C_14
REMARK    6  A    between atoms: N_20  and  C_21
REMARK    7  A    between atoms: C_21  and  C_22
REMARK    8  A    between atoms: C_27  and  O_28
REMARK    9  A    between atoms: C_32  and  C_33
REMARK   10  A    between atoms: C_32  and  C_34
REMARK                            x       y       z     vdW  Elec       q    Type
REMARK                         _______ _______ _______ _____ _____    ______ ____
ROOT
ATOM      1  C   UNL     1      -1.060  12.726  20.849  0.00  0.00    +0.000 C 
ATOM      2  C   UNL     1      -0.822  11.743  21.972  0.00  0.00    +0.000 C 
ATOM      3  C   UNL     1       0.069  10.606  21.518  0.00  0.00    +0.000 C 
ATOM      4  O   UNL     1       0.723  10.031  22.389  0.00  0.00    +0.000 OA
ATOM      5  N   UNL     1       0.055  10.300  20.152  0.00  0.00    +0.000 N 
ATOM      6  C   UNL     1      -0.953  10.792  19.300  0.00  0.00    +0.000 C 
ATOM      7  O   UNL     1      -1.313  10.219  18.269  0.00  0.00    +0.000 OA
ATOM      8  N   UNL     1      -1.581  11.954  19.721  0.00  0.00    +0.000 N 
ENDROOT
BRANCH   1  10
ATOM      9  C   UNL     1       0.059  15.092  20.516  0.00  0.00    +0.000 C 
ATOM     10  C   UNL     1       0.193  13.555  20.463  0.00  0.00    +0.000 C 
ATOM     11  O   UNL     1       0.554  13.251  19.099  0.00  0.00    +0.000 OA
ATOM     12  C   UNL     1       1.336  14.337  18.614  0.00  0.00    +0.000 C 
ATOM     13  O   UNL     1       2.725  14.028  18.669  0.00  0.00    +0.000 OA
ATOM     14  C   UNL     1       3.345  15.131  19.323  0.00  0.00    +0.000 C 
ATOM     15  C   UNL     1       4.510  14.646  20.172  0.00  0.00    +0.000 C 
ATOM     16  C   UNL     1       3.825  16.128  18.265  0.00  0.00    +0.000 C 
ATOM     17  O   UNL     1       2.384  15.753  20.176  0.00  0.00    +0.000 OA
ATOM     18  C   UNL     1       1.130  15.530  19.529  0.00  0.00    +0.000 C 
BRANCH   9  20
ATOM     19  C   UNL     1      -1.222  16.818  19.481  0.00  0.00    +0.000 C 
ATOM     20  O   UNL     1      -1.239  15.523  20.083  0.00  0.00    +0.000 OA
ENDBRANCH   9  20
ENDBRANCH   1  10
BRANCH   5  21
ATOM     21  C   UNL     1       1.014   9.358  19.591  0.00  0.00    +0.000 A 
ATOM     22  C   UNL     1       1.600   9.513  18.325  0.00  0.00    +0.000 A 
ATOM     23  C   UNL     1       2.462   8.541  17.785  0.00  0.00    +0.000 A 
ATOM     24  C   UNL     1       2.763   7.383  18.506  0.00  0.00    +0.000 A 
ATOM     25  C   UNL     1       2.210   7.214  19.770  0.00  0.00    +0.000 A 
ATOM     26  C   UNL     1       1.350   8.185  20.301  0.00  0.00    +0.000 A 
BRANCH  24  27
ATOM     27  C   UNL     1       3.622   6.381  17.947  0.00  0.00    +0.000 C 
ATOM     28  N   UNL     1       4.314   5.574  17.486  0.00  0.00    +0.000 NA
ENDBRANCH  24  27
ENDBRANCH   5  21
BRANCH   8  29
ATOM     29  C   UNL     1      -2.631  12.551  18.891  0.00  0.00    +0.000 C 
BRANCH  29  30
ATOM     30  C   UNL     1      -4.012  12.089  19.295  0.00  0.00    +0.000 A 
ATOM     31  C   UNL     1      -4.603  12.592  20.467  0.00  0.00    +0.000 A 
ATOM     32  C   UNL     1      -5.900  12.225  20.833  0.00  0.00    +0.000 A 
ATOM     33  C   UNL     1      -6.626  11.349  20.032  0.00  0.00    +0.000 A 
ATOM     34  C   UNL     1      -6.050  10.825  18.875  0.00  0.00    +0.000 A 
ATOM     35  C   UNL     1      -4.751  11.191  18.518  0.00  0.00    +0.000 A 
BRANCH  35  36
ATOM     36  O   UNL     1      -4.183  10.660  17.393  0.00  0.00    +0.000 OA
ATOM     37  H   UNL     1      -3.282  11.010  17.307  0.00  0.00    +0.000 HD
ENDBRANCH  35  36
ENDBRANCH  29  30
ENDBRANCH   8  29
TORSDOF 7
ENDMDL
MODEL 4
REMARK VINA RESULT:      -6.9      1.305      1.651
REMARK  Name = 
REMARK  10 active torsions:
REMARK  status: ('A' for Active; 'I' for Inactive)
REMARK    1  A    between atoms: C_1  and  O_2
REMARK    2  A    between atoms: O_2  and  C_3
REMARK    3  A    between atoms: C_4  and  C_5
REMARK    4  A    between atoms: N_9  and  C_10
REMARK    5  A    between atoms: C_13  and  C_14
REMARK    6  A    between atoms: N_20  and  C_21
REMARK    7  A    between atoms: C_21  and  C_22
REMARK    8  A    between atoms: C_27  and  O_28
REMARK    9  A    between atoms: C_32  and  C_33
REMARK   10  A    between atoms: C_32  and  C_34
REMARK                            x       y       z     vdW  Elec       q    Type
REMARK                         _______ _______ _______ _____ _____    ______ ____
ROOT
ATOM      1  C   UNL     1      -1.714  13.071  21.095  0.00  0.00    +0.000 C 
ATOM      2  C   UNL     1      -1.334  12.113  22.200  0.00  0.00    +0.000 C 
ATOM      3  C   UNL     1      -0.428  11.018  21.681  0.00  0.00    +0.000 C 
ATOM      4  O   UNL     1       0.325  10.485  22.498  0.00  0.00    +0.000 OA
ATOM      5  N   UNL     1      -0.540  10.696  20.322  0.00  0.00    +0.000 N 
ATOM      6  C   UNL     1      -1.639  11.128  19.554  0.00  0.00    +0.000 C 
ATOM      7  O   UNL     1      -2.054  10.527  18.561  0.00  0.00    +0.000 OA
ATOM      8  N   UNL     1      -2.288  12.261  20.018  0.00  0.00    +0.000 N 
ENDROOT
BRANCH   1  10
ATOM      9  C   UNL     1      -0.660  15.476  20.846  0.00  0.00    +0.000 C 
ATOM     10  C   UNL     1      -0.542  13.957  20.599  0.00  0.00    +0.000 C 
ATOM     11  O   UNL     1      -0.416  13.813  19.168  0.00  0.00    +0.000 OA
ATOM     12  C   UNL     1       0.276  14.958  18.685  0.00  0.00    +0.000 C 
ATOM     13  O   UNL     1       1.654  14.666  18.471  0.00  0.00    +0.000 OA
ATOM     14  C   UNL     1       2.379  15.700  19.132  0.00  0.00    +0.000 C 
ATOM     15  C   UNL     1       3.668  15.141  19.714  0.00  0.00    +0.000 C 
ATOM     16  C   UNL     1       2.677  16.815  18.127  0.00  0.00    +0.000 C 
ATOM     17  O   UNL     1       1.577  16.207  20.198  0.00  0.00    +0.000 OA
ATOM     18  C   UNL     1       0.231  16.039  19.749  0.00  0.00    +0.000 C 
BRANCH   9  20
ATOM     19  C   UNL     1      -2.461  16.726  21.787  0.00  0.00    +0.000 C 
ATOM     20  O   UNL     1      -2.010  15.932  20.688  0.00  0.00    +0.000 OA
ENDBRANCH   9  20
ENDBRANCH   1  10
BRANCH   5  21
ATOM     21  C   UNL     1       0.416   9.798  19.689  0.00  0.00    +0.000 A 
ATOM     22  C   UNL     1       0.917   8.641  20.308  0.00  0.00    +0.000 A 
ATOM     23  C   UNL     1       1.901   7.843  19.697  0.00  0.00    +0.000 A 
ATOM     24  C   UNL     1       2.407   8.181  18.440  0.00  0.00    +0.000 A 
ATOM     25  C   UNL     1       1.914   9.311  17.798  0.00  0.00    +0.000 A 
ATOM     26  C   UNL     1       0.937  10.105  18.413  0.00  0.00    +0.000 A 
BRANCH  24  27
ATOM     27  C   UNL     1       3.426   7.381  17.826  0.00  0.00    +0.000 C 
ATOM     28  N   UNL     1       4.245   6.727  17.333  0.00  0.00    +0.000 NA
ENDBRANCH  24  27
ENDBRANCH   5  21
BRANCH   8  29
ATOM     29  C   UNL     1      -3.432  12.797  19.276  0.00  0.00    +0.000 C 
BRANCH  29  30
ATOM     30  C   UNL     1      -4.746  12.232  19.764  0.00  0.00    +0.000 A 
ATOM     31  C   UNL     1      -5.278  12.660  20.993  0.00  0.00    +0.000 A 
ATOM     32  C   UNL     1      -6.517  12.197  21.440  0.00  0.00    +0.000 A 
ATOM     33  C   UNL     1      -7.244  11.299  20.665  0.00  0.00    +0.000 A 
ATOM     34  C   UNL     1      -6.724  10.848  19.452  0.00  0.00    +0.000 A 
ATOM     35  C   UNL     1      -5.482  11.310  19.013  0.00  0.00    +0.000 A 
BRANCH  35  36
ATOM     36  O   UNL     1      -4.968  10.851  17.832  0.00  0.00    +0.000 OA
ATOM     37  H   UNL     1      -4.740   9.913  17.938  0.00  0.00    +0.000 HD
ENDBRANCH  35  36
ENDBRANCH  29  30
ENDBRANCH   8  29
TORSDOF 7
ENDMDL
MODEL 5
REMARK VINA RESULT:      -6.8      1.386      1.574
REMARK  Name = 
REMARK  10 active torsions:
REMARK  status: ('A' for Active; 'I' for Inactive)
REMARK    1  A    between atoms: C_1  and  O_2
REMARK    2  A    between atoms: O_2  and  C_3
REMARK    3  A    between atoms: C_4  and  C_5
REMARK    4  A    between atoms: N_9  and  C_10
REMARK    5  A    between atoms: C_13  and  C_14
REMARK    6  A    between atoms: N_20  and  C_21
REMARK    7  A    between atoms: C_21  and  C_22
REMARK    8  A    between atoms: C_27  and  O_28
REMARK    9  A    between atoms: C_32  and  C_33
REMARK   10  A    between atoms: C_32  and  C_34
REMARK                            x       y       z     vdW  Elec       q    Type
REMARK                         _______ _______ _______ _____ _____    ______ ____
ROOT
ATOM      1  C   UNL     1      -1.324  12.963  22.111  0.00  0.00    +0.000 C 
ATOM      2  C   UNL     1      -1.188  11.775  23.036  0.00  0.00    +0.000 C 
ATOM      3  C   UNL     1      -0.357  10.683  22.399  0.00  0.00    +0.000 C 
ATOM      4  O   UNL     1       0.228   9.913  23.162  0.00  0.00    +0.000 OA
ATOM      5  N   UNL     1      -0.343  10.635  20.999  0.00  0.00    +0.000 N 
ATOM      6  C   UNL     1      -1.286  11.346  20.231  0.00  0.00    +0.000 C 
ATOM      7  O   UNL     1      -1.645  10.999  19.104  0.00  0.00    +0.000 OA
ATOM      8  N   UNL     1      -1.853  12.450  20.847  0.00  0.00    +0.000 N 
ENDROOT
BRANCH   1  10
ATOM      9  C   UNL     1       0.070  15.155  22.570  0.00  0.00    +0.000 C 
ATOM     10  C   UNL     1      -0.008  13.759  21.915  0.00  0.00    +0.000 C 
ATOM     11  O   UNL     1       0.196  13.990  20.505  0.00  0.00    +0.000 OA
ATOM     12  C   UNL     1       1.073  15.103  20.378  0.00  0.00    +0.000 C 
ATOM     13  O   UNL     1       2.409  14.673  20.131  0.00  0.00    +0.000 OA
ATOM     14  C   UNL     1       3.223  15.366  21.073  0.00  0.00    +0.000 C 
ATOM     15  C   UNL     1       4.377  14.480  21.513  0.00  0.00    +0.000 C 
ATOM     16  C   UNL     1       3.742  16.652  20.426  0.00  0.00    +0.000 C 
ATOM     17  O   UNL     1       2.426  15.683  22.215  0.00  0.00    +0.000 OA
ATOM     18  C   UNL     1       1.105  15.850  21.698  0.00  0.00    +0.000 C 
BRANCH   9  20
ATOM     19  C   UNL     1      -1.056  17.258  22.575  0.00  0.00    +0.000 C 
ATOM     20  O   UNL     1      -1.189  15.838  22.507  0.00  0.00    +0.000 OA
ENDBRANCH   9  20
ENDBRANCH   1  10
BRANCH   5  21
ATOM     21  C   UNL     1       0.574   9.749  20.294  0.00  0.00    +0.000 A 
ATOM     22  C   UNL     1       1.063  10.009  19.005  0.00  0.00    +0.000 A 
ATOM     23  C   UNL     1       1.883   9.090  18.325  0.00  0.00    +0.000 A 
ATOM     24  C   UNL     1       2.240   7.881  18.927  0.00  0.00    +0.000 A 
ATOM     25  C   UNL     1       1.784   7.607  20.210  0.00  0.00    +0.000 A 
ATOM     26  C   UNL     1       0.964   8.526  20.881  0.00  0.00    +0.000 A 
BRANCH  24  27
ATOM     27  C   UNL     1       3.056   6.933  18.226  0.00  0.00    +0.000 C 
ATOM     28  N   UNL     1       3.712   6.159  17.666  0.00  0.00    +0.000 NA
ENDBRANCH  24  27
ENDBRANCH   5  21
BRANCH   8  29
ATOM     29  C   UNL     1      -2.832  13.262  20.120  0.00  0.00    +0.000 C 
BRANCH  29  30
ATOM     30  C   UNL     1      -4.234  12.707  20.234  0.00  0.00    +0.000 A 
ATOM     31  C   UNL     1      -4.915  12.773  21.462  0.00  0.00    +0.000 A 
ATOM     32  C   UNL     1      -6.230  12.320  21.581  0.00  0.00    +0.000 A 
ATOM     33  C   UNL     1      -6.885  11.793  20.472  0.00  0.00    +0.000 A 
ATOM     34  C   UNL     1      -6.220  11.701  19.250  0.00  0.00    +0.000 A 
ATOM     35  C   UNL     1      -4.903  12.151  19.139  0.00  0.00    +0.000 A 
BRANCH  35  36
ATOM     36  O   UNL     1      -4.249  12.042  17.944  0.00  0.00    +0.000 OA
ATOM     37  H   UNL     1      -4.836  12.362  17.240  0.00  0.00    +0.000 HD
ENDBRANCH  35  36
ENDBRANCH  29  30
ENDBRANCH   8  29
TORSDOF 7
ENDMDL
MODEL 6
REMARK VINA RESULT:      -6.8      0.753      1.116
REMARK  Name = 
REMARK  10 active torsions:
REMARK  status: ('A' for Active; 'I' for Inactive)
REMARK    1  A    between atoms: C_1  and  O_2
REMARK    2  A    between atoms: O_2  and  C_3
REMARK    3  A    between atoms: C_4  and  C_5
REMARK    4  A    between atoms: N_9  and  C_10
REMARK    5  A    between atoms: C_13  and  C_14
REMARK    6  A    between atoms: N_20  and  C_21
REMARK    7  A    between atoms: C_21  and  C_22
REMARK    8  A    between atoms: C_27  and  O_28
REMARK    9  A    between atoms: C_32  and  C_33
REMARK   10  A    between atoms: C_32  and  C_34
REMARK                            x       y       z     vdW  Elec       q    Type
REMARK                         _______ _______ _______ _____ _____    ______ ____
ROOT
ATOM      1  C   UNL     1      -0.980  12.476  20.450  0.00  0.00    +0.000 C 
ATOM      2  C   UNL     1      -0.822  11.509  21.601  0.00  0.00    +0.000 C 
ATOM      3  C   UNL     1       0.101  10.369  21.230  0.00  0.00    +0.000 C 
ATOM      4  O   UNL     1       0.691   9.808  22.154  0.00  0.00    +0.000 OA
ATOM      5  N   UNL     1       0.186  10.043  19.870  0.00  0.00    +0.000 N 
ATOM      6  C   UNL     1      -0.758  10.520  18.941  0.00  0.00    +0.000 C 
ATOM      7  O   UNL     1      -1.042   9.932  17.895  0.00  0.00    +0.000 OA
ATOM      8  N   UNL     1      -1.417  11.686  19.298  0.00  0.00    +0.000 N 
ENDROOT
BRANCH   1  10
ATOM      9  C   UNL     1       0.967  14.021  21.334  0.00  0.00    +0.000 C 
ATOM     10  C   UNL     1       0.296  13.302  20.144  0.00  0.00    +0.000 C 
ATOM     11  O   UNL     1      -0.036  14.348  19.206  0.00  0.00    +0.000 OA
ATOM     12  C   UNL     1       0.957  15.360  19.328  0.00  0.00    +0.000 C 
ATOM     13  O   UNL     1       1.932  15.242  18.296  0.00  0.00    +0.000 OA
ATOM     14  C   UNL     1       3.198  15.271  18.949  0.00  0.00    +0.000 C 
ATOM     15  C   UNL     1       4.180  14.366  18.221  0.00  0.00    +0.000 C 
ATOM     16  C   UNL     1       3.708  16.714  18.976  0.00  0.00    +0.000 C 
ATOM     17  O   UNL     1       3.032  14.789  20.283  0.00  0.00    +0.000 OA
ATOM     18  C   UNL     1       1.698  15.158  20.637  0.00  0.00    +0.000 C 
BRANCH   9  20
ATOM     19  C   UNL     1       0.333  15.824  22.761  0.00  0.00    +0.000 C 
ATOM     20  O   UNL     1      -0.005  14.531  22.257  0.00  0.00    +0.000 OA
ENDBRANCH   9  20
ENDBRANCH   1  10
BRANCH   5  21
ATOM     21  C   UNL     1       1.185   9.096  19.394  0.00  0.00    +0.000 A 
ATOM     22  C   UNL     1       1.867   9.238  18.175  0.00  0.00    +0.000 A 
ATOM     23  C   UNL     1       2.766   8.261  17.712  0.00  0.00    +0.000 A 
ATOM     24  C   UNL     1       3.011   7.111  18.466  0.00  0.00    +0.000 A 
ATOM     25  C   UNL     1       2.363   6.954  19.685  0.00  0.00    +0.000 A 
ATOM     26  C   UNL     1       1.465   7.930  20.140  0.00  0.00    +0.000 A 
BRANCH  24  27
ATOM     27  C   UNL     1       3.909   6.102  17.984  0.00  0.00    +0.000 C 
ATOM     28  N   UNL     1       4.635   5.292  17.586  0.00  0.00    +0.000 NA
ENDBRANCH  24  27
ENDBRANCH   5  21
BRANCH   8  29
ATOM     29  C   UNL     1      -2.405  12.269  18.386  0.00  0.00    +0.000 C 
BRANCH  29  30
ATOM     30  C   UNL     1      -3.821  11.907  18.769  0.00  0.00    +0.000 A 
ATOM     31  C   UNL     1      -4.442  10.790  18.182  0.00  0.00    +0.000 A 
ATOM     32  C   UNL     1      -5.728  10.401  18.560  0.00  0.00    +0.000 A 
ATOM     33  C   UNL     1      -6.415  11.123  19.531  0.00  0.00    +0.000 A 
ATOM     34  C   UNL     1      -5.825  12.245  20.111  0.00  0.00    +0.000 A 
ATOM     35  C   UNL     1      -4.540  12.632  19.725  0.00  0.00    +0.000 A 
BRANCH  35  36
ATOM     36  O   UNL     1      -3.972  13.744  20.283  0.00  0.00    +0.000 OA
ATOM     37  H   UNL     1      -3.070  13.836  19.938  0.00  0.00    +0.000 HD
ENDBRANCH  35  36
ENDBRANCH  29  30
ENDBRANCH   8  29
TORSDOF 7
ENDMDL
MODEL 7
REMARK VINA RESULT:      -6.8      5.935      9.102
REMARK  Name = 
REMARK  10 active torsions:
REMARK  status: ('A' for Active; 'I' for Inactive)
REMARK    1  A    between atoms: C_1  and  O_2
REMARK    2  A    between atoms: O_2  and  C_3
REMARK    3  A    between atoms: C_4  and  C_5
REMARK    4  A    between atoms: N_9  and  C_10
REMARK    5  A    between atoms: C_13  and  C_14
REMARK    6  A    between atoms: N_20  and  C_21
REMARK    7  A    between atoms: C_21  and  C_22
REMARK    8  A    between atoms: C_27  and  O_28
REMARK    9  A    between atoms: C_32  and  C_33
REMARK   10  A    between atoms: C_32  and  C_34
REMARK                            x       y       z     vdW  Elec       q    Type
REMARK                         _______ _______ _______ _____ _____    ______ ____
ROOT
ATOM      1  C   UNL     1       6.054  14.143  23.443  0.00  0.00    +0.000 C 
ATOM      2  C   UNL     1       7.202  15.089  23.713  0.00  0.00    +0.000 C 
ATOM      3  C   UNL     1       8.258  14.983  22.635  0.00  0.00    +0.000 C 
ATOM      4  O   UNL     1       8.965  15.975  22.450  0.00  0.00    +0.000 OA
ATOM      5  N   UNL     1       8.348  13.761  21.956  0.00  0.00    +0.000 N 
ATOM      6  C   UNL     1       7.724  12.599  22.451  0.00  0.00    +0.000 C 
ATOM      7  O   UNL     1       8.128  11.458  22.218  0.00  0.00    +0.000 OA
ATOM      8  N   UNL     1       6.639  12.810  23.287  0.00  0.00    +0.000 N 
ENDROOT
BRANCH   1  10
ATOM      9  C   UNL     1       4.322  15.819  22.370  0.00  0.00    +0.000 C 
ATOM     10  C   UNL     1       5.182  14.545  22.225  0.00  0.00    +0.000 C 
ATOM     11  O   UNL     1       4.244  13.482  21.949  0.00  0.00    +0.000 OA
ATOM     12  C   UNL     1       3.168  14.047  21.210  0.00  0.00    +0.000 C 
ATOM     13  O   UNL     1       3.315  13.789  19.816  0.00  0.00    +0.000 OA
ATOM     14  C   UNL     1       3.153  15.046  19.166  0.00  0.00    +0.000 C 
ATOM     15  C   UNL     1       4.056  15.122  17.946  0.00  0.00    +0.000 C 
ATOM     16  C   UNL     1       1.685  15.209  18.765  0.00  0.00    +0.000 C 
ATOM     17  O   UNL     1       3.526  16.081  20.078  0.00  0.00    +0.000 OA
ATOM     18  C   UNL     1       3.208  15.556  21.368  0.00  0.00    +0.000 C 
BRANCH   9  20
ATOM     19  C   UNL     1       3.379  17.282  24.001  0.00  0.00    +0.000 C 
ATOM     20  O   UNL     1       3.793  15.949  23.696  0.00  0.00    +0.000 OA
ENDBRANCH   9  20
ENDBRANCH   1  10
BRANCH   5  21
ATOM     21  C   UNL     1       9.196  13.625  20.780  0.00  0.00    +0.000 A 
ATOM     22  C   UNL     1      10.554  13.274  20.841  0.00  0.00    +0.000 A 
ATOM     23  C   UNL     1      11.359  13.232  19.689  0.00  0.00    +0.000 A 
ATOM     24  C   UNL     1      10.820  13.536  18.437  0.00  0.00    +0.000 A 
ATOM     25  C   UNL     1       9.474  13.869  18.346  0.00  0.00    +0.000 A 
ATOM     26  C   UNL     1       8.677  13.913  19.498  0.00  0.00    +0.000 A 
BRANCH  24  27
ATOM     27  C   UNL     1      11.646  13.516  17.265  0.00  0.00    +0.000 C 
ATOM     28  N   UNL     1      12.321  13.498  16.323  0.00  0.00    +0.000 NA
ENDBRANCH  24  27
ENDBRANCH   5  21
BRANCH   8  29
ATOM     29  C   UNL     1       5.915  11.661  23.838  0.00  0.00    +0.000 C 
BRANCH  29  30
ATOM     30  C   UNL     1       6.137  11.502  25.324  0.00  0.00    +0.000 A 
ATOM     31  C   UNL     1       7.172  12.214  25.956  0.00  0.00    +0.000 A 
ATOM     32  C   UNL     1       7.364  12.128  27.337  0.00  0.00    +0.000 A 
ATOM     33  C   UNL     1       6.524  11.331  28.107  0.00  0.00    +0.000 A 
ATOM     34  C   UNL     1       5.504  10.602  27.495  0.00  0.00    +0.000 A 
ATOM     35  C   UNL     1       5.320  10.687  26.114  0.00  0.00    +0.000 A 
BRANCH  35  36
ATOM     36  O   UNL     1       4.331   9.957  25.516  0.00  0.00    +0.000 OA
ATOM     37  H   UNL     1       4.675   9.593  24.684  0.00  0.00    +0.000 HD
ENDBRANCH  35  36
ENDBRANCH  29  30
ENDBRANCH   8  29
TORSDOF 7
ENDMDL
MODEL 8
REMARK VINA RESULT:      -6.8      1.335      1.557
REMARK  Name = 
REMARK  10 active torsions:
REMARK  status: ('A' for Active; 'I' for Inactive)
REMARK    1  A    between atoms: C_1  and  O_2
REMARK    2  A    between atoms: O_2  and  C_3
REMARK    3  A    between atoms: C_4  and  C_5
REMARK    4  A    between atoms: N_9  and  C_10
REMARK    5  A    between atoms: C_13  and  C_14
REMARK    6  A    between atoms: N_20  and  C_21
REMARK    7  A    between atoms: C_21  and  C_22
REMARK    8  A    between atoms: C_27  and  O_28
REMARK    9  A    between atoms: C_32  and  C_33
REMARK   10  A    between atoms: C_32  and  C_34
REMARK                            x       y       z     vdW  Elec       q    Type
REMARK                         _______ _______ _______ _____ _____    ______ ____
ROOT
ATOM      1  C   UNL     1      -1.868  13.008  21.563  0.00  0.00    +0.000 C 
ATOM      2  C   UNL     1      -1.536  11.941  22.580  0.00  0.00    +0.000 C 
ATOM      3  C   UNL     1      -0.575  10.924  22.005  0.00  0.00    +0.000 C 
ATOM      4  O   UNL     1       0.137  10.317  22.806  0.00  0.00    +0.000 OA
ATOM      5  N   UNL     1      -0.595  10.751  20.615  0.00  0.00    +0.000 N 
ATOM      6  C   UNL     1      -1.653  11.248  19.830  0.00  0.00    +0.000 C 
ATOM      7  O   UNL     1      -1.992  10.752  18.752  0.00  0.00    +0.000 OA
ATOM      8  N   UNL     1      -2.355  12.313  20.371  0.00  0.00    +0.000 N 
ENDROOT
BRANCH   1  10
ATOM      9  C   UNL     1      -0.231  14.914  22.370  0.00  0.00    +0.000 C 
ATOM     10  C   UNL     1      -0.687  13.962  21.244  0.00  0.00    +0.000 C 
ATOM     11  O   UNL     1      -1.062  14.822  20.147  0.00  0.00    +0.000 OA
ATOM     12  C   UNL     1      -0.225  15.971  20.203  0.00  0.00    +0.000 C 
ATOM     13  O   UNL     1       0.850  15.863  19.275  0.00  0.00    +0.000 OA
ATOM     14  C   UNL     1       2.034  16.153  20.013  0.00  0.00    +0.000 C 
ATOM     15  C   UNL     1       3.189  15.312  19.495  0.00  0.00    +0.000 C 
ATOM     16  C   UNL     1       2.348  17.646  19.878  0.00  0.00    +0.000 C 
ATOM     17  O   UNL     1       1.806  15.826  21.384  0.00  0.00    +0.000 OA
ATOM     18  C   UNL     1       0.408  16.045  21.580  0.00  0.00    +0.000 C 
BRANCH   9  20
ATOM     19  C   UNL     1      -1.183  15.185  24.541  0.00  0.00    +0.000 C 
ATOM     20  O   UNL     1      -1.344  15.394  23.137  0.00  0.00    +0.000 OA
ENDBRANCH   9  20
ENDBRANCH   1  10
BRANCH   5  21
ATOM     21  C   UNL     1       0.418   9.942  19.952  0.00  0.00    +0.000 A 
ATOM     22  C   UNL     1       0.954  10.254  18.693  0.00  0.00    +0.000 A 
ATOM     23  C   UNL     1       1.873   9.405  18.049  0.00  0.00    +0.000 A 
ATOM     24  C   UNL     1       2.285   8.217  18.657  0.00  0.00    +0.000 A 
ATOM     25  C   UNL     1       1.783   7.894  19.912  0.00  0.00    +0.000 A 
ATOM     26  C   UNL     1       0.865   8.742  20.547  0.00  0.00    +0.000 A 
BRANCH  24  27
ATOM     27  C   UNL     1       3.202   7.339  17.991  0.00  0.00    +0.000 C 
ATOM     28  N   UNL     1       3.945   6.625  17.462  0.00  0.00    +0.000 NA
ENDBRANCH  24  27
ENDBRANCH   5  21
BRANCH   8  29
ATOM     29  C   UNL     1      -3.462  12.909  19.619  0.00  0.00    +0.000 C 
BRANCH  29  30
ATOM     30  C   UNL     1      -4.800  12.320  20.005  0.00  0.00    +0.000 A 
ATOM     31  C   UNL     1      -5.408  12.700  21.215  0.00  0.00    +0.000 A 
ATOM     32  C   UNL     1      -6.668  12.215  21.569  0.00  0.00    +0.000 A 
ATOM     33  C   UNL     1      -7.341  11.342  20.719  0.00  0.00    +0.000 A 
ATOM     34  C   UNL     1      -6.746  10.939  19.525  0.00  0.00    +0.000 A 
ATOM     35  C   UNL     1      -5.483  11.423  19.178  0.00  0.00    +0.000 A 
BRANCH  35  36
ATOM     36  O   UNL     1      -4.896  11.010  18.015  0.00  0.00    +0.000 OA
ATOM     37  H   UNL     1      -3.951  10.863  18.181  0.00  0.00    +0.000 HD
ENDBRANCH  35  36
ENDBRANCH  29  30
ENDBRANCH   8  29
TORSDOF 7
ENDMDL
MODEL 9
REMARK VINA RESULT:      -6.8      1.208      1.549
REMARK  Name = 
REMARK  10 active torsions:
REMARK  status: ('A' for Active; 'I' for Inactive)
REMARK    1  A    between atoms: C_1  and  O_2
REMARK    2  A    between atoms: O_2  and  C_3
REMARK    3  A    between atoms: C_4  and  C_5
REMARK    4  A    between atoms: N_9  and  C_10
REMARK    5  A    between atoms: C_13  and  C_14
REMARK    6  A    between atoms: N_20  and  C_21
REMARK    7  A    between atoms: C_21  and  C_22
REMARK    8  A    between atoms: C_27  and  O_28
REMARK    9  A    between atoms: C_32  and  C_33
REMARK   10  A    between atoms: C_32  and  C_34
REMARK                            x       y       z     vdW  Elec       q    Type
REMARK                         _______ _______ _______ _____ _____    ______ ____
ROOT
ATOM      1  C   UNL     1      -1.388  12.548  20.430  0.00  0.00    +0.000 C 
ATOM      2  C   UNL     1      -1.167  11.634  21.613  0.00  0.00    +0.000 C 
ATOM      3  C   UNL     1      -0.188  10.532  21.272  0.00  0.00    +0.000 C 
ATOM      4  O   UNL     1       0.441  10.038  22.209  0.00  0.00    +0.000 OA
ATOM      5  N   UNL     1      -0.098  10.161  19.925  0.00  0.00    +0.000 N 
ATOM      6  C   UNL     1      -1.075  10.553  18.989  0.00  0.00    +0.000 C 
ATOM      7  O   UNL     1      -1.337   9.912  17.969  0.00  0.00    +0.000 OA
ATOM      8  N   UNL     1      -1.792  11.694  19.312  0.00  0.00    +0.000 N 
ENDROOT
BRANCH   1  10
ATOM      9  C   UNL     1      -0.284  14.943  20.359  0.00  0.00    +0.000 C 
ATOM     10  C   UNL     1      -0.161  13.430  20.079  0.00  0.00    +0.000 C 
ATOM     11  O   UNL     1       0.102  13.325  18.663  0.00  0.00    +0.000 OA
ATOM     12  C   UNL     1       0.854  14.472  18.285  0.00  0.00    +0.000 C 
ATOM     13  O   UNL     1       2.242  14.166  18.198  0.00  0.00    +0.000 OA
ATOM     14  C   UNL     1       2.912  15.168  18.957  0.00  0.00    +0.000 C 
ATOM     15  C   UNL     1       4.130  14.573  19.645  0.00  0.00    +0.000 C 
ATOM     16  C   UNL     1       3.321  16.308  18.020  0.00  0.00    +0.000 C 
ATOM     17  O   UNL     1       2.015  15.657  19.955  0.00  0.00    +0.000 OA
ATOM     18  C   UNL     1       0.718  15.523  19.371  0.00  0.00    +0.000 C 
BRANCH   9  20
ATOM     19  C   UNL     1      -1.645  16.830  19.836  0.00  0.00    +0.000 C 
ATOM     20  O   UNL     1      -1.606  15.424  20.083  0.00  0.00    +0.000 OA
ENDBRANCH   9  20
ENDBRANCH   1  10
BRANCH   5  21
ATOM     21  C   UNL     1       0.946   9.252  19.472  0.00  0.00    +0.000 A 
ATOM     22  C   UNL     1       1.637   9.410  18.261  0.00  0.00    +0.000 A 
ATOM     23  C   UNL     1       2.583   8.467  17.819  0.00  0.00    +0.000 A 
ATOM     24  C   UNL     1       2.866   7.336  18.588  0.00  0.00    +0.000 A 
ATOM     25  C   UNL     1       2.208   7.165  19.801  0.00  0.00    +0.000 A 
ATOM     26  C   UNL     1       1.265   8.106  20.233  0.00  0.00    +0.000 A 
BRANCH  24  27
ATOM     27  C   UNL     1       3.811   6.361  18.129  0.00  0.00    +0.000 C 
ATOM     28  N   UNL     1       4.569   5.570  17.751  0.00  0.00    +0.000 NA
ENDBRANCH  24  27
ENDBRANCH   5  21
BRANCH   8  29
ATOM     29  C   UNL     1      -2.819  12.189  18.391  0.00  0.00    +0.000 C 
BRANCH  29  30
ATOM     30  C   UNL     1      -4.218  11.881  18.874  0.00  0.00    +0.000 A 
ATOM     31  C   UNL     1      -4.871  10.718  18.430  0.00  0.00    +0.000 A 
ATOM     32  C   UNL     1      -6.140  10.381  18.904  0.00  0.00    +0.000 A 
ATOM     33  C   UNL     1      -6.777  11.202  19.829  0.00  0.00    +0.000 A 
ATOM     34  C   UNL     1      -6.154  12.370  20.267  0.00  0.00    +0.000 A 
ATOM     35  C   UNL     1      -4.887  12.705  19.786  0.00  0.00    +0.000 A 
BRANCH  35  36
ATOM     36  O   UNL     1      -4.287  13.860  20.203  0.00  0.00    +0.000 OA
ATOM     37  H   UNL     1      -3.325  13.742  20.161  0.00  0.00    +0.000 HD
ENDBRANCH  35  36
ENDBRANCH  29  30
ENDBRANCH   8  29
TORSDOF 7
ENDMDL
