MODEL 1
REMARK VINA RESULT:      -9.0      0.000      0.000
REMARK  Name = 
REMARK  6 active torsions:
REMARK  status: ('A' for Active; 'I' for Inactive)
REMARK    1  A    between atoms: S_2  and  N_4
REMARK    2  A    between atoms: S_2  and  C_25
REMARK    3  A    between atoms: N_4  and  C_5
REMARK    4  A    between atoms: C_8  and  O_9
REMARK    5  A    between atoms: O_9  and  C_10
REMARK    6  A    between atoms: N_13  and  C_14
REMARK                            x       y       z     vdW  Elec       q    Type
REMARK                         _______ _______ _______ _____ _____    ______ ____
ROOT
ATOM      1  C   UNL     1       2.034   4.969  19.059  0.00  0.00    +0.000 A 
ATOM      2  C   UNL     1       1.645   5.162  20.372  0.00  0.00    +0.000 A 
ATOM      3  N   UNL     1       1.565   6.375  20.953  0.00  0.00    +0.000 NA
ATOM      4  C   UNL     1       1.878   7.461  20.209  0.00  0.00    +0.000 A 
ATOM      5  C   UNL     1       2.210   7.368  18.858  0.00  0.00    +0.000 A 
ATOM      6 CL   UNL     1       2.513   8.757  17.881  0.00  0.00    +0.000 Cl
ATOM      7  C   UNL     1       2.302   6.092  18.276  0.00  0.00    +0.000 A 
ENDROOT
BRANCH   1   8
ATOM      8  N   UNL     1       2.092   3.658  18.523  0.00  0.00    +0.000 N 
ATOM      9  H   UNL     1       1.241   3.174  18.242  0.00  0.00    +0.000 HD
BRANCH   8  11
ATOM     10  O   UNL     1       3.787   2.629  20.043  0.00  0.00    +0.000 OA
ATOM     11  S   UNL     1       3.484   2.722  18.633  0.00  0.00    +0.000 S 
ATOM     12  O   UNL     1       3.310   1.546  17.805  0.00  0.00    +0.000 OA
BRANCH  11  13
ATOM     13  C   UNL     1       4.785   3.713  17.893  0.00  0.00    +0.000 A 
ATOM     14  C   UNL     1       4.737   4.016  16.524  0.00  0.00    +0.000 A 
ATOM     15  C   UNL     1       5.652   4.919  15.977  0.00  0.00    +0.000 A 
ATOM     16  C   UNL     1       6.604   5.527  16.800  0.00  0.00    +0.000 A 
ATOM     17  F   UNL     1       7.452   6.406  16.259  0.00  0.00    +0.000 F 
ATOM     18  C   UNL     1       6.647   5.232  18.163  0.00  0.00    +0.000 A 
ATOM     19 CL   UNL     1       7.798   6.009  19.183  0.00  0.00    +0.000 Cl
ATOM     20  C   UNL     1       5.739   4.327  18.719  0.00  0.00    +0.000 A 
ENDBRANCH  11  13
ENDBRANCH   8  11
ENDBRANCH   1   8
BRANCH   4  21
ATOM     21  O   UNL     1       1.851   8.697  20.854  0.00  0.00    +0.000 OA
BRANCH  21  22
ATOM     22  C   UNL     1       0.507   9.244  20.963  0.00  0.00    +0.000 C 
ATOM     23  C   UNL     1       0.450  10.684  20.439  0.00  0.00    +0.000 C 
ATOM     24  C   UNL     1       0.023  11.773  21.409  0.00  0.00    +0.000 C 
ATOM     25  N   UNL     1      -0.974  11.276  22.359  0.00  0.00    +0.000 N 
ATOM     26  C   UNL     1      -0.519  10.165  23.192  0.00  0.00    +0.000 C 
ATOM     27  C   UNL     1      -0.072   8.970  22.355  0.00  0.00    +0.000 C 
BRANCH  25  28
ATOM     28  C   UNL     1      -1.739  12.286  22.975  0.00  0.00    +0.000 A 
ATOM     29  C   UNL     1      -3.046  11.985  23.393  0.00  0.00    +0.000 A 
ATOM     30  C   UNL     1      -3.827  12.905  24.108  0.00  0.00    +0.000 A 
ATOM     31  C   UNL     1      -3.318  14.157  24.419  0.00  0.00    +0.000 A 
ATOM     32  C   UNL     1      -2.038  14.499  23.990  0.00  0.00    +0.000 A 
ATOM     33  C   UNL     1      -1.260  13.574  23.275  0.00  0.00    +0.000 A 
ENDBRANCH  25  28
ENDBRANCH  21  22
ENDBRANCH   4  21
TORSDOF 6
ENDMDL
MODEL 2
REMARK VINA RESULT:      -8.8      0.919      1.510
REMARK  Name = 
REMARK  6 active torsions:
REMARK  status: ('A' for Active; 'I' for Inactive)
REMARK    1  A    between atoms: S_2  and  N_4
REMARK    2  A    between atoms: S_2  and  C_25
REMARK    3  A    between atoms: N_4  and  C_5
REMARK    4  A    between atoms: C_8  and  O_9
REMARK    5  A    between atoms: O_9  and  C_10
REMARK    6  A    between atoms: N_13  and  C_14
REMARK                            x       y       z     vdW  Elec       q    Type
REMARK                         _______ _______ _______ _____ _____    ______ ____
ROOT
ATOM      1  C   UNL     1       2.066   4.922  19.230  0.00  0.00    +0.000 A 
ATOM      2  C   UNL     1       1.762   5.220  20.546  0.00  0.00    +0.000 A 
ATOM      3  N   UNL     1       1.665   6.476  21.021  0.00  0.00    +0.000 NA
ATOM      4  C   UNL     1       1.872   7.501  20.161  0.00  0.00    +0.000 A 
ATOM      5  C   UNL     1       2.111   7.298  18.803  0.00  0.00    +0.000 A 
ATOM      6 CL   UNL     1       2.276   8.601  17.686  0.00  0.00    +0.000 Cl
ATOM      7  C   UNL     1       2.223   5.978  18.332  0.00  0.00    +0.000 A 
ENDROOT
BRANCH   1   8
ATOM      8  N   UNL     1       2.148   3.570  18.811  0.00  0.00    +0.000 N 
ATOM      9  H   UNL     1       1.313   2.991  18.760  0.00  0.00    +0.000 HD
BRANCH   8  11
ATOM     10  O   UNL     1       4.017   2.488  20.067  0.00  0.00    +0.000 OA
ATOM     11  S   UNL     1       3.622   2.770  18.705  0.00  0.00    +0.000 S 
ATOM     12  O   UNL     1       3.505   1.726  17.707  0.00  0.00    +0.000 OA
BRANCH  11  13
ATOM     13  C   UNL     1       4.783   3.987  18.076  0.00  0.00    +0.000 A 
ATOM     14  C   UNL     1       5.590   4.706  18.971  0.00  0.00    +0.000 A 
ATOM     15  C   UNL     1       6.607   5.531  18.484  0.00  0.00    +0.000 A 
ATOM     16  C   UNL     1       6.824   5.626  17.107  0.00  0.00    +0.000 A 
ATOM     17  F   UNL     1       7.818   6.402  16.666  0.00  0.00    +0.000 F 
ATOM     18  C   UNL     1       6.026   4.905  16.217  0.00  0.00    +0.000 A 
ATOM     19 CL   UNL     1       6.318   4.996  14.522  0.00  0.00    +0.000 Cl
ATOM     20  C   UNL     1       5.004   4.081  16.694  0.00  0.00    +0.000 A 
ENDBRANCH  11  13
ENDBRANCH   8  11
ENDBRANCH   1   8
BRANCH   4  21
ATOM     21  O   UNL     1       1.830   8.790  20.693  0.00  0.00    +0.000 OA
BRANCH  21  22
ATOM     22  C   UNL     1       0.472   9.276  20.881  0.00  0.00    +0.000 C 
ATOM     23  C   UNL     1       0.327  10.720  20.384  0.00  0.00    +0.000 C 
ATOM     24  C   UNL     1      -0.095  11.776  21.393  0.00  0.00    +0.000 C 
ATOM     25  N   UNL     1      -1.018  11.223  22.385  0.00  0.00    +0.000 N 
ATOM     26  C   UNL     1      -0.473  10.121  23.175  0.00  0.00    +0.000 C 
ATOM     27  C   UNL     1      -0.020   8.959  22.296  0.00  0.00    +0.000 C 
BRANCH  25  28
ATOM     28  C   UNL     1      -1.791  12.190  23.057  0.00  0.00    +0.000 A 
ATOM     29  C   UNL     1      -1.252  13.473  23.252  0.00  0.00    +0.000 A 
ATOM     30  C   UNL     1      -2.002  14.515  23.816  0.00  0.00    +0.000 A 
ATOM     31  C   UNL     1      -3.315  14.297  24.205  0.00  0.00    +0.000 A 
ATOM     32  C   UNL     1      -3.869  13.028  24.056  0.00  0.00    +0.000 A 
ATOM     33  C   UNL     1      -3.114  11.988  23.490  0.00  0.00    +0.000 A 
ENDBRANCH  25  28
ENDBRANCH  21  22
ENDBRANCH   4  21
TORSDOF 6
ENDMDL
MODEL 3
REMARK VINA RESULT:      -8.7      1.486      1.733
REMARK  Name = 
REMARK  6 active torsions:
REMARK  status: ('A' for Active; 'I' for Inactive)
REMARK    1  A    between atoms: S_2  and  N_4
REMARK    2  A    between atoms: S_2  and  C_25
REMARK    3  A    between atoms: N_4  and  C_5
REMARK    4  A    between atoms: C_8  and  O_9
REMARK    5  A    between atoms: O_9  and  C_10
REMARK    6  A    between atoms: N_13  and  C_14
REMARK                            x       y       z     vdW  Elec       q    Type
REMARK                         _______ _______ _______ _____ _____    ______ ____
ROOT
ATOM      1  C   UNL     1       2.299   5.267  18.917  0.00  0.00    +0.000 A 
ATOM      2  C   UNL     1       1.855   5.341  20.225  0.00  0.00    +0.000 A 
ATOM      3  N   UNL     1       1.614   6.502  20.863  0.00  0.00    +0.000 NA
ATOM      4  C   UNL     1       1.816   7.656  20.186  0.00  0.00    +0.000 A 
ATOM      5  C   UNL     1       2.192   7.677  18.843  0.00  0.00    +0.000 A 
ATOM      6 CL   UNL     1       2.353   9.142  17.949  0.00  0.00    +0.000 Cl
ATOM      7  C   UNL     1       2.452   6.453  18.201  0.00  0.00    +0.000 A 
ENDROOT
BRANCH   1   8
ATOM      8  N   UNL     1       2.528   4.002  18.318  0.00  0.00    +0.000 N 
ATOM      9  H   UNL     1       1.752   3.454  17.951  0.00  0.00    +0.000 HD
BRANCH   8  11
ATOM     10  O   UNL     1       4.514   3.583  19.775  0.00  0.00    +0.000 OA
ATOM     11  S   UNL     1       3.999   3.204  18.479  0.00  0.00    +0.000 S 
ATOM     12  O   UNL     1       3.810   1.818  18.102  0.00  0.00    +0.000 OA
BRANCH  11  13
ATOM     13  C   UNL     1       5.083   3.951  17.258  0.00  0.00    +0.000 A 
ATOM     14  C   UNL     1       6.269   4.577  17.670  0.00  0.00    +0.000 A 
ATOM     15  C   UNL     1       7.195   5.013  16.719  0.00  0.00    +0.000 A 
ATOM     16  C   UNL     1       6.940   4.812  15.360  0.00  0.00    +0.000 A 
ATOM     17  F   UNL     1       7.851   5.215  14.470  0.00  0.00    +0.000 F 
ATOM     18  C   UNL     1       5.764   4.182  14.950  0.00  0.00    +0.000 A 
ATOM     19 CL   UNL     1       5.469   3.902  13.276  0.00  0.00    +0.000 Cl
ATOM     20  C   UNL     1       4.830   3.746  15.893  0.00  0.00    +0.000 A 
ENDBRANCH  11  13
ENDBRANCH   8  11
ENDBRANCH   1   8
BRANCH   4  21
ATOM     21  O   UNL     1       1.623   8.844  20.891  0.00  0.00    +0.000 OA
BRANCH  21  22
ATOM     22  C   UNL     1       0.218   9.200  21.019  0.00  0.00    +0.000 C 
ATOM     23  C   UNL     1      -0.121  10.432  20.170  0.00  0.00    +0.000 C 
ATOM     24  C   UNL     1      -0.653  11.661  20.889  0.00  0.00    +0.000 C 
ATOM     25  N   UNL     1      -1.476  11.287  22.041  0.00  0.00    +0.000 N 
ATOM     26  C   UNL     1      -0.778  10.507  23.061  0.00  0.00    +0.000 C 
ATOM     27  C   UNL     1      -0.199   9.215  22.493  0.00  0.00    +0.000 C 
BRANCH  25  28
ATOM     28  C   UNL     1      -2.353  12.300  22.478  0.00  0.00    +0.000 A 
ATOM     29  C   UNL     1      -3.105  12.087  23.645  0.00  0.00    +0.000 A 
ATOM     30  C   UNL     1      -3.916  13.089  24.198  0.00  0.00    +0.000 A 
ATOM     31  C   UNL     1      -3.998  14.333  23.591  0.00  0.00    +0.000 A 
ATOM     32  C   UNL     1      -3.291  14.565  22.413  0.00  0.00    +0.000 A 
ATOM     33  C   UNL     1      -2.480  13.559  21.864  0.00  0.00    +0.000 A 
ENDBRANCH  25  28
ENDBRANCH  21  22
ENDBRANCH   4  21
TORSDOF 6
ENDMDL
MODEL 4
REMARK VINA RESULT:      -8.2      3.510      3.975
REMARK  Name = 
REMARK  6 active torsions:
REMARK  status: ('A' for Active; 'I' for Inactive)
REMARK    1  A    between atoms: S_2  and  N_4
REMARK    2  A    between atoms: S_2  and  C_25
REMARK    3  A    between atoms: N_4  and  C_5
REMARK    4  A    between atoms: C_8  and  O_9
REMARK    5  A    between atoms: O_9  and  C_10
REMARK    6  A    between atoms: N_13  and  C_14
REMARK                            x       y       z     vdW  Elec       q    Type
REMARK                         _______ _______ _______ _____ _____    ______ ____
ROOT
ATOM      1  C   UNL     1       2.383   7.182  19.701  0.00  0.00    +0.000 A 
ATOM      2  C   UNL     1       2.345   7.855  18.494  0.00  0.00    +0.000 A 
ATOM      3  N   UNL     1       1.672   9.006  18.305  0.00  0.00    +0.000 NA
ATOM      4  C   UNL     1       1.000   9.531  19.356  0.00  0.00    +0.000 A 
ATOM      5  C   UNL     1       1.041   8.961  20.628  0.00  0.00    +0.000 A 
ATOM      6 CL   UNL     1       0.268   9.681  21.991  0.00  0.00    +0.000 Cl
ATOM      7  C   UNL     1       1.738   7.752  20.799  0.00  0.00    +0.000 A 
ENDROOT
BRANCH   1   8
ATOM      8  N   UNL     1       3.118   5.974  19.816  0.00  0.00    +0.000 N 
ATOM      9  H   UNL     1       3.916   5.910  20.445  0.00  0.00    +0.000 HD
BRANCH   8  11
ATOM     10  O   UNL     1       3.034   3.501  19.473  0.00  0.00    +0.000 OA
ATOM     11  S   UNL     1       2.935   4.724  18.708  0.00  0.00    +0.000 S 
ATOM     12  O   UNL     1       1.787   5.016  17.874  0.00  0.00    +0.000 OA
BRANCH  11  13
ATOM     13  C   UNL     1       4.392   4.794  17.663  0.00  0.00    +0.000 A 
ATOM     14  C   UNL     1       4.451   4.015  16.497  0.00  0.00    +0.000 A 
ATOM     15  C   UNL     1       5.505   4.186  15.596  0.00  0.00    +0.000 A 
ATOM     16  C   UNL     1       6.489   5.143  15.854  0.00  0.00    +0.000 A 
ATOM     17  F   UNL     1       7.474   5.306  14.966  0.00  0.00    +0.000 F 
ATOM     18  C   UNL     1       6.427   5.923  17.009  0.00  0.00    +0.000 A 
ATOM     19 CL   UNL     1       7.623   7.127  17.308  0.00  0.00    +0.000 Cl
ATOM     20  C   UNL     1       5.380   5.756  17.919  0.00  0.00    +0.000 A 
ENDBRANCH  11  13
ENDBRANCH   8  11
ENDBRANCH   1   8
BRANCH   4  21
ATOM     21  O   UNL     1       0.257  10.687  19.116  0.00  0.00    +0.000 OA
BRANCH  21  22
ATOM     22  C   UNL     1      -1.164  10.504  19.369  0.00  0.00    +0.000 C 
ATOM     23  C   UNL     1      -1.921  10.186  18.073  0.00  0.00    +0.000 C 
ATOM     24  C   UNL     1      -3.019  11.144  17.643  0.00  0.00    +0.000 C 
ATOM     25  N   UNL     1      -3.711  11.713  18.801  0.00  0.00    +0.000 N 
ATOM     26  C   UNL     1      -2.855  12.478  19.705  0.00  0.00    +0.000 C 
ATOM     27  C   UNL     1      -1.703  11.637  20.247  0.00  0.00    +0.000 C 
BRANCH  25  28
ATOM     28  C   UNL     1      -4.989  12.233  18.513  0.00  0.00    +0.000 A 
ATOM     29  C   UNL     1      -5.694  12.897  19.531  0.00  0.00    +0.000 A 
ATOM     30  C   UNL     1      -6.921  13.531  19.290  0.00  0.00    +0.000 A 
ATOM     31  C   UNL     1      -7.478  13.512  18.020  0.00  0.00    +0.000 A 
ATOM     32  C   UNL     1      -6.820  12.834  16.997  0.00  0.00    +0.000 A 
ATOM     33  C   UNL     1      -5.591  12.201  17.243  0.00  0.00    +0.000 A 
ENDBRANCH  25  28
ENDBRANCH  21  22
ENDBRANCH   4  21
TORSDOF 6
ENDMDL
MODEL 5
REMARK VINA RESULT:      -8.1      1.015      1.268
REMARK  Name = 
REMARK  6 active torsions:
REMARK  status: ('A' for Active; 'I' for Inactive)
REMARK    1  A    between atoms: S_2  and  N_4
REMARK    2  A    between atoms: S_2  and  C_25
REMARK    3  A    between atoms: N_4  and  C_5
REMARK    4  A    between atoms: C_8  and  O_9
REMARK    5  A    between atoms: O_9  and  C_10
REMARK    6  A    between atoms: N_13  and  C_14
REMARK                            x       y       z     vdW  Elec       q    Type
REMARK                         _______ _______ _______ _____ _____    ______ ____
ROOT
ATOM      1  C   UNL     1       2.369   5.130  19.583  0.00  0.00    +0.000 A 
ATOM      2  C   UNL     1       1.805   5.543  20.777  0.00  0.00    +0.000 A 
ATOM      3  N   UNL     1       1.504   6.826  21.053  0.00  0.00    +0.000 NA
ATOM      4  C   UNL     1       1.765   7.760  20.108  0.00  0.00    +0.000 A 
ATOM      5  C   UNL     1       2.264   7.428  18.849  0.00  0.00    +0.000 A 
ATOM      6 CL   UNL     1       2.504   8.601  17.609  0.00  0.00    +0.000 Cl
ATOM      7  C   UNL     1       2.585   6.084  18.588  0.00  0.00    +0.000 A 
ENDROOT
BRANCH   1   8
ATOM      8  N   UNL     1       2.654   3.758  19.372  0.00  0.00    +0.000 N 
ATOM      9  H   UNL     1       2.739   3.119  20.160  0.00  0.00    +0.000 HD
BRANCH   8  11
ATOM     10  O   UNL     1       3.627   1.829  18.115  0.00  0.00    +0.000 OA
ATOM     11  S   UNL     1       3.189   3.188  17.884  0.00  0.00    +0.000 S 
ATOM     12  O   UNL     1       2.192   3.514  16.885  0.00  0.00    +0.000 OA
BRANCH  11  13
ATOM     13  C   UNL     1       4.661   4.143  17.507  0.00  0.00    +0.000 A 
ATOM     14  C   UNL     1       4.786   4.765  16.255  0.00  0.00    +0.000 A 
ATOM     15  C   UNL     1       5.847   5.642  16.014  0.00  0.00    +0.000 A 
ATOM     16  C   UNL     1       6.772   5.905  17.027  0.00  0.00    +0.000 A 
ATOM     17  F   UNL     1       7.764   6.766  16.782  0.00  0.00    +0.000 F 
ATOM     18  C   UNL     1       6.644   5.293  18.275  0.00  0.00    +0.000 A 
ATOM     19 CL   UNL     1       7.765   5.648  19.534  0.00  0.00    +0.000 Cl
ATOM     20  C   UNL     1       5.589   4.412  18.524  0.00  0.00    +0.000 A 
ENDBRANCH  11  13
ENDBRANCH   8  11
ENDBRANCH   1   8
BRANCH   4  21
ATOM     21  O   UNL     1       1.506   9.088  20.445  0.00  0.00    +0.000 OA
BRANCH  21  22
ATOM     22  C   UNL     1       0.126   9.305  20.853  0.00  0.00    +0.000 C 
ATOM     23  C   UNL     1      -0.576  10.303  19.923  0.00  0.00    +0.000 C 
ATOM     24  C   UNL     1      -1.118  11.582  20.539  0.00  0.00    +0.000 C 
ATOM     25  N   UNL     1      -1.600  11.352  21.901  0.00  0.00    +0.000 N 
ATOM     26  C   UNL     1      -0.584  10.869  22.833  0.00  0.00    +0.000 C 
ATOM     27  C   UNL     1       0.047   9.562  22.361  0.00  0.00    +0.000 C 
BRANCH  25  28
ATOM     28  C   UNL     1      -2.504  12.328  22.368  0.00  0.00    +0.000 A 
ATOM     29  C   UNL     1      -2.707  13.486  21.598  0.00  0.00    +0.000 A 
ATOM     30  C   UNL     1      -3.667  14.448  21.943  0.00  0.00    +0.000 A 
ATOM     31  C   UNL     1      -4.447  14.277  23.077  0.00  0.00    +0.000 A 
ATOM     32  C   UNL     1      -4.247  13.157  23.880  0.00  0.00    +0.000 A 
ATOM     33  C   UNL     1      -3.285  12.196  23.530  0.00  0.00    +0.000 A 
ENDBRANCH  25  28
ENDBRANCH  21  22
ENDBRANCH   4  21
TORSDOF 6
ENDMDL
MODEL 6
REMARK VINA RESULT:      -8.1      4.345     10.630
REMARK  Name = 
REMARK  6 active torsions:
REMARK  status: ('A' for Active; 'I' for Inactive)
REMARK    1  A    between atoms: S_2  and  N_4
REMARK    2  A    between atoms: S_2  and  C_25
REMARK    3  A    between atoms: N_4  and  C_5
REMARK    4  A    between atoms: C_8  and  O_9
REMARK    5  A    between atoms: O_9  and  C_10
REMARK    6  A    between atoms: N_13  and  C_14
REMARK                            x       y       z     vdW  Elec       q    Type
REMARK                         _______ _______ _______ _____ _____    ______ ____
ROOT
ATOM      1  C   UNL     1       2.290   7.739  18.416  0.00  0.00    +0.000 A 
ATOM      2  C   UNL     1       3.556   7.650  17.865  0.00  0.00    +0.000 A 
ATOM      3  N   UNL     1       4.472   6.741  18.249  0.00  0.00    +0.000 NA
ATOM      4  C   UNL     1       4.132   5.865  19.223  0.00  0.00    +0.000 A 
ATOM      5  C   UNL     1       2.855   5.832  19.784  0.00  0.00    +0.000 A 
ATOM      6 CL   UNL     1       2.387   4.654  20.953  0.00  0.00    +0.000 Cl
ATOM      7  C   UNL     1       1.920   6.800  19.379  0.00  0.00    +0.000 A 
ENDROOT
BRANCH   1   8
ATOM      8  N   UNL     1       1.385   8.727  17.954  0.00  0.00    +0.000 N 
ATOM      9  H   UNL     1       1.097   8.752  16.978  0.00  0.00    +0.000 HD
BRANCH   8  11
ATOM     10  O   UNL     1       1.001   9.627  20.253  0.00  0.00    +0.000 OA
ATOM     11  S   UNL     1       1.009  10.079  18.879  0.00  0.00    +0.000 S 
ATOM     12  O   UNL     1       1.839  11.181  18.438  0.00  0.00    +0.000 OA
BRANCH  11  13
ATOM     13  C   UNL     1      -0.690  10.485  18.465  0.00  0.00    +0.000 A 
ATOM     14  C   UNL     1      -1.382  11.444  19.221  0.00  0.00    +0.000 A 
ATOM     15  C   UNL     1      -2.641  11.884  18.806  0.00  0.00    +0.000 A 
ATOM     16  C   UNL     1      -3.201  11.376  17.631  0.00  0.00    +0.000 A 
ATOM     17  F   UNL     1      -4.396  11.829  17.241  0.00  0.00    +0.000 F 
ATOM     18  C   UNL     1      -2.510  10.428  16.874  0.00  0.00    +0.000 A 
ATOM     19 CL   UNL     1      -3.187   9.829  15.407  0.00  0.00    +0.000 Cl
ATOM     20  C   UNL     1      -1.252   9.978  17.283  0.00  0.00    +0.000 A 
ENDBRANCH  11  13
ENDBRANCH   8  11
ENDBRANCH   1   8
BRANCH   4  21
ATOM     21  O   UNL     1       5.120   4.977  19.647  0.00  0.00    +0.000 OA
BRANCH  21  22
ATOM     22  C   UNL     1       5.657   4.173  18.559  0.00  0.00    +0.000 C 
ATOM     23  C   UNL     1       6.932   4.803  17.982  0.00  0.00    +0.000 C 
ATOM     24  C   UNL     1       6.924   5.196  16.514  0.00  0.00    +0.000 C 
ATOM     25  N   UNL     1       6.113   4.271  15.721  0.00  0.00    +0.000 N 
ATOM     26  C   UNL     1       4.708   4.200  16.116  0.00  0.00    +0.000 C 
ATOM     27  C   UNL     1       4.546   3.790  17.577  0.00  0.00    +0.000 C 
BRANCH  25  28
ATOM     28  C   UNL     1       6.406   4.281  14.343  0.00  0.00    +0.000 A 
ATOM     29  C   UNL     1       7.417   5.135  13.872  0.00  0.00    +0.000 A 
ATOM     30  C   UNL     1       7.835   5.123  12.533  0.00  0.00    +0.000 A 
ATOM     31  C   UNL     1       7.245   4.254  11.628  0.00  0.00    +0.000 A 
ATOM     32  C   UNL     1       6.217   3.417  12.055  0.00  0.00    +0.000 A 
ATOM     33  C   UNL     1       5.802   3.433  13.397  0.00  0.00    +0.000 A 
ENDBRANCH  25  28
ENDBRANCH  21  22
ENDBRANCH   4  21
TORSDOF 6
ENDMDL
MODEL 7
REMARK VINA RESULT:      -7.8      1.219      1.273
REMARK  Name = 
REMARK  6 active torsions:
REMARK  status: ('A' for Active; 'I' for Inactive)
REMARK    1  A    between atoms: S_2  and  N_4
REMARK    2  A    between atoms: S_2  and  C_25
REMARK    3  A    between atoms: N_4  and  C_5
REMARK    4  A    between atoms: C_8  and  O_9
REMARK    5  A    between atoms: O_9  and  C_10
REMARK    6  A    between atoms: N_13  and  C_14
REMARK                            x       y       z     vdW  Elec       q    Type
REMARK                         _______ _______ _______ _____ _____    ______ ____
ROOT
ATOM      1  C   UNL     1       2.282   5.563  19.781  0.00  0.00    +0.000 A 
ATOM      2  C   UNL     1       1.612   6.036  20.895  0.00  0.00    +0.000 A 
ATOM      3  N   UNL     1       1.247   7.323  21.052  0.00  0.00    +0.000 NA
ATOM      4  C   UNL     1       1.549   8.197  20.064  0.00  0.00    +0.000 A 
ATOM      5  C   UNL     1       2.157   7.797  18.875  0.00  0.00    +0.000 A 
ATOM      6 CL   UNL     1       2.454   8.889  17.574  0.00  0.00    +0.000 Cl
ATOM      7  C   UNL     1       2.543   6.452  18.738  0.00  0.00    +0.000 A 
ENDROOT
BRANCH   1   8
ATOM      8  N   UNL     1       2.631   4.191  19.694  0.00  0.00    +0.000 N 
ATOM      9  H   UNL     1       2.996   3.697  20.505  0.00  0.00    +0.000 HD
BRANCH   8  11
ATOM     10  O   UNL     1       2.958   2.011  18.518  0.00  0.00    +0.000 OA
ATOM     11  S   UNL     1       2.778   3.413  18.212  0.00  0.00    +0.000 S 
ATOM     12  O   UNL     1       1.717   3.879  17.343  0.00  0.00    +0.000 OA
BRANCH  11  13
ATOM     13  C   UNL     1       4.332   3.989  17.521  0.00  0.00    +0.000 A 
ATOM     14  C   UNL     1       4.426   4.257  16.147  0.00  0.00    +0.000 A 
ATOM     15  C   UNL     1       5.576   4.860  15.631  0.00  0.00    +0.000 A 
ATOM     16  C   UNL     1       6.623   5.206  16.490  0.00  0.00    +0.000 A 
ATOM     17  F   UNL     1       7.702   5.804  15.978  0.00  0.00    +0.000 F 
ATOM     18  C   UNL     1       6.526   4.948  17.858  0.00  0.00    +0.000 A 
ATOM     19 CL   UNL     1       7.802   5.408  18.920  0.00  0.00    +0.000 Cl
ATOM     20  C   UNL     1       5.382   4.341  18.383  0.00  0.00    +0.000 A 
ENDBRANCH  11  13
ENDBRANCH   8  11
ENDBRANCH   1   8
BRANCH   4  21
ATOM     21  O   UNL     1       1.218   9.534  20.282  0.00  0.00    +0.000 OA
BRANCH  21  22
ATOM     22  C   UNL     1      -0.137   9.703  20.782  0.00  0.00    +0.000 C 
ATOM     23  C   UNL     1      -0.961  10.607  19.856  0.00  0.00    +0.000 C 
ATOM     24  C   UNL     1      -1.527  11.890  20.440  0.00  0.00    +0.000 C 
ATOM     25  N   UNL     1      -1.893  11.717  21.847  0.00  0.00    +0.000 N 
ATOM     26  C   UNL     1      -0.785  11.342  22.723  0.00  0.00    +0.000 C 
ATOM     27  C   UNL     1      -0.119  10.044  22.276  0.00  0.00    +0.000 C 
BRANCH  25  28
ATOM     28  C   UNL     1      -2.812  12.671  22.327  0.00  0.00    +0.000 A 
ATOM     29  C   UNL     1      -3.374  12.489  23.602  0.00  0.00    +0.000 A 
ATOM     30  C   UNL     1      -4.212  13.449  24.188  0.00  0.00    +0.000 A 
ATOM     31  C   UNL     1      -4.513  14.618  23.507  0.00  0.00    +0.000 A 
ATOM     32  C   UNL     1      -4.000  14.815  22.227  0.00  0.00    +0.000 A 
ATOM     33  C   UNL     1      -3.161  13.851  21.645  0.00  0.00    +0.000 A 
ENDBRANCH  25  28
ENDBRANCH  21  22
ENDBRANCH   4  21
TORSDOF 6
ENDMDL
MODEL 8
REMARK VINA RESULT:      -7.8      3.292      4.021
REMARK  Name = 
REMARK  6 active torsions:
REMARK  status: ('A' for Active; 'I' for Inactive)
REMARK    1  A    between atoms: S_2  and  N_4
REMARK    2  A    between atoms: S_2  and  C_25
REMARK    3  A    between atoms: N_4  and  C_5
REMARK    4  A    between atoms: C_8  and  O_9
REMARK    5  A    between atoms: O_9  and  C_10
REMARK    6  A    between atoms: N_13  and  C_14
REMARK                            x       y       z     vdW  Elec       q    Type
REMARK                         _______ _______ _______ _____ _____    ______ ____
ROOT
ATOM      1  C   UNL     1       2.425   6.949  19.896  0.00  0.00    +0.000 A 
ATOM      2  C   UNL     1       2.514   7.705  18.741  0.00  0.00    +0.000 A 
ATOM      3  N   UNL     1       1.788   8.817  18.523  0.00  0.00    +0.000 NA
ATOM      4  C   UNL     1       0.928   9.218  19.488  0.00  0.00    +0.000 A 
ATOM      5  C   UNL     1       0.824   8.560  20.713  0.00  0.00    +0.000 A 
ATOM      6 CL   UNL     1      -0.197   9.124  21.983  0.00  0.00    +0.000 Cl
ATOM      7  C   UNL     1       1.581   7.392  20.914  0.00  0.00    +0.000 A 
ENDROOT
BRANCH   1   8
ATOM      8  N   UNL     1       3.227   5.789  20.047  0.00  0.00    +0.000 N 
ATOM      9  H   UNL     1       4.033   5.794  20.668  0.00  0.00    +0.000 HD
BRANCH   8  11
ATOM     10  O   UNL     1       3.362   3.309  19.784  0.00  0.00    +0.000 OA
ATOM     11  S   UNL     1       3.103   4.489  18.990  0.00  0.00    +0.000 S 
ATOM     12  O   UNL     1       1.887   4.643  18.217  0.00  0.00    +0.000 OA
BRANCH  11  13
ATOM     13  C   UNL     1       4.486   4.659  17.858  0.00  0.00    +0.000 A 
ATOM     14  C   UNL     1       4.494   3.936  16.655  0.00  0.00    +0.000 A 
ATOM     15  C   UNL     1       5.480   4.187  15.698  0.00  0.00    +0.000 A 
ATOM     16  C   UNL     1       6.447   5.166  15.938  0.00  0.00    +0.000 A 
ATOM     17  F   UNL     1       7.366   5.405  14.998  0.00  0.00    +0.000 F 
ATOM     18  C   UNL     1       6.435   5.890  17.131  0.00  0.00    +0.000 A 
ATOM     19 CL   UNL     1       7.607   7.122  17.410  0.00  0.00    +0.000 Cl
ATOM     20  C   UNL     1       5.456   5.644  18.096  0.00  0.00    +0.000 A 
ENDBRANCH  11  13
ENDBRANCH   8  11
ENDBRANCH   1   8
BRANCH   4  21
ATOM     21  O   UNL     1       0.140  10.334  19.208  0.00  0.00    +0.000 OA
BRANCH  21  22
ATOM     22  C   UNL     1       0.707  11.566  19.734  0.00  0.00    +0.000 C 
ATOM     23  C   UNL     1      -0.382  12.465  20.335  0.00  0.00    +0.000 C 
ATOM     24  C   UNL     1      -0.572  13.846  19.729  0.00  0.00    +0.000 C 
ATOM     25  N   UNL     1       0.701  14.406  19.273  0.00  0.00    +0.000 N 
ATOM     26  C   UNL     1       1.379  13.617  18.246  0.00  0.00    +0.000 C 
ATOM     27  C   UNL     1       1.664  12.194  18.716  0.00  0.00    +0.000 C 
BRANCH  25  28
ATOM     28  C   UNL     1       0.697  15.807  19.126  0.00  0.00    +0.000 A 
ATOM     29  C   UNL     1      -0.343  16.409  18.399  0.00  0.00    +0.000 A 
ATOM     30  C   UNL     1      -0.471  17.802  18.301  0.00  0.00    +0.000 A 
ATOM     31  C   UNL     1       0.447  18.631  18.927  0.00  0.00    +0.000 A 
ATOM     32  C   UNL     1       1.510  18.066  19.628  0.00  0.00    +0.000 A 
ATOM     33  C   UNL     1       1.634  16.670  19.723  0.00  0.00    +0.000 A 
ENDBRANCH  25  28
ENDBRANCH  21  22
ENDBRANCH   4  21
TORSDOF 6
ENDMDL
MODEL 9
REMARK VINA RESULT:      -7.8      3.326      3.806
REMARK  Name = 
REMARK  6 active torsions:
REMARK  status: ('A' for Active; 'I' for Inactive)
REMARK    1  A    between atoms: S_2  and  N_4
REMARK    2  A    between atoms: S_2  and  C_25
REMARK    3  A    between atoms: N_4  and  C_5
REMARK    4  A    between atoms: C_8  and  O_9
REMARK    5  A    between atoms: O_9  and  C_10
REMARK    6  A    between atoms: N_13  and  C_14
REMARK                            x       y       z     vdW  Elec       q    Type
REMARK                         _______ _______ _______ _____ _____    ______ ____
ROOT
ATOM      1  C   UNL     1       2.218   6.916  20.165  0.00  0.00    +0.000 A 
ATOM      2  C   UNL     1       1.292   7.416  21.063  0.00  0.00    +0.000 A 
ATOM      3  N   UNL     1       0.664   8.597  20.903  0.00  0.00    +0.000 NA
ATOM      4  C   UNL     1       0.953   9.329  19.802  0.00  0.00    +0.000 A 
ATOM      5  C   UNL     1       1.818   8.872  18.808  0.00  0.00    +0.000 A 
ATOM      6 CL   UNL     1       2.113   9.757  17.358  0.00  0.00    +0.000 Cl
ATOM      7  C   UNL     1       2.473   7.643  19.003  0.00  0.00    +0.000 A 
ENDROOT
BRANCH   1   8
ATOM      8  N   UNL     1       2.833   5.662  20.409  0.00  0.00    +0.000 N 
ATOM      9  H   UNL     1       3.480   5.544  21.186  0.00  0.00    +0.000 HD
BRANCH   8  11
ATOM     10  O   UNL     1       2.954   3.198  20.011  0.00  0.00    +0.000 OA
ATOM     11  S   UNL     1       2.800   4.429  19.268  0.00  0.00    +0.000 S 
ATOM     12  O   UNL     1       1.677   4.655  18.382  0.00  0.00    +0.000 OA
BRANCH  11  13
ATOM     13  C   UNL     1       4.298   4.633  18.299  0.00  0.00    +0.000 A 
ATOM     14  C   UNL     1       5.533   4.780  18.950  0.00  0.00    +0.000 A 
ATOM     15  C   UNL     1       6.717   4.774  18.208  0.00  0.00    +0.000 A 
ATOM     16  C   UNL     1       6.666   4.607  16.822  0.00  0.00    +0.000 A 
ATOM     17  F   UNL     1       7.813   4.579  16.136  0.00  0.00    +0.000 F 
ATOM     18  C   UNL     1       5.439   4.452  16.176  0.00  0.00    +0.000 A 
ATOM     19 CL   UNL     1       5.381   4.211  14.471  0.00  0.00    +0.000 Cl
ATOM     20  C   UNL     1       4.249   4.462  16.908  0.00  0.00    +0.000 A 
ENDBRANCH  11  13
ENDBRANCH   8  11
ENDBRANCH   1   8
BRANCH   4  21
ATOM     21  O   UNL     1       0.339  10.577  19.695  0.00  0.00    +0.000 OA
BRANCH  21  22
ATOM     22  C   UNL     1      -1.096  10.518  19.920  0.00  0.00    +0.000 C 
ATOM     23  C   UNL     1      -1.844  10.142  18.635  0.00  0.00    +0.000 C 
ATOM     24  C   UNL     1      -2.859  11.134  18.091  0.00  0.00    +0.000 C 
ATOM     25  N   UNL     1      -3.534  11.849  19.175  0.00  0.00    +0.000 N 
ATOM     26  C   UNL     1      -2.646  12.628  20.036  0.00  0.00    +0.000 C 
ATOM     27  C   UNL     1      -1.572  11.759  20.682  0.00  0.00    +0.000 C 
BRANCH  25  28
ATOM     28  C   UNL     1      -4.764  12.431  18.806  0.00  0.00    +0.000 A 
ATOM     29  C   UNL     1      -5.294  12.145  17.538  0.00  0.00    +0.000 A 
ATOM     30  C   UNL     1      -6.561  12.601  17.143  0.00  0.00    +0.000 A 
ATOM     31  C   UNL     1      -7.328  13.362  18.012  0.00  0.00    +0.000 A 
ATOM     32  C   UNL     1      -6.818  13.691  19.265  0.00  0.00    +0.000 A 
ATOM     33  C   UNL     1      -5.549  13.232  19.655  0.00  0.00    +0.000 A 
ENDBRANCH  25  28
ENDBRANCH  21  22
ENDBRANCH   4  21
TORSDOF 6
ENDMDL
