MODEL 1
REMARK VINA RESULT:      -7.9      0.000      0.000
REMARK  Name = 
REMARK  8 active torsions:
REMARK  status: ('A' for Active; 'I' for Inactive)
REMARK    1  A    between atoms: C_1  and  O_2
REMARK    2  A    between atoms: O_2  and  C_3
REMARK    3  A    between atoms: C_6  and  C_7
REMARK    4  A    between atoms: C_7  and  C_8
REMARK    5  A    between atoms: C_17  and  C_18
REMARK    6  A    between atoms: C_18  and  N_19
REMARK    7  A    between atoms: N_19  and  S_20
REMARK    8  A    between atoms: S_20  and  C_21
REMARK                            x       y       z     vdW  Elec       q    Type
REMARK                         _______ _______ _______ _____ _____    ______ ____
ROOT
ATOM      1  C   UNL     1       5.752   6.275  16.448  0.00  0.00    +0.000 C 
ATOM      2  O   UNL     1       5.441   7.450  16.236  0.00  0.00    +0.000 OA
ATOM      3  N   UNL     1       4.973   5.434  17.241  0.00  0.00    +0.000 N 
ATOM      4  C   UNL     1       3.655   5.924  17.606  0.00  0.00    +0.000 C 
ATOM      5  C   UNL     1       2.714   4.743  17.747  0.00  0.00    +0.000 C 
ATOM      6  C   UNL     1       3.161   3.823  18.903  0.00  0.00    +0.000 C 
ATOM      7  C   UNL     1       4.531   3.269  18.435  0.00  0.00    +0.000 C 
ATOM      8  C   UNL     1       5.539   4.377  18.093  0.00  0.00    +0.000 C 
ATOM      9  C   UNL     1       3.316   4.455  20.317  0.00  0.00    +0.000 C 
ATOM     10  C   UNL     1       1.984   4.866  20.982  0.00  0.00    +0.000 C 
ATOM     11  C   UNL     1       1.033   3.669  20.923  0.00  0.00    +0.000 C 
ATOM     12  C   UNL     1       0.961   3.038  19.538  0.00  0.00    +0.000 C 
ATOM     13  O   UNL     1       2.258   2.712  19.022  0.00  0.00    +0.000 OA
ENDROOT
BRANCH   1  14
ATOM     14  C   UNL     1       6.950   5.657  15.758  0.00  0.00    +0.000 C 
BRANCH  14  18
ATOM     15  C   UNL     1       5.969   3.323  12.260  0.00  0.00    +0.000 A 
ATOM     16  C   UNL     1       5.112   3.365  13.358  0.00  0.00    +0.000 A 
ATOM     17  C   UNL     1       5.437   4.126  14.480  0.00  0.00    +0.000 A 
ATOM     18  C   UNL     1       6.644   4.835  14.533  0.00  0.00    +0.000 A 
ATOM     19  C   UNL     1       7.492   4.805  13.419  0.00  0.00    +0.000 A 
ATOM     20  C   UNL     1       7.161   4.046  12.293  0.00  0.00    +0.000 A 
BRANCH  15  22
ATOM     21  C   UNL     1       6.214   1.268  11.118  0.00  0.00    +0.000 C 
ATOM     22  O   UNL     1       5.553   2.522  11.233  0.00  0.00    +0.000 OA
ENDBRANCH  15  22
ENDBRANCH  14  18
ENDBRANCH   1  14
BRANCH  10  23
ATOM     23  C   UNL     1       1.467   6.157  20.350  0.00  0.00    +0.000 C 
BRANCH  23  24
ATOM     24  N   UNL     1       2.089   7.381  20.840  0.00  0.00    +0.000 NA
ATOM     25  H   UNL     1       2.898   7.755  20.341  0.00  0.00    +0.000 HD
BRANCH  24  26
ATOM     26  S   UNL     1       1.004   8.586  21.343  0.00  0.00    +0.000 S 
ATOM     27  C   UNL     1       0.945   9.664  19.920  0.00  0.00    +0.000 C 
ATOM     28  O   UNL     1      -0.292   7.978  21.511  0.00  0.00    +0.000 OA
ATOM     29  O   UNL     1       1.670   9.291  22.419  0.00  0.00    +0.000 OA
ENDBRANCH  24  26
ENDBRANCH  23  24
ENDBRANCH  10  23
TORSDOF 6
ENDMDL
MODEL 2
REMARK VINA RESULT:      -7.7      3.222      8.261
REMARK  Name = 
REMARK  8 active torsions:
REMARK  status: ('A' for Active; 'I' for Inactive)
REMARK    1  A    between atoms: C_1  and  O_2
REMARK    2  A    between atoms: O_2  and  C_3
REMARK    3  A    between atoms: C_6  and  C_7
REMARK    4  A    between atoms: C_7  and  C_8
REMARK    5  A    between atoms: C_17  and  C_18
REMARK    6  A    between atoms: C_18  and  N_19
REMARK    7  A    between atoms: N_19  and  S_20
REMARK    8  A    between atoms: S_20  and  C_21
REMARK                            x       y       z     vdW  Elec       q    Type
REMARK                         _______ _______ _______ _____ _____    ______ ____
ROOT
ATOM      1  C   UNL     1       1.952   8.933  18.528  0.00  0.00    +0.000 C 
ATOM      2  O   UNL     1       2.424   9.458  17.516  0.00  0.00    +0.000 OA
ATOM      3  N   UNL     1       2.221   7.609  18.869  0.00  0.00    +0.000 N 
ATOM      4  C   UNL     1       3.273   6.946  18.119  0.00  0.00    +0.000 C 
ATOM      5  C   UNL     1       3.947   5.926  19.015  0.00  0.00    +0.000 C 
ATOM      6  C   UNL     1       2.954   4.817  19.425  0.00  0.00    +0.000 C 
ATOM      7  C   UNL     1       1.896   5.559  20.283  0.00  0.00    +0.000 C 
ATOM      8  C   UNL     1       1.246   6.737  19.542  0.00  0.00    +0.000 C 
ATOM      9  C   UNL     1       2.238   4.027  18.293  0.00  0.00    +0.000 C 
ATOM     10  C   UNL     1       3.161   3.086  17.488  0.00  0.00    +0.000 C 
ATOM     11  C   UNL     1       3.932   2.213  18.481  0.00  0.00    +0.000 C 
ATOM     12  C   UNL     1       4.562   3.018  19.611  0.00  0.00    +0.000 C 
ATOM     13  O   UNL     1       3.610   3.860  20.273  0.00  0.00    +0.000 OA
ENDROOT
BRANCH   1  14
ATOM     14  C   UNL     1       1.142   9.749  19.514  0.00  0.00    +0.000 C 
BRANCH  14  18
ATOM     15  C   UNL     1      -2.652  11.259  18.111  0.00  0.00    +0.000 A 
ATOM     16  C   UNL     1      -2.078  11.742  19.286  0.00  0.00    +0.000 A 
ATOM     17  C   UNL     1      -0.850  11.251  19.726  0.00  0.00    +0.000 A 
ATOM     18  C   UNL     1      -0.190  10.242  19.012  0.00  0.00    +0.000 A 
ATOM     19  C   UNL     1      -0.762   9.774  17.822  0.00  0.00    +0.000 A 
ATOM     20  C   UNL     1      -1.991  10.273  17.380  0.00  0.00    +0.000 A 
BRANCH  15  22
ATOM     21  C   UNL     1      -4.509  11.262  16.649  0.00  0.00    +0.000 C 
ATOM     22  O   UNL     1      -3.869  11.800  17.798  0.00  0.00    +0.000 OA
ENDBRANCH  15  22
ENDBRANCH  14  18
ENDBRANCH   1  14
BRANCH  10  23
ATOM     23  C   UNL     1       4.014   3.902  16.519  0.00  0.00    +0.000 C 
BRANCH  23  24
ATOM     24  N   UNL     1       5.441   3.604  16.545  0.00  0.00    +0.000 NA
ATOM     25  H   UNL     1       5.741   2.629  16.475  0.00  0.00    +0.000 HD
BRANCH  24  26
ATOM     26  S   UNL     1       6.413   4.663  15.643  0.00  0.00    +0.000 S 
ATOM     27  C   UNL     1       6.322   3.962  14.003  0.00  0.00    +0.000 C 
ATOM     28  O   UNL     1       5.770   5.954  15.626  0.00  0.00    +0.000 OA
ATOM     29  O   UNL     1       7.761   4.481  16.141  0.00  0.00    +0.000 OA
ENDBRANCH  24  26
ENDBRANCH  23  24
ENDBRANCH  10  23
TORSDOF 6
ENDMDL
MODEL 3
REMARK VINA RESULT:      -7.7      3.318      8.790
REMARK  Name = 
REMARK  8 active torsions:
REMARK  status: ('A' for Active; 'I' for Inactive)
REMARK    1  A    between atoms: C_1  and  O_2
REMARK    2  A    between atoms: O_2  and  C_3
REMARK    3  A    between atoms: C_6  and  C_7
REMARK    4  A    between atoms: C_7  and  C_8
REMARK    5  A    between atoms: C_17  and  C_18
REMARK    6  A    between atoms: C_18  and  N_19
REMARK    7  A    between atoms: N_19  and  S_20
REMARK    8  A    between atoms: S_20  and  C_21
REMARK                            x       y       z     vdW  Elec       q    Type
REMARK                         _______ _______ _______ _____ _____    ______ ____
ROOT
ATOM      1  C   UNL     1       1.604   7.941  20.293  0.00  0.00    +0.000 C 
ATOM      2  O   UNL     1       2.134   8.782  19.562  0.00  0.00    +0.000 OA
ATOM      3  N   UNL     1       1.903   6.584  20.197  0.00  0.00    +0.000 N 
ATOM      4  C   UNL     1       3.042   6.227  19.370  0.00  0.00    +0.000 C 
ATOM      5  C   UNL     1       3.686   4.975  19.935  0.00  0.00    +0.000 C 
ATOM      6  C   UNL     1       2.713   3.779  19.859  0.00  0.00    +0.000 C 
ATOM      7  C   UNL     1       1.555   4.173  20.811  0.00  0.00    +0.000 C 
ATOM      8  C   UNL     1       0.916   5.522  20.448  0.00  0.00    +0.000 C 
ATOM      9  C   UNL     1       2.130   3.403  18.466  0.00  0.00    +0.000 C 
ATOM     10  C   UNL     1       3.159   2.801  17.484  0.00  0.00    +0.000 C 
ATOM     11  C   UNL     1       3.884   1.658  18.197  0.00  0.00    +0.000 C 
ATOM     12  C   UNL     1       4.381   2.046  19.584  0.00  0.00    +0.000 C 
ATOM     13  O   UNL     1       3.340   2.603  20.397  0.00  0.00    +0.000 OA
ENDROOT
BRANCH   1  14
ATOM     14  C   UNL     1       0.678   8.367  21.414  0.00  0.00    +0.000 C 
BRANCH  14  18
ATOM     15  C   UNL     1      -1.398  12.097  20.770  0.00  0.00    +0.000 A 
ATOM     16  C   UNL     1      -1.195  11.199  19.723  0.00  0.00    +0.000 A 
ATOM     17  C   UNL     1      -0.528   9.995  19.945  0.00  0.00    +0.000 A 
ATOM     18  C   UNL     1      -0.024   9.684  21.214  0.00  0.00    +0.000 A 
ATOM     19  C   UNL     1      -0.248  10.581  22.266  0.00  0.00    +0.000 A 
ATOM     20  C   UNL     1      -0.922  11.785  22.043  0.00  0.00    +0.000 A 
BRANCH  15  22
ATOM     21  C   UNL     1      -3.321  13.451  21.008  0.00  0.00    +0.000 C 
ATOM     22  O   UNL     1      -2.041  13.253  20.423  0.00  0.00    +0.000 OA
ENDBRANCH  15  22
ENDBRANCH  14  18
ENDBRANCH   1  14
BRANCH  10  23
ATOM     23  C   UNL     1       4.051   3.908  16.926  0.00  0.00    +0.000 C 
BRANCH  23  24
ATOM     24  N   UNL     1       5.416   3.505  16.612  0.00  0.00    +0.000 NA
ATOM     25  H   UNL     1       5.611   3.099  15.695  0.00  0.00    +0.000 HD
BRANCH  24  26
ATOM     26  S   UNL     1       6.620   4.585  17.128  0.00  0.00    +0.000 S 
ATOM     27  C   UNL     1       5.857   6.174  16.839  0.00  0.00    +0.000 C 
ATOM     28  O   UNL     1       6.796   4.413  18.549  0.00  0.00    +0.000 OA
ATOM     29  O   UNL     1       7.715   4.431  16.192  0.00  0.00    +0.000 OA
ENDBRANCH  24  26
ENDBRANCH  23  24
ENDBRANCH  10  23
TORSDOF 6
ENDMDL
MODEL 4
REMARK VINA RESULT:      -7.6      2.944      8.830
REMARK  Name = 
REMARK  8 active torsions:
REMARK  status: ('A' for Active; 'I' for Inactive)
REMARK    1  A    between atoms: C_1  and  O_2
REMARK    2  A    between atoms: O_2  and  C_3
REMARK    3  A    between atoms: C_6  and  C_7
REMARK    4  A    between atoms: C_7  and  C_8
REMARK    5  A    between atoms: C_17  and  C_18
REMARK    6  A    between atoms: C_18  and  N_19
REMARK    7  A    between atoms: N_19  and  S_20
REMARK    8  A    between atoms: S_20  and  C_21
REMARK                            x       y       z     vdW  Elec       q    Type
REMARK                         _______ _______ _______ _____ _____    ______ ____
ROOT
ATOM      1  C   UNL     1       1.667   8.003  20.211  0.00  0.00    +0.000 C 
ATOM      2  O   UNL     1       2.127   8.799  19.387  0.00  0.00    +0.000 OA
ATOM      3  N   UNL     1       1.972   6.644  20.177  0.00  0.00    +0.000 N 
ATOM      4  C   UNL     1       3.045   6.242  19.284  0.00  0.00    +0.000 C 
ATOM      5  C   UNL     1       3.745   5.032  19.872  0.00  0.00    +0.000 C 
ATOM      6  C   UNL     1       2.783   3.828  19.951  0.00  0.00    +0.000 C 
ATOM      7  C   UNL     1       1.702   4.276  20.968  0.00  0.00    +0.000 C 
ATOM      8  C   UNL     1       1.021   5.595  20.574  0.00  0.00    +0.000 C 
ATOM      9  C   UNL     1       2.093   3.361  18.637  0.00  0.00    +0.000 C 
ATOM     10  C   UNL     1       3.045   2.703  17.615  0.00  0.00    +0.000 C 
ATOM     11  C   UNL     1       3.838   1.612  18.337  0.00  0.00    +0.000 C 
ATOM     12  C   UNL     1       4.441   2.091  19.652  0.00  0.00    +0.000 C 
ATOM     13  O   UNL     1       3.464   2.692  20.510  0.00  0.00    +0.000 OA
ENDROOT
BRANCH   1  14
ATOM     14  C   UNL     1       0.831   8.494  21.375  0.00  0.00    +0.000 C 
BRANCH  14  18
ATOM     15  C   UNL     1      -1.468  12.084  20.687  0.00  0.00    +0.000 A 
ATOM     16  C   UNL     1      -0.939  11.801  21.945  0.00  0.00    +0.000 A 
ATOM     17  C   UNL     1      -0.193  10.641  22.153  0.00  0.00    +0.000 A 
ATOM     18  C   UNL     1       0.008   9.728  21.111  0.00  0.00    +0.000 A 
ATOM     19  C   UNL     1      -0.510  10.026  19.844  0.00  0.00    +0.000 A 
ATOM     20  C   UNL     1      -1.252  11.192  19.636  0.00  0.00    +0.000 A 
BRANCH  15  22
ATOM     21  C   UNL     1      -3.610  13.069  20.525  0.00  0.00    +0.000 C 
ATOM     22  O   UNL     1      -2.201  13.236  20.614  0.00  0.00    +0.000 OA
ENDBRANCH  15  22
ENDBRANCH  14  18
ENDBRANCH   1  14
BRANCH  10  23
ATOM     23  C   UNL     1       3.878   3.777  16.917  0.00  0.00    +0.000 C 
BRANCH  23  24
ATOM     24  N   UNL     1       5.244   3.388  16.590  0.00  0.00    +0.000 NA
ATOM     25  H   UNL     1       5.409   2.463  16.188  0.00  0.00    +0.000 HD
BRANCH  24  26
ATOM     26  S   UNL     1       6.182   4.604  15.867  0.00  0.00    +0.000 S 
ATOM     27  C   UNL     1       6.317   4.030  14.181  0.00  0.00    +0.000 C 
ATOM     28  O   UNL     1       5.416   5.825  15.876  0.00  0.00    +0.000 OA
ATOM     29  O   UNL     1       7.490   4.511  16.484  0.00  0.00    +0.000 OA
ENDBRANCH  24  26
ENDBRANCH  23  24
ENDBRANCH  10  23
TORSDOF 6
ENDMDL
MODEL 5
REMARK VINA RESULT:      -7.6      0.900      1.023
REMARK  Name = 
REMARK  8 active torsions:
REMARK  status: ('A' for Active; 'I' for Inactive)
REMARK    1  A    between atoms: C_1  and  O_2
REMARK    2  A    between atoms: O_2  and  C_3
REMARK    3  A    between atoms: C_6  and  C_7
REMARK    4  A    between atoms: C_7  and  C_8
REMARK    5  A    between atoms: C_17  and  C_18
REMARK    6  A    between atoms: C_18  and  N_19
REMARK    7  A    between atoms: N_19  and  S_20
REMARK    8  A    between atoms: S_20  and  C_21
REMARK                            x       y       z     vdW  Elec       q    Type
REMARK                         _______ _______ _______ _____ _____    ______ ____
ROOT
ATOM      1  C   UNL     1       6.023   6.266  16.802  0.00  0.00    +0.000 C 
ATOM      2  O   UNL     1       5.826   7.481  16.701  0.00  0.00    +0.000 OA
ATOM      3  N   UNL     1       5.125   5.423  17.453  0.00  0.00    +0.000 N 
ATOM      4  C   UNL     1       3.832   5.990  17.794  0.00  0.00    +0.000 C 
ATOM      5  C   UNL     1       2.788   4.891  17.752  0.00  0.00    +0.000 C 
ATOM      6  C   UNL     1       3.079   3.820  18.825  0.00  0.00    +0.000 C 
ATOM      7  C   UNL     1       4.426   3.195  18.378  0.00  0.00    +0.000 C 
ATOM      8  C   UNL     1       5.543   4.237  18.216  0.00  0.00    +0.000 C 
ATOM      9  C   UNL     1       3.192   4.285  20.305  0.00  0.00    +0.000 C 
ATOM     10  C   UNL     1       1.859   4.744  20.934  0.00  0.00    +0.000 C 
ATOM     11  C   UNL     1       0.817   3.651  20.692  0.00  0.00    +0.000 C 
ATOM     12  C   UNL     1       0.784   3.176  19.244  0.00  0.00    +0.000 C 
ATOM     13  O   UNL     1       2.080   2.789  18.771  0.00  0.00    +0.000 OA
ENDROOT
BRANCH   1  14
ATOM     14  C   UNL     1       7.208   5.617  16.117  0.00  0.00    +0.000 C 
BRANCH  14  18
ATOM     15  C   UNL     1       6.235   3.593  12.429  0.00  0.00    +0.000 A 
ATOM     16  C   UNL     1       5.480   3.386  13.582  0.00  0.00    +0.000 A 
ATOM     17  C   UNL     1       5.801   4.049  14.766  0.00  0.00    +0.000 A 
ATOM     18  C   UNL     1       6.905   4.910  14.823  0.00  0.00    +0.000 A 
ATOM     19  C   UNL     1       7.648   5.129  13.656  0.00  0.00    +0.000 A 
ATOM     20  C   UNL     1       7.321   4.468  12.469  0.00  0.00    +0.000 A 
BRANCH  15  22
ATOM     21  C   UNL     1       4.437   2.785  11.126  0.00  0.00    +0.000 C 
ATOM     22  O   UNL     1       5.839   2.867  11.340  0.00  0.00    +0.000 OA
ENDBRANCH  15  22
ENDBRANCH  14  18
ENDBRANCH   1  14
BRANCH  10  23
ATOM     23  C   UNL     1       1.495   6.136  20.418  0.00  0.00    +0.000 C 
BRANCH  23  24
ATOM     24  N   UNL     1       1.731   7.227  21.355  0.00  0.00    +0.000 NA
ATOM     25  H   UNL     1       2.691   7.539  21.515  0.00  0.00    +0.000 HD
BRANCH  24  26
ATOM     26  S   UNL     1       0.623   8.509  21.258  0.00  0.00    +0.000 S 
ATOM     27  C   UNL     1       1.121   9.549  22.621  0.00  0.00    +0.000 C 
ATOM     28  O   UNL     1       0.867   9.218  20.026  0.00  0.00    +0.000 OA
ATOM     29  O   UNL     1      -0.671   7.937  21.573  0.00  0.00    +0.000 OA
ENDBRANCH  24  26
ENDBRANCH  23  24
ENDBRANCH  10  23
TORSDOF 6
ENDMDL
MODEL 6
REMARK VINA RESULT:      -7.5      3.170      8.710
REMARK  Name = 
REMARK  8 active torsions:
REMARK  status: ('A' for Active; 'I' for Inactive)
REMARK    1  A    between atoms: C_1  and  O_2
REMARK    2  A    between atoms: O_2  and  C_3
REMARK    3  A    between atoms: C_6  and  C_7
REMARK    4  A    between atoms: C_7  and  C_8
REMARK    5  A    between atoms: C_17  and  C_18
REMARK    6  A    between atoms: C_18  and  N_19
REMARK    7  A    between atoms: N_19  and  S_20
REMARK    8  A    between atoms: S_20  and  C_21
REMARK                            x       y       z     vdW  Elec       q    Type
REMARK                         _______ _______ _______ _____ _____    ______ ____
ROOT
ATOM      1  C   UNL     1       1.807   8.125  19.813  0.00  0.00    +0.000 C 
ATOM      2  O   UNL     1       2.292   8.838  18.929  0.00  0.00    +0.000 OA
ATOM      3  N   UNL     1       2.083   6.762  19.898  0.00  0.00    +0.000 N 
ATOM      4  C   UNL     1       3.155   6.263  19.054  0.00  0.00    +0.000 C 
ATOM      5  C   UNL     1       3.823   5.093  19.751  0.00  0.00    +0.000 C 
ATOM      6  C   UNL     1       2.834   3.921  19.921  0.00  0.00    +0.000 C 
ATOM      7  C   UNL     1       1.753   4.476  20.884  0.00  0.00    +0.000 C 
ATOM      8  C   UNL     1       1.105   5.771  20.371  0.00  0.00    +0.000 C 
ATOM      9  C   UNL     1       2.147   3.358  18.644  0.00  0.00    +0.000 C 
ATOM     10  C   UNL     1       3.094   2.596  17.692  0.00  0.00    +0.000 C 
ATOM     11  C   UNL     1       3.856   1.553  18.513  0.00  0.00    +0.000 C 
ATOM     12  C   UNL     1       4.457   2.130  19.789  0.00  0.00    +0.000 C 
ATOM     13  O   UNL     1       3.485   2.823  20.582  0.00  0.00    +0.000 OA
ENDROOT
BRANCH   1  14
ATOM     14  C   UNL     1       0.971   8.731  20.921  0.00  0.00    +0.000 C 
BRANCH  14  18
ATOM     15  C   UNL     1      -0.888  12.512  19.975  0.00  0.00    +0.000 A 
ATOM     16  C   UNL     1       0.142  12.433  20.911  0.00  0.00    +0.000 A 
ATOM     17  C   UNL     1       0.738  11.207  21.204  0.00  0.00    +0.000 A 
ATOM     18  C   UNL     1       0.290  10.032  20.586  0.00  0.00    +0.000 A 
ATOM     19  C   UNL     1      -0.732  10.120  19.632  0.00  0.00    +0.000 A 
ATOM     20  C   UNL     1      -1.324  11.351  19.336  0.00  0.00    +0.000 A 
BRANCH  15  22
ATOM     21  C   UNL     1      -2.085  14.322  20.911  0.00  0.00    +0.000 C 
ATOM     22  O   UNL     1      -1.409  13.763  19.793  0.00  0.00    +0.000 OA
ENDBRANCH  15  22
ENDBRANCH  14  18
ENDBRANCH   1  14
BRANCH  10  23
ATOM     23  C   UNL     1       3.957   3.589  16.915  0.00  0.00    +0.000 C 
BRANCH  23  24
ATOM     24  N   UNL     1       5.316   3.144  16.635  0.00  0.00    +0.000 NA
ATOM     25  H   UNL     1       5.461   2.192  16.290  0.00  0.00    +0.000 HD
BRANCH  24  26
ATOM     26  S   UNL     1       6.300   4.288  15.857  0.00  0.00    +0.000 S 
ATOM     27  C   UNL     1       5.303   5.767  15.939  0.00  0.00    +0.000 C 
ATOM     28  O   UNL     1       7.479   4.485  16.664  0.00  0.00    +0.000 OA
ATOM     29  O   UNL     1       6.376   3.867  14.473  0.00  0.00    +0.000 OA
ENDBRANCH  24  26
ENDBRANCH  23  24
ENDBRANCH  10  23
TORSDOF 6
ENDMDL
MODEL 7
REMARK VINA RESULT:      -7.5      3.229      8.239
REMARK  Name = 
REMARK  8 active torsions:
REMARK  status: ('A' for Active; 'I' for Inactive)
REMARK    1  A    between atoms: C_1  and  O_2
REMARK    2  A    between atoms: O_2  and  C_3
REMARK    3  A    between atoms: C_6  and  C_7
REMARK    4  A    between atoms: C_7  and  C_8
REMARK    5  A    between atoms: C_17  and  C_18
REMARK    6  A    between atoms: C_18  and  N_19
REMARK    7  A    between atoms: N_19  and  S_20
REMARK    8  A    between atoms: S_20  and  C_21
REMARK                            x       y       z     vdW  Elec       q    Type
REMARK                         _______ _______ _______ _____ _____    ______ ____
ROOT
ATOM      1  C   UNL     1       1.957   8.633  18.956  0.00  0.00    +0.000 C 
ATOM      2  O   UNL     1       2.470   9.193  17.983  0.00  0.00    +0.000 OA
ATOM      3  N   UNL     1       2.188   7.289  19.242  0.00  0.00    +0.000 N 
ATOM      4  C   UNL     1       3.248   6.638  18.492  0.00  0.00    +0.000 C 
ATOM      5  C   UNL     1       3.874   5.563  19.359  0.00  0.00    +0.000 C 
ATOM      6  C   UNL     1       2.846   4.459  19.689  0.00  0.00    +0.000 C 
ATOM      7  C   UNL     1       1.778   5.184  20.549  0.00  0.00    +0.000 C 
ATOM      8  C   UNL     1       1.176   6.409  19.846  0.00  0.00    +0.000 C 
ATOM      9  C   UNL     1       2.148   3.738  18.500  0.00  0.00    +0.000 C 
ATOM     10  C   UNL     1       3.075   2.815  17.680  0.00  0.00    +0.000 C 
ATOM     11  C   UNL     1       3.798   1.881  18.652  0.00  0.00    +0.000 C 
ATOM     12  C   UNL     1       4.410   2.619  19.836  0.00  0.00    +0.000 C 
ATOM     13  O   UNL     1       3.457   3.450  20.509  0.00  0.00    +0.000 OA
ENDROOT
BRANCH   1  14
ATOM     14  C   UNL     1       1.135   9.420  19.955  0.00  0.00    +0.000 C 
BRANCH  14  18
ATOM     15  C   UNL     1      -2.367  11.334  18.306  0.00  0.00    +0.000 A 
ATOM     16  C   UNL     1      -1.726  10.300  17.625  0.00  0.00    +0.000 A 
ATOM     17  C   UNL     1      -0.599   9.687  18.170  0.00  0.00    +0.000 A 
ATOM     18  C   UNL     1      -0.076  10.120  19.395  0.00  0.00    +0.000 A 
ATOM     19  C   UNL     1      -0.735  11.145  20.084  0.00  0.00    +0.000 A 
ATOM     20  C   UNL     1      -1.868  11.755  19.538  0.00  0.00    +0.000 A 
BRANCH  15  22
ATOM     21  C   UNL     1      -4.413  10.945  17.188  0.00  0.00    +0.000 C 
ATOM     22  O   UNL     1      -3.444  11.873  17.658  0.00  0.00    +0.000 OA
ENDBRANCH  15  22
ENDBRANCH  14  18
ENDBRANCH   1  14
BRANCH  10  23
ATOM     23  C   UNL     1       3.973   3.656  16.774  0.00  0.00    +0.000 C 
BRANCH  23  24
ATOM     24  N   UNL     1       5.403   3.408  16.916  0.00  0.00    +0.000 NA
ATOM     25  H   UNL     1       5.722   2.451  17.078  0.00  0.00    +0.000 HD
BRANCH  24  26
ATOM     26  S   UNL     1       6.390   4.263  15.831  0.00  0.00    +0.000 S 
ATOM     27  C   UNL     1       5.642   5.885  15.831  0.00  0.00    +0.000 C 
ATOM     28  O   UNL     1       7.706   4.365  16.411  0.00  0.00    +0.000 OA
ATOM     29  O   UNL     1       6.165   3.659  14.534  0.00  0.00    +0.000 OA
ENDBRANCH  24  26
ENDBRANCH  23  24
ENDBRANCH  10  23
TORSDOF 6
ENDMDL
MODEL 8
REMARK VINA RESULT:      -7.5      2.922      8.555
REMARK  Name = 
REMARK  8 active torsions:
REMARK  status: ('A' for Active; 'I' for Inactive)
REMARK    1  A    between atoms: C_1  and  O_2
REMARK    2  A    between atoms: O_2  and  C_3
REMARK    3  A    between atoms: C_6  and  C_7
REMARK    4  A    between atoms: C_7  and  C_8
REMARK    5  A    between atoms: C_17  and  C_18
REMARK    6  A    between atoms: C_18  and  N_19
REMARK    7  A    between atoms: N_19  and  S_20
REMARK    8  A    between atoms: S_20  and  C_21
REMARK                            x       y       z     vdW  Elec       q    Type
REMARK                         _______ _______ _______ _____ _____    ______ ____
ROOT
ATOM      1  C   UNL     1       1.777   8.142  19.736  0.00  0.00    +0.000 C 
ATOM      2  O   UNL     1       2.216   8.832  18.812  0.00  0.00    +0.000 OA
ATOM      3  N   UNL     1       2.067   6.784  19.848  0.00  0.00    +0.000 N 
ATOM      4  C   UNL     1       3.103   6.267  18.971  0.00  0.00    +0.000 C 
ATOM      5  C   UNL     1       3.812   5.123  19.669  0.00  0.00    +0.000 C 
ATOM      6  C   UNL     1       2.841   3.949  19.918  0.00  0.00    +0.000 C 
ATOM      7  C   UNL     1       1.801   4.525  20.913  0.00  0.00    +0.000 C 
ATOM      8  C   UNL     1       1.120   5.800  20.394  0.00  0.00    +0.000 C 
ATOM      9  C   UNL     1       2.100   3.345  18.690  0.00  0.00    +0.000 C 
ATOM     10  C   UNL     1       3.009   2.562  17.718  0.00  0.00    +0.000 C 
ATOM     11  C   UNL     1       3.816   1.549  18.533  0.00  0.00    +0.000 C 
ATOM     12  C   UNL     1       4.470   2.166  19.763  0.00  0.00    +0.000 C 
ATOM     13  O   UNL     1       3.530   2.875  20.579  0.00  0.00    +0.000 OA
ENDROOT
BRANCH   1  14
ATOM     14  C   UNL     1       0.988   8.774  20.864  0.00  0.00    +0.000 C 
BRANCH  14  18
ATOM     15  C   UNL     1      -0.631  12.701  20.084  0.00  0.00    +0.000 A 
ATOM     16  C   UNL     1      -1.221  11.560  19.541  0.00  0.00    +0.000 A 
ATOM     17  C   UNL     1      -0.692  10.297  19.804  0.00  0.00    +0.000 A 
ATOM     18  C   UNL     1       0.458  10.157  20.592  0.00  0.00    +0.000 A 
ATOM     19  C   UNL     1       1.035  11.305  21.151  0.00  0.00    +0.000 A 
ATOM     20  C   UNL     1       0.500  12.569  20.890  0.00  0.00    +0.000 A 
BRANCH  15  22
ATOM     21  C   UNL     1      -0.380  14.835  19.100  0.00  0.00    +0.000 C 
ATOM     22  O   UNL     1      -1.223  13.881  19.732  0.00  0.00    +0.000 OA
ENDBRANCH  15  22
ENDBRANCH  14  18
ENDBRANCH   1  14
BRANCH  10  23
ATOM     23  C   UNL     1       3.827   3.538  16.874  0.00  0.00    +0.000 C 
BRANCH  23  24
ATOM     24  N   UNL     1       5.257   3.260  16.816  0.00  0.00    +0.000 NA
ATOM     25  H   UNL     1       5.566   2.329  16.528  0.00  0.00    +0.000 HD
BRANCH  24  26
ATOM     26  S   UNL     1       6.204   4.507  16.159  0.00  0.00    +0.000 S 
ATOM     27  C   UNL     1       6.332   4.026  14.444  0.00  0.00    +0.000 C 
ATOM     28  O   UNL     1       5.446   5.731  16.237  0.00  0.00    +0.000 OA
ATOM     29  O   UNL     1       7.511   4.370  16.768  0.00  0.00    +0.000 OA
ENDBRANCH  24  26
ENDBRANCH  23  24
ENDBRANCH  10  23
TORSDOF 6
ENDMDL
MODEL 9
REMARK VINA RESULT:      -7.5      3.221      8.729
REMARK  Name = 
REMARK  8 active torsions:
REMARK  status: ('A' for Active; 'I' for Inactive)
REMARK    1  A    between atoms: C_1  and  O_2
REMARK    2  A    between atoms: O_2  and  C_3
REMARK    3  A    between atoms: C_6  and  C_7
REMARK    4  A    between atoms: C_7  and  C_8
REMARK    5  A    between atoms: C_17  and  C_18
REMARK    6  A    between atoms: C_18  and  N_19
REMARK    7  A    between atoms: N_19  and  S_20
REMARK    8  A    between atoms: S_20  and  C_21
REMARK                            x       y       z     vdW  Elec       q    Type
REMARK                         _______ _______ _______ _____ _____    ______ ____
ROOT
ATOM      1  C   UNL     1       1.776   7.916  20.208  0.00  0.00    +0.000 C 
ATOM      2  O   UNL     1       2.186   8.675  19.325  0.00  0.00    +0.000 OA
ATOM      3  N   UNL     1       2.055   6.551  20.199  0.00  0.00    +0.000 N 
ATOM      4  C   UNL     1       3.051   6.098  19.244  0.00  0.00    +0.000 C 
ATOM      5  C   UNL     1       3.774   4.897  19.821  0.00  0.00    +0.000 C 
ATOM      6  C   UNL     1       2.801   3.714  20.013  0.00  0.00    +0.000 C 
ATOM      7  C   UNL     1       1.806   4.217  21.091  0.00  0.00    +0.000 C 
ATOM      8  C   UNL     1       1.119   5.534  20.702  0.00  0.00    +0.000 C 
ATOM      9  C   UNL     1       2.007   3.216  18.771  0.00  0.00    +0.000 C 
ATOM     10  C   UNL     1       2.869   2.506  17.705  0.00  0.00    +0.000 C 
ATOM     11  C   UNL     1       3.696   1.425  18.404  0.00  0.00    +0.000 C 
ATOM     12  C   UNL     1       4.404   1.937  19.653  0.00  0.00    +0.000 C 
ATOM     13  O   UNL     1       3.503   2.585  20.559  0.00  0.00    +0.000 OA
ENDROOT
BRANCH   1  14
ATOM     14  C   UNL     1       1.037   8.462  21.413  0.00  0.00    +0.000 C 
BRANCH  14  18
ATOM     15  C   UNL     1      -1.395  11.946  20.642  0.00  0.00    +0.000 A 
ATOM     16  C   UNL     1      -1.200  10.975  19.661  0.00  0.00    +0.000 A 
ATOM     17  C   UNL     1      -0.417   9.852  19.923  0.00  0.00    +0.000 A 
ATOM     18  C   UNL     1       0.211   9.697  21.166  0.00  0.00    +0.000 A 
ATOM     19  C   UNL     1      -0.003  10.665  22.154  0.00  0.00    +0.000 A 
ATOM     20  C   UNL     1      -0.794  11.788  21.891  0.00  0.00    +0.000 A 
BRANCH  15  22
ATOM     21  C   UNL     1      -3.566  12.805  20.274  0.00  0.00    +0.000 C 
ATOM     22  O   UNL     1      -2.160  13.012  20.257  0.00  0.00    +0.000 OA
ENDBRANCH  15  22
ENDBRANCH  14  18
ENDBRANCH   1  14
BRANCH  10  23
ATOM     23  C   UNL     1       3.665   3.540  16.909  0.00  0.00    +0.000 C 
BRANCH  23  24
ATOM     24  N   UNL     1       5.081   3.239  16.743  0.00  0.00    +0.000 NA
ATOM     25  H   UNL     1       5.354   2.294  16.466  0.00  0.00    +0.000 HD
BRANCH  24  26
ATOM     26  S   UNL     1       5.984   4.446  15.962  0.00  0.00    +0.000 S 
ATOM     27  C   UNL     1       7.375   4.655  17.063  0.00  0.00    +0.000 C 
ATOM     28  O   UNL     1       6.464   3.908  14.714  0.00  0.00    +0.000 OA
ATOM     29  O   UNL     1       5.173   5.646  16.023  0.00  0.00    +0.000 OA
ENDBRANCH  24  26
ENDBRANCH  23  24
ENDBRANCH  10  23
TORSDOF 6
ENDMDL
