MODEL 1
REMARK VINA RESULT:      -7.6      0.000      0.000
REMARK  Name = 
REMARK  8 active torsions:
REMARK  status: ('A' for Active; 'I' for Inactive)
REMARK    1  A    between atoms: C_1  and  C_2
REMARK    2  A    between atoms: C_2  and  C_3
REMARK    3  A    between atoms: C_6  and  C_7
REMARK    4  A    between atoms: C_7  and  C_8
REMARK    5  A    between atoms: C_8  and  N_9
REMARK    6  A    between atoms: C_13  and  C_14
REMARK    7  A    between atoms: C_15  and  C_16
REMARK    8  A    between atoms: N_18  and  O_19
REMARK                            x       y       z     vdW  Elec       q    Type
REMARK                         _______ _______ _______ _____ _____    ______ ____
ROOT
ATOM      1  N   UNL     1       5.007   5.724  17.681  0.00  0.00    +0.000 N 
ATOM      2  C   UNL     1       6.268   6.265  17.859  0.00  0.00    +0.000 A 
ATOM      3  C   UNL     1       7.302   5.878  17.106  0.00  0.00    +0.000 A 
ATOM      4  C   UNL     1       7.103   4.939  16.029  0.00  0.00    +0.000 A 
ATOM      5  C   UNL     1       5.900   4.389  15.792  0.00  0.00    +0.000 A 
ATOM      6  C   UNL     1       4.779   4.686  16.772  0.00  0.00    +0.000 A 
ATOM      7  O   UNL     1       3.729   4.043  16.738  0.00  0.00    +0.000 OA
ENDROOT
BRANCH   5   8
ATOM      8  C   UNL     1       5.685   3.544  14.620  0.00  0.00    +0.000 C 
ATOM      9  C   UNL     1       5.863   3.970  13.359  0.00  0.00    +0.000 C 
BRANCH   9  10
ATOM     10  C   UNL     1       5.689   3.079  12.193  0.00  0.00    +0.000 C 
ATOM     11  O   UNL     1       4.686   3.058  11.494  0.00  0.00    +0.000 OA
ATOM     12  N   UNL     1       6.774   2.265  11.980  0.00  0.00    +0.000 N 
ATOM     13  H   UNL     1       7.643   2.296  12.501  0.00  0.00    +0.000 HD
BRANCH  12  14
ATOM     14  O   UNL     1       6.713   1.392  10.876  0.00  0.00    +0.000 OA
ATOM     15  H   UNL     1       5.757   1.179  10.829  0.00  0.00    +0.000 HD
ENDBRANCH  12  14
ENDBRANCH   9  10
ENDBRANCH   5   8
BRANCH   1  16
ATOM     16  C   UNL     1       3.908   6.142  18.568  0.00  0.00    +0.000 C 
BRANCH  16  17
ATOM     17  C   UNL     1       2.948   7.159  17.923  0.00  0.00    +0.000 C 
BRANCH  17  21
ATOM     18  C   UNL     1       0.576   9.336  20.832  0.00  0.00    +0.000 A 
ATOM     19  C   UNL     1       1.191   8.127  21.173  0.00  0.00    +0.000 A 
ATOM     20  C   UNL     1       1.961   7.431  20.236  0.00  0.00    +0.000 A 
ATOM     21  C   UNL     1       2.137   7.932  18.940  0.00  0.00    +0.000 A 
ATOM     22  C   UNL     1       1.556   9.164  18.613  0.00  0.00    +0.000 A 
ATOM     23  C   UNL     1       0.784   9.859  19.550  0.00  0.00    +0.000 A 
BRANCH  18  25
ATOM     24  C   UNL     1      -0.094   9.567  23.249  0.00  0.00    +0.000 C 
ATOM     25  C   UNL     1      -0.291  10.065  21.827  0.00  0.00    +0.000 C 
ENDBRANCH  18  25
ENDBRANCH  17  21
ENDBRANCH  16  17
ENDBRANCH   1  16
TORSDOF 7
ENDMDL
MODEL 2
REMARK VINA RESULT:      -7.6      2.284      3.182
REMARK  Name = 
REMARK  8 active torsions:
REMARK  status: ('A' for Active; 'I' for Inactive)
REMARK    1  A    between atoms: C_1  and  C_2
REMARK    2  A    between atoms: C_2  and  C_3
REMARK    3  A    between atoms: C_6  and  C_7
REMARK    4  A    between atoms: C_7  and  C_8
REMARK    5  A    between atoms: C_8  and  N_9
REMARK    6  A    between atoms: C_13  and  C_14
REMARK    7  A    between atoms: C_15  and  C_16
REMARK    8  A    between atoms: N_18  and  O_19
REMARK                            x       y       z     vdW  Elec       q    Type
REMARK                         _______ _______ _______ _____ _____    ______ ____
ROOT
ATOM      1  N   UNL     1       5.513   6.595  17.413  0.00  0.00    +0.000 N 
ATOM      2  C   UNL     1       6.048   5.917  18.494  0.00  0.00    +0.000 A 
ATOM      3  C   UNL     1       6.755   4.795  18.329  0.00  0.00    +0.000 A 
ATOM      4  C   UNL     1       7.046   4.309  17.003  0.00  0.00    +0.000 A 
ATOM      5  C   UNL     1       6.570   4.929  15.909  0.00  0.00    +0.000 A 
ATOM      6  C   UNL     1       5.610   6.087  16.113  0.00  0.00    +0.000 A 
ATOM      7  O   UNL     1       4.971   6.548  15.165  0.00  0.00    +0.000 OA
ENDROOT
BRANCH   5   8
ATOM      8  C   UNL     1       6.980   4.504  14.574  0.00  0.00    +0.000 C 
ATOM      9  C   UNL     1       6.173   3.845  13.727  0.00  0.00    +0.000 C 
BRANCH   9  10
ATOM     10  C   UNL     1       6.596   3.474  12.361  0.00  0.00    +0.000 C 
ATOM     11  O   UNL     1       7.206   4.220  11.609  0.00  0.00    +0.000 OA
ATOM     12  N   UNL     1       6.222   2.198  12.018  0.00  0.00    +0.000 N 
ATOM     13  H   UNL     1       5.769   1.532  12.634  0.00  0.00    +0.000 HD
BRANCH  12  14
ATOM     14  O   UNL     1       6.599   1.742  10.739  0.00  0.00    +0.000 OA
ATOM     15  H   UNL     1       7.174   0.976  10.950  0.00  0.00    +0.000 HD
ENDBRANCH  12  14
ENDBRANCH   9  10
ENDBRANCH   5   8
BRANCH   1  16
ATOM     16  C   UNL     1       4.697   7.798  17.644  0.00  0.00    +0.000 C 
BRANCH  16  17
ATOM     17  C   UNL     1       3.186   7.559  17.472  0.00  0.00    +0.000 C 
BRANCH  17  21
ATOM     18  C   UNL     1       1.617   4.399  19.998  0.00  0.00    +0.000 A 
ATOM     19  C   UNL     1       1.878   4.167  18.644  0.00  0.00    +0.000 A 
ATOM     20  C   UNL     1       2.391   5.185  17.834  0.00  0.00    +0.000 A 
ATOM     21  C   UNL     1       2.657   6.455  18.362  0.00  0.00    +0.000 A 
ATOM     22  C   UNL     1       2.436   6.673  19.727  0.00  0.00    +0.000 A 
ATOM     23  C   UNL     1       1.920   5.655  20.537  0.00  0.00    +0.000 A 
BRANCH  18  25
ATOM     24  C   UNL     1       2.080   2.508  21.596  0.00  0.00    +0.000 C 
ATOM     25  C   UNL     1       1.022   3.317  20.863  0.00  0.00    +0.000 C 
ENDBRANCH  18  25
ENDBRANCH  17  21
ENDBRANCH  16  17
ENDBRANCH   1  16
TORSDOF 7
ENDMDL
MODEL 3
REMARK VINA RESULT:      -7.5      3.889      5.775
REMARK  Name = 
REMARK  8 active torsions:
REMARK  status: ('A' for Active; 'I' for Inactive)
REMARK    1  A    between atoms: C_1  and  C_2
REMARK    2  A    between atoms: C_2  and  C_3
REMARK    3  A    between atoms: C_6  and  C_7
REMARK    4  A    between atoms: C_7  and  C_8
REMARK    5  A    between atoms: C_8  and  N_9
REMARK    6  A    between atoms: C_13  and  C_14
REMARK    7  A    between atoms: C_15  and  C_16
REMARK    8  A    between atoms: N_18  and  O_19
REMARK                            x       y       z     vdW  Elec       q    Type
REMARK                         _______ _______ _______ _____ _____    ______ ____
ROOT
ATOM      1  N   UNL     1       5.645   5.826  18.003  0.00  0.00    +0.000 N 
ATOM      2  C   UNL     1       6.276   5.130  19.019  0.00  0.00    +0.000 A 
ATOM      3  C   UNL     1       7.482   5.494  19.465  0.00  0.00    +0.000 A 
ATOM      4  C   UNL     1       8.120   6.678  18.946  0.00  0.00    +0.000 A 
ATOM      5  C   UNL     1       7.555   7.409  17.970  0.00  0.00    +0.000 A 
ATOM      6  C   UNL     1       6.280   6.880  17.337  0.00  0.00    +0.000 A 
ATOM      7  O   UNL     1       5.840   7.379  16.301  0.00  0.00    +0.000 OA
ENDROOT
BRANCH   5   8
ATOM      8  C   UNL     1       8.147   8.676  17.548  0.00  0.00    +0.000 C 
ATOM      9  C   UNL     1       8.587   9.608  18.408  0.00  0.00    +0.000 C 
BRANCH   9  10
ATOM     10  C   UNL     1       9.231  10.859  17.954  0.00  0.00    +0.000 C 
ATOM     11  O   UNL     1      10.439  10.995  17.820  0.00  0.00    +0.000 OA
ATOM     12  N   UNL     1       8.326  11.862  17.707  0.00  0.00    +0.000 N 
ATOM     13  H   UNL     1       7.317  11.768  17.751  0.00  0.00    +0.000 HD
BRANCH  12  14
ATOM     14  O   UNL     1       8.841  13.091  17.248  0.00  0.00    +0.000 OA
ATOM     15  H   UNL     1       8.950  12.927  16.288  0.00  0.00    +0.000 HD
ENDBRANCH  12  14
ENDBRANCH   9  10
ENDBRANCH   5   8
BRANCH   1  16
ATOM     16  C   UNL     1       4.340   5.360  17.507  0.00  0.00    +0.000 C 
BRANCH  16  17
ATOM     17  C   UNL     1       3.255   5.294  18.597  0.00  0.00    +0.000 C 
BRANCH  17  21
ATOM     18  C   UNL     1       1.318   9.104  19.348  0.00  0.00    +0.000 A 
ATOM     19  C   UNL     1       1.514   8.187  20.385  0.00  0.00    +0.000 A 
ATOM     20  C   UNL     1       2.146   6.962  20.142  0.00  0.00    +0.000 A 
ATOM     21  C   UNL     1       2.597   6.632  18.858  0.00  0.00    +0.000 A 
ATOM     22  C   UNL     1       2.439   7.570  17.830  0.00  0.00    +0.000 A 
ATOM     23  C   UNL     1       1.804   8.793  18.073  0.00  0.00    +0.000 A 
BRANCH  18  25
ATOM     24  C   UNL     1      -0.557  10.628  18.634  0.00  0.00    +0.000 C 
ATOM     25  C   UNL     1       0.598  10.405  19.598  0.00  0.00    +0.000 C 
ENDBRANCH  18  25
ENDBRANCH  17  21
ENDBRANCH  16  17
ENDBRANCH   1  16
TORSDOF 7
ENDMDL
MODEL 4
REMARK VINA RESULT:      -7.5      3.971      5.947
REMARK  Name = 
REMARK  8 active torsions:
REMARK  status: ('A' for Active; 'I' for Inactive)
REMARK    1  A    between atoms: C_1  and  C_2
REMARK    2  A    between atoms: C_2  and  C_3
REMARK    3  A    between atoms: C_6  and  C_7
REMARK    4  A    between atoms: C_7  and  C_8
REMARK    5  A    between atoms: C_8  and  N_9
REMARK    6  A    between atoms: C_13  and  C_14
REMARK    7  A    between atoms: C_15  and  C_16
REMARK    8  A    between atoms: N_18  and  O_19
REMARK                            x       y       z     vdW  Elec       q    Type
REMARK                         _______ _______ _______ _____ _____    ______ ____
ROOT
ATOM      1  N   UNL     1       5.876   5.536  17.561  0.00  0.00    +0.000 N 
ATOM      2  C   UNL     1       6.578   4.796  18.495  0.00  0.00    +0.000 A 
ATOM      3  C   UNL     1       7.687   5.273  19.068  0.00  0.00    +0.000 A 
ATOM      4  C   UNL     1       8.132   6.614  18.780  0.00  0.00    +0.000 A 
ATOM      5  C   UNL     1       7.487   7.393  17.895  0.00  0.00    +0.000 A 
ATOM      6  C   UNL     1       6.345   6.774  17.108  0.00  0.00    +0.000 A 
ATOM      7  O   UNL     1       5.865   7.356  16.134  0.00  0.00    +0.000 OA
ENDROOT
BRANCH   5   8
ATOM      8  C   UNL     1       7.869   8.790  17.712  0.00  0.00    +0.000 C 
ATOM      9  C   UNL     1       8.716   9.438  18.528  0.00  0.00    +0.000 C 
BRANCH   9  10
ATOM     10  C   UNL     1       9.127  10.837  18.290  0.00  0.00    +0.000 C 
ATOM     11  O   UNL     1       8.501  11.622  17.591  0.00  0.00    +0.000 OA
ATOM     12  N   UNL     1      10.296  11.163  18.930  0.00  0.00    +0.000 N 
ATOM     13  H   UNL     1      10.809  10.558  19.562  0.00  0.00    +0.000 HD
BRANCH  12  14
ATOM     14  O   UNL     1      10.762  12.485  18.782  0.00  0.00    +0.000 OA
ATOM     15  H   UNL     1      10.260  12.963  19.475  0.00  0.00    +0.000 HD
ENDBRANCH  12  14
ENDBRANCH   9  10
ENDBRANCH   5   8
BRANCH   1  16
ATOM     16  C   UNL     1       4.689   4.950  16.917  0.00  0.00    +0.000 C 
BRANCH  16  17
ATOM     17  C   UNL     1       3.609   4.493  17.915  0.00  0.00    +0.000 C 
BRANCH  17  21
ATOM     18  C   UNL     1       1.694   7.826  19.928  0.00  0.00    +0.000 A 
ATOM     19  C   UNL     1       2.228   7.979  18.644  0.00  0.00    +0.000 A 
ATOM     20  C   UNL     1       2.838   6.901  17.994  0.00  0.00    +0.000 A 
ATOM     21  C   UNL     1       2.923   5.647  18.613  0.00  0.00    +0.000 A 
ATOM     22  C   UNL     1       2.349   5.485  19.881  0.00  0.00    +0.000 A 
ATOM     23  C   UNL     1       1.742   6.564  20.531  0.00  0.00    +0.000 A 
BRANCH  18  25
ATOM     24  C   UNL     1       1.328   8.961  22.147  0.00  0.00    +0.000 C 
ATOM     25  C   UNL     1       1.076   8.998  20.648  0.00  0.00    +0.000 C 
ENDBRANCH  18  25
ENDBRANCH  17  21
ENDBRANCH  16  17
ENDBRANCH   1  16
TORSDOF 7
ENDMDL
MODEL 5
REMARK VINA RESULT:      -7.5      2.747      4.441
REMARK  Name = 
REMARK  8 active torsions:
REMARK  status: ('A' for Active; 'I' for Inactive)
REMARK    1  A    between atoms: C_1  and  C_2
REMARK    2  A    between atoms: C_2  and  C_3
REMARK    3  A    between atoms: C_6  and  C_7
REMARK    4  A    between atoms: C_7  and  C_8
REMARK    5  A    between atoms: C_8  and  N_9
REMARK    6  A    between atoms: C_13  and  C_14
REMARK    7  A    between atoms: C_15  and  C_16
REMARK    8  A    between atoms: N_18  and  O_19
REMARK                            x       y       z     vdW  Elec       q    Type
REMARK                         _______ _______ _______ _____ _____    ______ ____
ROOT
ATOM      1  N   UNL     1       2.242   6.782  19.809  0.00  0.00    +0.000 N 
ATOM      2  C   UNL     1       1.847   5.689  20.559  0.00  0.00    +0.000 A 
ATOM      3  C   UNL     1       2.282   4.458  20.275  0.00  0.00    +0.000 A 
ATOM      4  C   UNL     1       3.245   4.254  19.222  0.00  0.00    +0.000 A 
ATOM      5  C   UNL     1       3.683   5.275  18.465  0.00  0.00    +0.000 A 
ATOM      6  C   UNL     1       3.038   6.635  18.668  0.00  0.00    +0.000 A 
ATOM      7  O   UNL     1       3.231   7.548  17.864  0.00  0.00    +0.000 OA
ENDROOT
BRANCH   5   8
ATOM      8  C   UNL     1       4.753   5.076  17.492  0.00  0.00    +0.000 C 
ATOM      9  C   UNL     1       6.056   5.216  17.787  0.00  0.00    +0.000 C 
BRANCH   9  10
ATOM     10  C   UNL     1       7.122   4.958  16.797  0.00  0.00    +0.000 C 
ATOM     11  O   UNL     1       8.063   4.202  16.990  0.00  0.00    +0.000 OA
ATOM     12  N   UNL     1       6.950   5.667  15.635  0.00  0.00    +0.000 N 
ATOM     13  H   UNL     1       6.153   6.257  15.418  0.00  0.00    +0.000 HD
BRANCH  12  14
ATOM     14  O   UNL     1       7.905   5.473  14.617  0.00  0.00    +0.000 OA
ATOM     15  H   UNL     1       7.614   6.110  13.932  0.00  0.00    +0.000 HD
ENDBRANCH  12  14
ENDBRANCH   9  10
ENDBRANCH   5   8
BRANCH   1  16
ATOM     16  C   UNL     1       1.697   8.113  20.125  0.00  0.00    +0.000 C 
BRANCH  16  17
ATOM     17  C   UNL     1       1.225   8.255  21.583  0.00  0.00    +0.000 C 
BRANCH  17  21
ATOM     18  C   UNL     1      -0.874  11.976  22.340  0.00  0.00    +0.000 A 
ATOM     19  C   UNL     1       0.072  11.886  21.315  0.00  0.00    +0.000 A 
ATOM     20  C   UNL     1       0.742  10.684  21.068  0.00  0.00    +0.000 A 
ATOM     21  C   UNL     1       0.476   9.545  21.839  0.00  0.00    +0.000 A 
ATOM     22  C   UNL     1      -0.504   9.625  22.837  0.00  0.00    +0.000 A 
ATOM     23  C   UNL     1      -1.171  10.829  23.085  0.00  0.00    +0.000 A 
BRANCH  18  25
ATOM     24  C   UNL     1      -2.696  13.131  23.642  0.00  0.00    +0.000 C 
ATOM     25  C   UNL     1      -1.565  13.283  22.637  0.00  0.00    +0.000 C 
ENDBRANCH  18  25
ENDBRANCH  17  21
ENDBRANCH  16  17
ENDBRANCH   1  16
TORSDOF 7
ENDMDL
MODEL 6
REMARK VINA RESULT:      -7.5      3.937      9.489
REMARK  Name = 
REMARK  8 active torsions:
REMARK  status: ('A' for Active; 'I' for Inactive)
REMARK    1  A    between atoms: C_1  and  C_2
REMARK    2  A    between atoms: C_2  and  C_3
REMARK    3  A    between atoms: C_6  and  C_7
REMARK    4  A    between atoms: C_7  and  C_8
REMARK    5  A    between atoms: C_8  and  N_9
REMARK    6  A    between atoms: C_13  and  C_14
REMARK    7  A    between atoms: C_15  and  C_16
REMARK    8  A    between atoms: N_18  and  O_19
REMARK                            x       y       z     vdW  Elec       q    Type
REMARK                         _______ _______ _______ _____ _____    ______ ____
ROOT
ATOM      1  N   UNL     1       3.304   5.982  19.028  0.00  0.00    +0.000 N 
ATOM      2  C   UNL     1       3.505   6.848  17.967  0.00  0.00    +0.000 A 
ATOM      3  C   UNL     1       2.854   8.012  17.887  0.00  0.00    +0.000 A 
ATOM      4  C   UNL     1       1.980   8.429  18.955  0.00  0.00    +0.000 A 
ATOM      5  C   UNL     1       1.753   7.644  20.022  0.00  0.00    +0.000 A 
ATOM      6  C   UNL     1       2.344   6.244  20.011  0.00  0.00    +0.000 A 
ATOM      7  O   UNL     1       1.992   5.407  20.843  0.00  0.00    +0.000 OA
ENDROOT
BRANCH   5   8
ATOM      8  C   UNL     1       0.973   8.132  21.156  0.00  0.00    +0.000 C 
ATOM      9  C   UNL     1       1.061   9.386  21.628  0.00  0.00    +0.000 C 
BRANCH   9  10
ATOM     10  C   UNL     1       0.222   9.871  22.744  0.00  0.00    +0.000 C 
ATOM     11  O   UNL     1       0.466   9.658  23.923  0.00  0.00    +0.000 OA
ATOM     12  N   UNL     1      -0.872  10.580  22.315  0.00  0.00    +0.000 N 
ATOM     13  H   UNL     1      -1.074  10.825  21.352  0.00  0.00    +0.000 HD
BRANCH  12  14
ATOM     14  O   UNL     1      -1.726  11.103  23.307  0.00  0.00    +0.000 OA
ATOM     15  H   UNL     1      -1.177  11.030  24.116  0.00  0.00    +0.000 HD
ENDBRANCH  12  14
ENDBRANCH   9  10
ENDBRANCH   5   8
BRANCH   1  16
ATOM     16  C   UNL     1       4.003   4.687  19.049  0.00  0.00    +0.000 C 
BRANCH  16  17
ATOM     17  C   UNL     1       5.508   4.795  18.743  0.00  0.00    +0.000 C 
BRANCH  17  21
ATOM     18  C   UNL     1       6.426   4.296  14.531  0.00  0.00    +0.000 A 
ATOM     19  C   UNL     1       5.245   3.778  15.070  0.00  0.00    +0.000 A 
ATOM     20  C   UNL     1       4.947   3.947  16.427  0.00  0.00    +0.000 A 
ATOM     21  C   UNL     1       5.824   4.641  17.270  0.00  0.00    +0.000 A 
ATOM     22  C   UNL     1       6.986   5.196  16.720  0.00  0.00    +0.000 A 
ATOM     23  C   UNL     1       7.284   5.024  15.364  0.00  0.00    +0.000 A 
BRANCH  18  25
ATOM     24  C   UNL     1       5.688   3.315  12.331  0.00  0.00    +0.000 C 
ATOM     25  C   UNL     1       6.770   4.077  13.079  0.00  0.00    +0.000 C 
ENDBRANCH  18  25
ENDBRANCH  17  21
ENDBRANCH  16  17
ENDBRANCH   1  16
TORSDOF 7
ENDMDL
MODEL 7
REMARK VINA RESULT:      -7.5      4.362      6.791
REMARK  Name = 
REMARK  8 active torsions:
REMARK  status: ('A' for Active; 'I' for Inactive)
REMARK    1  A    between atoms: C_1  and  C_2
REMARK    2  A    between atoms: C_2  and  C_3
REMARK    3  A    between atoms: C_6  and  C_7
REMARK    4  A    between atoms: C_7  and  C_8
REMARK    5  A    between atoms: C_8  and  N_9
REMARK    6  A    between atoms: C_13  and  C_14
REMARK    7  A    between atoms: C_15  and  C_16
REMARK    8  A    between atoms: N_18  and  O_19
REMARK                            x       y       z     vdW  Elec       q    Type
REMARK                         _______ _______ _______ _____ _____    ______ ____
ROOT
ATOM      1  N   UNL     1       6.836   5.013  17.357  0.00  0.00    +0.000 N 
ATOM      2  C   UNL     1       7.103   4.543  18.631  0.00  0.00    +0.000 A 
ATOM      3  C   UNL     1       7.716   5.308  19.539  0.00  0.00    +0.000 A 
ATOM      4  C   UNL     1       8.041   6.679  19.232  0.00  0.00    +0.000 A 
ATOM      5  C   UNL     1       7.794   7.203  18.020  0.00  0.00    +0.000 A 
ATOM      6  C   UNL     1       7.277   6.272  16.937  0.00  0.00    +0.000 A 
ATOM      7  O   UNL     1       7.244   6.634  15.760  0.00  0.00    +0.000 OA
ENDROOT
BRANCH   5   8
ATOM      8  C   UNL     1       8.005   8.626  17.765  0.00  0.00    +0.000 C 
ATOM      9  C   UNL     1       8.761   9.412  18.547  0.00  0.00    +0.000 C 
BRANCH   9  10
ATOM     10  C   UNL     1       9.001  10.837  18.236  0.00  0.00    +0.000 C 
ATOM     11  O   UNL     1       8.258  11.520  17.546  0.00  0.00    +0.000 OA
ATOM     12  N   UNL     1      10.158  11.315  18.799  0.00  0.00    +0.000 N 
ATOM     13  H   UNL     1      10.767  10.796  19.424  0.00  0.00    +0.000 HD
BRANCH  12  14
ATOM     14  O   UNL     1      10.466  12.672  18.578  0.00  0.00    +0.000 OA
ATOM     15  H   UNL     1      11.241  12.810  19.163  0.00  0.00    +0.000 HD
ENDBRANCH  12  14
ENDBRANCH   9  10
ENDBRANCH   5   8
BRANCH   1  16
ATOM     16  C   UNL     1       6.207   4.118  16.372  0.00  0.00    +0.000 C 
BRANCH  16  17
ATOM     17  C   UNL     1       4.749   4.489  16.046  0.00  0.00    +0.000 C 
BRANCH  17  21
ATOM     18  C   UNL     1       1.948   3.421  19.184  0.00  0.00    +0.000 A 
ATOM     19  C   UNL     1       2.765   2.451  18.596  0.00  0.00    +0.000 A 
ATOM     20  C   UNL     1       3.673   2.799  17.590  0.00  0.00    +0.000 A 
ATOM     21  C   UNL     1       3.784   4.126  17.154  0.00  0.00    +0.000 A 
ATOM     22  C   UNL     1       2.996   5.103  17.775  0.00  0.00    +0.000 A 
ATOM     23  C   UNL     1       2.087   4.754  18.779  0.00  0.00    +0.000 A 
BRANCH  18  25
ATOM     24  C   UNL     1       1.556   2.917  21.621  0.00  0.00    +0.000 C 
ATOM     25  C   UNL     1       0.938   3.042  20.237  0.00  0.00    +0.000 C 
ENDBRANCH  18  25
ENDBRANCH  17  21
ENDBRANCH  16  17
ENDBRANCH   1  16
TORSDOF 7
ENDMDL
MODEL 8
REMARK VINA RESULT:      -7.4      5.020      7.487
REMARK  Name = 
REMARK  8 active torsions:
REMARK  status: ('A' for Active; 'I' for Inactive)
REMARK    1  A    between atoms: C_1  and  C_2
REMARK    2  A    between atoms: C_2  and  C_3
REMARK    3  A    between atoms: C_6  and  C_7
REMARK    4  A    between atoms: C_7  and  C_8
REMARK    5  A    between atoms: C_8  and  N_9
REMARK    6  A    between atoms: C_13  and  C_14
REMARK    7  A    between atoms: C_15  and  C_16
REMARK    8  A    between atoms: N_18  and  O_19
REMARK                            x       y       z     vdW  Elec       q    Type
REMARK                         _______ _______ _______ _____ _____    ______ ____
ROOT
ATOM      1  N   UNL     1       7.045   6.057  17.781  0.00  0.00    +0.000 N 
ATOM      2  C   UNL     1       7.006   5.812  16.420  0.00  0.00    +0.000 A 
ATOM      3  C   UNL     1       6.286   4.805  15.915  0.00  0.00    +0.000 A 
ATOM      4  C   UNL     1       5.463   3.998  16.781  0.00  0.00    +0.000 A 
ATOM      5  C   UNL     1       5.441   4.193  18.110  0.00  0.00    +0.000 A 
ATOM      6  C   UNL     1       6.408   5.208  18.694  0.00  0.00    +0.000 A 
ATOM      7  O   UNL     1       6.595   5.272  19.909  0.00  0.00    +0.000 OA
ENDROOT
BRANCH   5   8
ATOM      8  C   UNL     1       4.505   3.458  18.957  0.00  0.00    +0.000 C 
ATOM      9  C   UNL     1       3.261   3.884  19.227  0.00  0.00    +0.000 C 
BRANCH   9  10
ATOM     10  C   UNL     1       2.316   3.094  20.044  0.00  0.00    +0.000 C 
ATOM     11  O   UNL     1       1.461   2.356  19.576  0.00  0.00    +0.000 OA
ATOM     12  N   UNL     1       2.493   3.284  21.392  0.00  0.00    +0.000 N 
ATOM     13  H   UNL     1       3.227   3.841  21.816  0.00  0.00    +0.000 HD
BRANCH  12  14
ATOM     14  O   UNL     1       1.652   2.557  22.258  0.00  0.00    +0.000 OA
ATOM     15  H   UNL     1       1.202   3.269  22.759  0.00  0.00    +0.000 HD
ENDBRANCH  12  14
ENDBRANCH   9  10
ENDBRANCH   5   8
BRANCH   1  16
ATOM     16  C   UNL     1       7.893   7.143  18.298  0.00  0.00    +0.000 C 
BRANCH  16  17
ATOM     17  C   UNL     1       7.738   8.466  17.526  0.00  0.00    +0.000 C 
BRANCH  17  21
ATOM     18  C   UNL     1       9.819  11.785  19.392  0.00  0.00    +0.000 A 
ATOM     19  C   UNL     1       9.130  11.961  18.187  0.00  0.00    +0.000 A 
ATOM     20  C   UNL     1       8.454  10.891  17.591  0.00  0.00    +0.000 A 
ATOM     21  C   UNL     1       8.449   9.625  18.190  0.00  0.00    +0.000 A 
ATOM     22  C   UNL     1       9.102   9.462  19.418  0.00  0.00    +0.000 A 
ATOM     23  C   UNL     1       9.781  10.531  20.012  0.00  0.00    +0.000 A 
BRANCH  18  25
ATOM     24  C   UNL     1      12.057  12.916  19.630  0.00  0.00    +0.000 C 
ATOM     25  C   UNL     1      10.586  12.925  20.012  0.00  0.00    +0.000 C 
ENDBRANCH  18  25
ENDBRANCH  17  21
ENDBRANCH  16  17
ENDBRANCH   1  16
TORSDOF 7
ENDMDL
MODEL 9
REMARK VINA RESULT:      -7.4      3.788      8.535
REMARK  Name = 
REMARK  8 active torsions:
REMARK  status: ('A' for Active; 'I' for Inactive)
REMARK    1  A    between atoms: C_1  and  C_2
REMARK    2  A    between atoms: C_2  and  C_3
REMARK    3  A    between atoms: C_6  and  C_7
REMARK    4  A    between atoms: C_7  and  C_8
REMARK    5  A    between atoms: C_8  and  N_9
REMARK    6  A    between atoms: C_13  and  C_14
REMARK    7  A    between atoms: C_15  and  C_16
REMARK    8  A    between atoms: N_18  and  O_19
REMARK                            x       y       z     vdW  Elec       q    Type
REMARK                         _______ _______ _______ _____ _____    ______ ____
ROOT
ATOM      1  N   UNL     1       2.406   4.357  18.625  0.00  0.00    +0.000 N 
ATOM      2  C   UNL     1       2.332   3.406  19.627  0.00  0.00    +0.000 A 
ATOM      3  C   UNL     1       2.156   3.755  20.905  0.00  0.00    +0.000 A 
ATOM      4  C   UNL     1       1.957   5.139  21.257  0.00  0.00    +0.000 A 
ATOM      5  C   UNL     1       2.000   6.112  20.331  0.00  0.00    +0.000 A 
ATOM      6  C   UNL     1       2.393   5.726  18.915  0.00  0.00    +0.000 A 
ATOM      7  O   UNL     1       2.667   6.589  18.081  0.00  0.00    +0.000 OA
ENDROOT
BRANCH   5   8
ATOM      8  C   UNL     1       1.666   7.490  20.679  0.00  0.00    +0.000 C 
ATOM      9  C   UNL     1       0.561   7.833  21.361  0.00  0.00    +0.000 C 
BRANCH   9  10
ATOM     10  C   UNL     1       0.274   9.230  21.747  0.00  0.00    +0.000 C 
ATOM     11  O   UNL     1       0.458  10.192  21.014  0.00  0.00    +0.000 OA
ATOM     12  N   UNL     1      -0.216   9.338  23.024  0.00  0.00    +0.000 N 
ATOM     13  H   UNL     1      -0.436   8.561  23.637  0.00  0.00    +0.000 HD
BRANCH  12  14
ATOM     14  O   UNL     1      -0.541  10.631  23.479  0.00  0.00    +0.000 OA
ATOM     15  H   UNL     1      -1.451  10.753  23.134  0.00  0.00    +0.000 HD
ENDBRANCH  12  14
ENDBRANCH   9  10
ENDBRANCH   5   8
BRANCH   1  16
ATOM     16  C   UNL     1       2.653   3.930  17.238  0.00  0.00    +0.000 C 
BRANCH  16  17
ATOM     17  C   UNL     1       4.095   3.452  16.989  0.00  0.00    +0.000 C 
BRANCH  17  21
ATOM     18  C   UNL     1       7.111   6.404  18.001  0.00  0.00    +0.000 A 
ATOM     19  C   UNL     1       6.431   6.467  16.780  0.00  0.00    +0.000 A 
ATOM     20  C   UNL     1       5.454   5.519  16.459  0.00  0.00    +0.000 A 
ATOM     21  C   UNL     1       5.134   4.490  17.355  0.00  0.00    +0.000 A 
ATOM     22  C   UNL     1       5.784   4.454  18.595  0.00  0.00    +0.000 A 
ATOM     23  C   UNL     1       6.763   5.401  18.914  0.00  0.00    +0.000 A 
BRANCH  18  25
ATOM     24  C   UNL     1       7.928   8.772  17.736  0.00  0.00    +0.000 C 
ATOM     25  C   UNL     1       8.195   7.398  18.330  0.00  0.00    +0.000 C 
ENDBRANCH  18  25
ENDBRANCH  17  21
ENDBRANCH  16  17
ENDBRANCH   1  16
TORSDOF 7
ENDMDL
