MODEL 1
REMARK VINA RESULT:      -6.7      0.000      0.000
REMARK  Name = 
REMARK  13 active torsions:
REMARK  status: ('A' for Active; 'I' for Inactive)
REMARK    1  A    between atoms: C_1  and  C_2
REMARK    2  A    between atoms: C_2  and  C_3
REMARK    3  A    between atoms: C_2  and  C_4
REMARK    4  A    between atoms: C_2  and  N_5
REMARK    5  A    between atoms: N_5  and  C_6
REMARK    6  A    between atoms: C_6  and  C_7
REMARK    7  A    between atoms: C_7  and  O_8
REMARK    8  A    between atoms: C_7  and  C_9
REMARK    9  A    between atoms: C_9  and  O_10
REMARK   10  A    between atoms: O_10  and  C_11
REMARK   11  A    between atoms: C_11  and  C_13
REMARK   12  A    between atoms: C_13  and  C_14
REMARK   13  A    between atoms: C_14  and  C_15
REMARK                            x       y       z     vdW  Elec       q    Type
REMARK                         _______ _______ _______ _____ _____    ______ ____
ROOT
ATOM      1  C   UNL     1       6.583   4.128  16.834  0.00  0.00    +0.000 C 
ENDROOT
BRANCH   1   2
ATOM      2  C   UNL     1       7.139   4.611  15.484  0.00  0.00    +0.000 C 
BRANCH   2   3
ATOM      3  O   UNL     1       7.516   5.995  15.604  0.00  0.00    +0.000 OA
ATOM      4  H   UNL     1       6.758   6.538  15.328  0.00  0.00    +0.000 HD
ENDBRANCH   2   3
BRANCH   2   5
ATOM      5  C   UNL     1       6.085   4.450  14.368  0.00  0.00    +0.000 C 
BRANCH   5   6
ATOM      6  N   UNL     1       6.255   3.182  13.651  0.00  0.00    +0.000 NA
ATOM      7  H   UNL     1       7.097   2.717  13.993  0.00  0.00    +0.000 HD
BRANCH   6   9
ATOM      8  C   UNL     1       6.773   1.979  11.525  0.00  0.00    +0.000 C 
ATOM      9  C   UNL     1       6.250   3.268  12.182  0.00  0.00    +0.000 C 
ATOM     10  C   UNL     1       7.068   4.477  11.698  0.00  0.00    +0.000 C 
ATOM     11  C   UNL     1       4.786   3.471  11.744  0.00  0.00    +0.000 C 
ENDBRANCH   6   9
ENDBRANCH   5   6
ENDBRANCH   2   5
ENDBRANCH   1   2
BRANCH   1  12
ATOM     12  O   UNL     1       5.396   4.802  17.273  0.00  0.00    +0.000 OA
BRANCH  12  13
ATOM     13  C   UNL     1       5.390   5.195  18.573  0.00  0.00    +0.000 C 
ATOM     14  O   UNL     1       6.259   4.913  19.389  0.00  0.00    +0.000 OA
BRANCH  13  15
ATOM     15  C   UNL     1       4.273   6.159  18.868  0.00  0.00    +0.000 C 
BRANCH  15  16
ATOM     16  C   UNL     1       3.007   5.946  18.041  0.00  0.00    +0.000 C 
BRANCH  16  17
ATOM     17  C   UNL     1       2.161   4.871  18.677  0.00  0.00    +0.000 A 
ATOM     18  C   UNL     1       1.851   4.935  20.043  0.00  0.00    +0.000 A 
ATOM     19  C   UNL     1       1.160   3.893  20.659  0.00  0.00    +0.000 A 
ATOM     20  C   UNL     1       0.772   2.779  19.918  0.00  0.00    +0.000 A 
ATOM     21  C   UNL     1       1.065   2.710  18.557  0.00  0.00    +0.000 A 
ATOM     22  C   UNL     1       1.756   3.752  17.938  0.00  0.00    +0.000 A 
ENDBRANCH  16  17
ENDBRANCH  15  16
ENDBRANCH  13  15
ENDBRANCH  12  13
ENDBRANCH   1  12
TORSDOF 10
ENDMDL
MODEL 2
REMARK VINA RESULT:      -6.7      0.453      1.101
REMARK  Name = 
REMARK  13 active torsions:
REMARK  status: ('A' for Active; 'I' for Inactive)
REMARK    1  A    between atoms: C_1  and  C_2
REMARK    2  A    between atoms: C_2  and  C_3
REMARK    3  A    between atoms: C_2  and  C_4
REMARK    4  A    between atoms: C_2  and  N_5
REMARK    5  A    between atoms: N_5  and  C_6
REMARK    6  A    between atoms: C_6  and  C_7
REMARK    7  A    between atoms: C_7  and  O_8
REMARK    8  A    between atoms: C_7  and  C_9
REMARK    9  A    between atoms: C_9  and  O_10
REMARK   10  A    between atoms: O_10  and  C_11
REMARK   11  A    between atoms: C_11  and  C_13
REMARK   12  A    between atoms: C_13  and  C_14
REMARK   13  A    between atoms: C_14  and  C_15
REMARK                            x       y       z     vdW  Elec       q    Type
REMARK                         _______ _______ _______ _____ _____    ______ ____
ROOT
ATOM      1  C   UNL     1       5.982   4.205  16.659  0.00  0.00    +0.000 C 
ENDROOT
BRANCH   1   2
ATOM      2  C   UNL     1       6.901   4.464  15.454  0.00  0.00    +0.000 C 
BRANCH   2   3
ATOM      3  O   UNL     1       7.517   5.755  15.609  0.00  0.00    +0.000 OA
ATOM      4  H   UNL     1       8.477   5.646  15.499  0.00  0.00    +0.000 HD
ENDBRANCH   2   3
BRANCH   2   5
ATOM      5  C   UNL     1       6.101   4.420  14.135  0.00  0.00    +0.000 C 
BRANCH   5   6
ATOM      6  N   UNL     1       6.158   3.091  13.519  0.00  0.00    +0.000 NA
ATOM      7  H   UNL     1       7.013   2.620  13.821  0.00  0.00    +0.000 HD
BRANCH   6   9
ATOM      8  C   UNL     1       4.603   3.447  11.597  0.00  0.00    +0.000 C 
ATOM      9  C   UNL     1       6.019   3.054  12.054  0.00  0.00    +0.000 C 
ATOM     10  C   UNL     1       6.387   1.668  11.500  0.00  0.00    +0.000 C 
ATOM     11  C   UNL     1       7.012   4.082  11.478  0.00  0.00    +0.000 C 
ENDBRANCH   6   9
ENDBRANCH   5   6
ENDBRANCH   2   5
ENDBRANCH   1   2
BRANCH   1  12
ATOM     12  O   UNL     1       5.960   5.254  17.637  0.00  0.00    +0.000 OA
BRANCH  12  13
ATOM     13  C   UNL     1       5.397   4.932  18.831  0.00  0.00    +0.000 C 
ATOM     14  O   UNL     1       5.716   3.968  19.513  0.00  0.00    +0.000 OA
BRANCH  13  15
ATOM     15  C   UNL     1       4.438   5.990  19.307  0.00  0.00    +0.000 C 
BRANCH  15  16
ATOM     16  C   UNL     1       3.126   6.065  18.529  0.00  0.00    +0.000 C 
BRANCH  16  17
ATOM     17  C   UNL     1       2.228   4.924  18.940  0.00  0.00    +0.000 A 
ATOM     18  C   UNL     1       1.860   4.767  20.283  0.00  0.00    +0.000 A 
ATOM     19  C   UNL     1       1.118   3.658  20.686  0.00  0.00    +0.000 A 
ATOM     20  C   UNL     1       0.737   2.697  19.752  0.00  0.00    +0.000 A 
ATOM     21  C   UNL     1       1.087   2.850  18.412  0.00  0.00    +0.000 A 
ATOM     22  C   UNL     1       1.829   3.959  18.006  0.00  0.00    +0.000 A 
ENDBRANCH  16  17
ENDBRANCH  15  16
ENDBRANCH  13  15
ENDBRANCH  12  13
ENDBRANCH   1  12
TORSDOF 10
ENDMDL
MODEL 3
REMARK VINA RESULT:      -6.6      0.485      1.513
REMARK  Name = 
REMARK  13 active torsions:
REMARK  status: ('A' for Active; 'I' for Inactive)
REMARK    1  A    between atoms: C_1  and  C_2
REMARK    2  A    between atoms: C_2  and  C_3
REMARK    3  A    between atoms: C_2  and  C_4
REMARK    4  A    between atoms: C_2  and  N_5
REMARK    5  A    between atoms: N_5  and  C_6
REMARK    6  A    between atoms: C_6  and  C_7
REMARK    7  A    between atoms: C_7  and  O_8
REMARK    8  A    between atoms: C_7  and  C_9
REMARK    9  A    between atoms: C_9  and  O_10
REMARK   10  A    between atoms: O_10  and  C_11
REMARK   11  A    between atoms: C_11  and  C_13
REMARK   12  A    between atoms: C_13  and  C_14
REMARK   13  A    between atoms: C_14  and  C_15
REMARK                            x       y       z     vdW  Elec       q    Type
REMARK                         _______ _______ _______ _____ _____    ______ ____
ROOT
ATOM      1  C   UNL     1       6.505   4.026  16.689  0.00  0.00    +0.000 C 
ENDROOT
BRANCH   1   2
ATOM      2  C   UNL     1       7.074   4.612  15.386  0.00  0.00    +0.000 C 
BRANCH   2   3
ATOM      3  O   UNL     1       7.401   5.996  15.602  0.00  0.00    +0.000 OA
ATOM      4  H   UNL     1       8.356   6.106  15.457  0.00  0.00    +0.000 HD
ENDBRANCH   2   3
BRANCH   2   5
ATOM      5  C   UNL     1       6.050   4.489  14.238  0.00  0.00    +0.000 C 
BRANCH   5   6
ATOM      6  N   UNL     1       6.162   3.193  13.558  0.00  0.00    +0.000 NA
ATOM      7  H   UNL     1       7.009   2.722  13.879  0.00  0.00    +0.000 HD
BRANCH   6   9
ATOM      8  C   UNL     1       7.032   4.293  11.492  0.00  0.00    +0.000 C 
ATOM      9  C   UNL     1       6.094   3.230  12.089  0.00  0.00    +0.000 C 
ATOM     10  C   UNL     1       4.652   3.469  11.610  0.00  0.00    +0.000 C 
ATOM     11  C   UNL     1       6.546   1.847  11.579  0.00  0.00    +0.000 C 
ENDBRANCH   6   9
ENDBRANCH   5   6
ENDBRANCH   2   5
ENDBRANCH   1   2
BRANCH   1  12
ATOM     12  O   UNL     1       6.572   4.902  17.824  0.00  0.00    +0.000 OA
BRANCH  12  13
ATOM     13  C   UNL     1       5.563   4.775  18.724  0.00  0.00    +0.000 C 
ATOM     14  O   UNL     1       5.487   3.887  19.563  0.00  0.00    +0.000 OA
BRANCH  13  15
ATOM     15  C   UNL     1       4.620   5.947  18.686  0.00  0.00    +0.000 C 
BRANCH  15  16
ATOM     16  C   UNL     1       3.344   5.718  17.879  0.00  0.00    +0.000 C 
BRANCH  16  17
ATOM     17  C   UNL     1       2.460   4.732  18.602  0.00  0.00    +0.000 A 
ATOM     18  C   UNL     1       1.991   3.589  17.939  0.00  0.00    +0.000 A 
ATOM     19  C   UNL     1       1.091   2.729  18.566  0.00  0.00    +0.000 A 
ATOM     20  C   UNL     1       0.653   3.001  19.861  0.00  0.00    +0.000 A 
ATOM     21  C   UNL     1       1.122   4.128  20.533  0.00  0.00    +0.000 A 
ATOM     22  C   UNL     1       2.023   4.990  19.908  0.00  0.00    +0.000 A 
ENDBRANCH  16  17
ENDBRANCH  15  16
ENDBRANCH  13  15
ENDBRANCH  12  13
ENDBRANCH   1  12
TORSDOF 10
ENDMDL
MODEL 4
REMARK VINA RESULT:      -6.5      0.698      1.289
REMARK  Name = 
REMARK  13 active torsions:
REMARK  status: ('A' for Active; 'I' for Inactive)
REMARK    1  A    between atoms: C_1  and  C_2
REMARK    2  A    between atoms: C_2  and  C_3
REMARK    3  A    between atoms: C_2  and  C_4
REMARK    4  A    between atoms: C_2  and  N_5
REMARK    5  A    between atoms: N_5  and  C_6
REMARK    6  A    between atoms: C_6  and  C_7
REMARK    7  A    between atoms: C_7  and  O_8
REMARK    8  A    between atoms: C_7  and  C_9
REMARK    9  A    between atoms: C_9  and  O_10
REMARK   10  A    between atoms: O_10  and  C_11
REMARK   11  A    between atoms: C_11  and  C_13
REMARK   12  A    between atoms: C_13  and  C_14
REMARK   13  A    between atoms: C_14  and  C_15
REMARK                            x       y       z     vdW  Elec       q    Type
REMARK                         _______ _______ _______ _____ _____    ______ ____
ROOT
ATOM      1  C   UNL     1       6.019   5.929  16.243  0.00  0.00    +0.000 C 
ENDROOT
BRANCH   1   2
ATOM      2  C   UNL     1       6.668   4.814  15.405  0.00  0.00    +0.000 C 
BRANCH   2   3
ATOM      3  O   UNL     1       7.838   5.342  14.756  0.00  0.00    +0.000 OA
ATOM      4  H   UNL     1       8.621   4.963  15.191  0.00  0.00    +0.000 HD
ENDBRANCH   2   3
BRANCH   2   5
ATOM      5  C   UNL     1       5.680   4.277  14.349  0.00  0.00    +0.000 C 
BRANCH   5   6
ATOM      6  N   UNL     1       6.241   3.132  13.624  0.00  0.00    +0.000 NA
ATOM      7  H   UNL     1       7.203   2.983  13.932  0.00  0.00    +0.000 HD
BRANCH   6   9
ATOM      8  C   UNL     1       6.488   1.843  11.499  0.00  0.00    +0.000 C 
ATOM      9  C   UNL     1       6.152   3.193  12.157  0.00  0.00    +0.000 C 
ATOM     10  C   UNL     1       7.066   4.295  11.595  0.00  0.00    +0.000 C 
ATOM     11  C   UNL     1       4.695   3.551  11.804  0.00  0.00    +0.000 C 
ENDBRANCH   6   9
ENDBRANCH   5   6
ENDBRANCH   2   5
ENDBRANCH   1   2
BRANCH   1  12
ATOM     12  O   UNL     1       6.399   5.941  17.627  0.00  0.00    +0.000 OA
BRANCH  12  13
ATOM     13  C   UNL     1       5.610   5.212  18.458  0.00  0.00    +0.000 C 
ATOM     14  O   UNL     1       5.832   4.056  18.792  0.00  0.00    +0.000 OA
BRANCH  13  15
ATOM     15  C   UNL     1       4.506   6.040  19.060  0.00  0.00    +0.000 C 
BRANCH  15  16
ATOM     16  C   UNL     1       3.172   5.965  18.321  0.00  0.00    +0.000 C 
BRANCH  16  17
ATOM     17  C   UNL     1       2.372   4.795  18.838  0.00  0.00    +0.000 A 
ATOM     18  C   UNL     1       2.031   3.740  17.980  0.00  0.00    +0.000 A 
ATOM     19  C   UNL     1       1.205   2.708  18.424  0.00  0.00    +0.000 A 
ATOM     20  C   UNL     1       0.713   2.720  19.728  0.00  0.00    +0.000 A 
ATOM     21  C   UNL     1       1.057   3.758  20.593  0.00  0.00    +0.000 A 
ATOM     22  C   UNL     1       1.883   4.791  20.151  0.00  0.00    +0.000 A 
ENDBRANCH  16  17
ENDBRANCH  15  16
ENDBRANCH  13  15
ENDBRANCH  12  13
ENDBRANCH   1  12
TORSDOF 10
ENDMDL
MODEL 5
REMARK VINA RESULT:      -6.5      4.901      8.298
REMARK  Name = 
REMARK  13 active torsions:
REMARK  status: ('A' for Active; 'I' for Inactive)
REMARK    1  A    between atoms: C_1  and  C_2
REMARK    2  A    between atoms: C_2  and  C_3
REMARK    3  A    between atoms: C_2  and  C_4
REMARK    4  A    between atoms: C_2  and  N_5
REMARK    5  A    between atoms: N_5  and  C_6
REMARK    6  A    between atoms: C_6  and  C_7
REMARK    7  A    between atoms: C_7  and  O_8
REMARK    8  A    between atoms: C_7  and  C_9
REMARK    9  A    between atoms: C_9  and  O_10
REMARK   10  A    between atoms: O_10  and  C_11
REMARK   11  A    between atoms: C_11  and  C_13
REMARK   12  A    between atoms: C_13  and  C_14
REMARK   13  A    between atoms: C_14  and  C_15
REMARK                            x       y       z     vdW  Elec       q    Type
REMARK                         _______ _______ _______ _____ _____    ______ ____
ROOT
ATOM      1  C   UNL     1       5.868   5.563  17.872  0.00  0.00    +0.000 C 
ENDROOT
BRANCH   1   2
ATOM      2  C   UNL     1       5.348   5.015  19.211  0.00  0.00    +0.000 C 
BRANCH   2   3
ATOM      3  O   UNL     1       5.690   3.621  19.309  0.00  0.00    +0.000 OA
ATOM      4  H   UNL     1       5.518   3.333  20.221  0.00  0.00    +0.000 HD
ENDBRANCH   2   3
BRANCH   2   5
ATOM      5  C   UNL     1       3.818   5.188  19.317  0.00  0.00    +0.000 C 
BRANCH   5   6
ATOM      6  N   UNL     1       3.112   3.972  18.898  0.00  0.00    +0.000 NA
ATOM      7  H   UNL     1       2.817   4.076  17.926  0.00  0.00    +0.000 HD
BRANCH   6   9
ATOM      8  C   UNL     1       0.962   2.705  18.988  0.00  0.00    +0.000 C 
ATOM      9  C   UNL     1       1.992   3.552  19.755  0.00  0.00    +0.000 C 
ATOM     10  C   UNL     1       1.303   4.767  20.397  0.00  0.00    +0.000 C 
ATOM     11  C   UNL     1       2.584   2.683  20.883  0.00  0.00    +0.000 C 
ENDBRANCH   6   9
ENDBRANCH   5   6
ENDBRANCH   2   5
ENDBRANCH   1   2
BRANCH   1  12
ATOM     12  O   UNL     1       6.243   6.947  17.891  0.00  0.00    +0.000 OA
BRANCH  12  13
ATOM     13  C   UNL     1       7.484   7.225  17.411  0.00  0.00    +0.000 C 
ATOM     14  O   UNL     1       7.911   6.851  16.327  0.00  0.00    +0.000 OA
BRANCH  13  15
ATOM     15  C   UNL     1       8.229   8.189  18.296  0.00  0.00    +0.000 C 
BRANCH  15  16
ATOM     16  C   UNL     1       8.190   9.644  17.835  0.00  0.00    +0.000 C 
BRANCH  16  17
ATOM     17  C   UNL     1       9.257  10.431  18.556  0.00  0.00    +0.000 A 
ATOM     18  C   UNL     1       9.227  10.541  19.953  0.00  0.00    +0.000 A 
ATOM     19  C   UNL     1      10.147  11.352  20.617  0.00  0.00    +0.000 A 
ATOM     20  C   UNL     1      11.105  12.057  19.892  0.00  0.00    +0.000 A 
ATOM     21  C   UNL     1      11.151  11.945  18.504  0.00  0.00    +0.000 A 
ATOM     22  C   UNL     1      10.232  11.134  17.837  0.00  0.00    +0.000 A 
ENDBRANCH  16  17
ENDBRANCH  15  16
ENDBRANCH  13  15
ENDBRANCH  12  13
ENDBRANCH   1  12
TORSDOF 10
ENDMDL
MODEL 6
REMARK VINA RESULT:      -6.5      0.661      1.588
REMARK  Name = 
REMARK  13 active torsions:
REMARK  status: ('A' for Active; 'I' for Inactive)
REMARK    1  A    between atoms: C_1  and  C_2
REMARK    2  A    between atoms: C_2  and  C_3
REMARK    3  A    between atoms: C_2  and  C_4
REMARK    4  A    between atoms: C_2  and  N_5
REMARK    5  A    between atoms: N_5  and  C_6
REMARK    6  A    between atoms: C_6  and  C_7
REMARK    7  A    between atoms: C_7  and  O_8
REMARK    8  A    between atoms: C_7  and  C_9
REMARK    9  A    between atoms: C_9  and  O_10
REMARK   10  A    between atoms: O_10  and  C_11
REMARK   11  A    between atoms: C_11  and  C_13
REMARK   12  A    between atoms: C_13  and  C_14
REMARK   13  A    between atoms: C_14  and  C_15
REMARK                            x       y       z     vdW  Elec       q    Type
REMARK                         _______ _______ _______ _____ _____    ______ ____
ROOT
ATOM      1  C   UNL     1       6.607   4.507  16.674  0.00  0.00    +0.000 C 
ENDROOT
BRANCH   1   2
ATOM      2  C   UNL     1       6.473   5.041  15.238  0.00  0.00    +0.000 C 
BRANCH   2   3
ATOM      3  O   UNL     1       5.943   6.378  15.287  0.00  0.00    +0.000 OA
ATOM      4  H   UNL     1       5.983   6.750  14.390  0.00  0.00    +0.000 HD
ENDBRANCH   2   3
BRANCH   2   5
ATOM      5  C   UNL     1       5.541   4.138  14.403  0.00  0.00    +0.000 C 
BRANCH   5   6
ATOM      6  N   UNL     1       6.304   3.157  13.624  0.00  0.00    +0.000 NA
ATOM      7  H   UNL     1       7.293   3.237  13.865  0.00  0.00    +0.000 HD
BRANCH   6   9
ATOM      8  C   UNL     1       4.658   3.569  11.791  0.00  0.00    +0.000 C 
ATOM      9  C   UNL     1       6.103   3.197  12.167  0.00  0.00    +0.000 C 
ATOM     10  C   UNL     1       6.489   1.856  11.520  0.00  0.00    +0.000 C 
ATOM     11  C   UNL     1       7.041   4.287  11.609  0.00  0.00    +0.000 C 
ENDBRANCH   6   9
ENDBRANCH   5   6
ENDBRANCH   2   5
ENDBRANCH   1   2
BRANCH   1  12
ATOM     12  O   UNL     1       5.369   4.375  17.386  0.00  0.00    +0.000 OA
BRANCH  12  13
ATOM     13  C   UNL     1       5.136   5.316  18.338  0.00  0.00    +0.000 C 
ATOM     14  O   UNL     1       5.835   5.495  19.326  0.00  0.00    +0.000 OA
BRANCH  13  15
ATOM     15  C   UNL     1       4.004   6.233  17.960  0.00  0.00    +0.000 C 
BRANCH  15  16
ATOM     16  C   UNL     1       2.934   6.409  19.035  0.00  0.00    +0.000 C 
BRANCH  16  17
ATOM     17  C   UNL     1       2.244   5.090  19.282  0.00  0.00    +0.000 A 
ATOM     18  C   UNL     1       1.799   4.315  18.201  0.00  0.00    +0.000 A 
ATOM     19  C   UNL     1       1.069   3.148  18.423  0.00  0.00    +0.000 A 
ATOM     20  C   UNL     1       0.778   2.744  19.724  0.00  0.00    +0.000 A 
ATOM     21  C   UNL     1       1.226   3.500  20.806  0.00  0.00    +0.000 A 
ATOM     22  C   UNL     1       1.957   4.668  20.586  0.00  0.00    +0.000 A 
ENDBRANCH  16  17
ENDBRANCH  15  16
ENDBRANCH  13  15
ENDBRANCH  12  13
ENDBRANCH   1  12
TORSDOF 10
ENDMDL
MODEL 7
REMARK VINA RESULT:      -6.4      1.022      1.482
REMARK  Name = 
REMARK  13 active torsions:
REMARK  status: ('A' for Active; 'I' for Inactive)
REMARK    1  A    between atoms: C_1  and  C_2
REMARK    2  A    between atoms: C_2  and  C_3
REMARK    3  A    between atoms: C_2  and  C_4
REMARK    4  A    between atoms: C_2  and  N_5
REMARK    5  A    between atoms: N_5  and  C_6
REMARK    6  A    between atoms: C_6  and  C_7
REMARK    7  A    between atoms: C_7  and  O_8
REMARK    8  A    between atoms: C_7  and  C_9
REMARK    9  A    between atoms: C_9  and  O_10
REMARK   10  A    between atoms: O_10  and  C_11
REMARK   11  A    between atoms: C_11  and  C_13
REMARK   12  A    between atoms: C_13  and  C_14
REMARK   13  A    between atoms: C_14  and  C_15
REMARK                            x       y       z     vdW  Elec       q    Type
REMARK                         _______ _______ _______ _____ _____    ______ ____
ROOT
ATOM      1  C   UNL     1       6.252   5.763  16.408  0.00  0.00    +0.000 C 
ENDROOT
BRANCH   1   2
ATOM      2  C   UNL     1       5.724   4.554  15.618  0.00  0.00    +0.000 C 
BRANCH   2   3
ATOM      3  O   UNL     1       5.913   3.365  16.405  0.00  0.00    +0.000 OA
ATOM      4  H   UNL     1       5.088   3.189  16.888  0.00  0.00    +0.000 HD
ENDBRANCH   2   3
BRANCH   2   5
ATOM      5  C   UNL     1       6.464   4.414  14.271  0.00  0.00    +0.000 C 
BRANCH   5   6
ATOM      6  N   UNL     1       6.175   3.124  13.634  0.00  0.00    +0.000 NA
ATOM      7  H   UNL     1       6.860   2.436  13.951  0.00  0.00    +0.000 HD
BRANCH   6   9
ATOM      8  C   UNL     1       4.660   3.508  11.686  0.00  0.00    +0.000 C 
ATOM      9  C   UNL     1       6.075   3.141  12.166  0.00  0.00    +0.000 C 
ATOM     10  C   UNL     1       6.500   1.788  11.569  0.00  0.00    +0.000 C 
ATOM     11  C   UNL     1       7.050   4.219  11.655  0.00  0.00    +0.000 C 
ENDBRANCH   6   9
ENDBRANCH   5   6
ENDBRANCH   2   5
ENDBRANCH   1   2
BRANCH   1  12
ATOM     12  O   UNL     1       5.251   6.499  17.125  0.00  0.00    +0.000 OA
BRANCH  12  13
ATOM     13  C   UNL     1       4.857   5.954  18.306  0.00  0.00    +0.000 C 
ATOM     14  O   UNL     1       5.533   5.188  18.979  0.00  0.00    +0.000 OA
BRANCH  13  15
ATOM     15  C   UNL     1       3.548   6.525  18.782  0.00  0.00    +0.000 C 
BRANCH  15  16
ATOM     16  C   UNL     1       2.315   6.004  18.048  0.00  0.00    +0.000 C 
BRANCH  16  17
ATOM     17  C   UNL     1       1.928   4.656  18.604  0.00  0.00    +0.000 A 
ATOM     18  C   UNL     1       1.478   4.542  19.927  0.00  0.00    +0.000 A 
ATOM     19  C   UNL     1       1.219   3.288  20.479  0.00  0.00    +0.000 A 
ATOM     20  C   UNL     1       1.406   2.138  19.715  0.00  0.00    +0.000 A 
ATOM     21  C   UNL     1       1.842   2.241  18.395  0.00  0.00    +0.000 A 
ATOM     22  C   UNL     1       2.101   3.494  17.840  0.00  0.00    +0.000 A 
ENDBRANCH  16  17
ENDBRANCH  15  16
ENDBRANCH  13  15
ENDBRANCH  12  13
ENDBRANCH   1  12
TORSDOF 10
ENDMDL
MODEL 8
REMARK VINA RESULT:      -6.4      1.008      1.857
REMARK  Name = 
REMARK  13 active torsions:
REMARK  status: ('A' for Active; 'I' for Inactive)
REMARK    1  A    between atoms: C_1  and  C_2
REMARK    2  A    between atoms: C_2  and  C_3
REMARK    3  A    between atoms: C_2  and  C_4
REMARK    4  A    between atoms: C_2  and  N_5
REMARK    5  A    between atoms: N_5  and  C_6
REMARK    6  A    between atoms: C_6  and  C_7
REMARK    7  A    between atoms: C_7  and  O_8
REMARK    8  A    between atoms: C_7  and  C_9
REMARK    9  A    between atoms: C_9  and  O_10
REMARK   10  A    between atoms: O_10  and  C_11
REMARK   11  A    between atoms: C_11  and  C_13
REMARK   12  A    between atoms: C_13  and  C_14
REMARK   13  A    between atoms: C_14  and  C_15
REMARK                            x       y       z     vdW  Elec       q    Type
REMARK                         _______ _______ _______ _____ _____    ______ ____
ROOT
ATOM      1  C   UNL     1       5.003   4.401  16.351  0.00  0.00    +0.000 C 
ENDROOT
BRANCH   1   2
ATOM      2  C   UNL     1       6.445   4.131  15.890  0.00  0.00    +0.000 C 
BRANCH   2   3
ATOM      3  O   UNL     1       7.334   5.010  16.602  0.00  0.00    +0.000 OA
ATOM      4  H   UNL     1       6.801   5.546  17.213  0.00  0.00    +0.000 HD
ENDBRANCH   2   3
BRANCH   2   5
ATOM      5  C   UNL     1       6.587   4.360  14.370  0.00  0.00    +0.000 C 
BRANCH   5   6
ATOM      6  N   UNL     1       6.259   3.147  13.613  0.00  0.00    +0.000 NA
ATOM      7  H   UNL     1       6.910   2.405  13.876  0.00  0.00    +0.000 HD
BRANCH   6   9
ATOM      8  C   UNL     1       7.076   4.451  11.646  0.00  0.00    +0.000 C 
ATOM      9  C   UNL     1       6.187   3.301  12.152  0.00  0.00    +0.000 C 
ATOM     10  C   UNL     1       4.736   3.514  11.691  0.00  0.00    +0.000 C 
ATOM     11  C   UNL     1       6.701   1.987  11.530  0.00  0.00    +0.000 C 
ENDBRANCH   6   9
ENDBRANCH   5   6
ENDBRANCH   2   5
ENDBRANCH   1   2
BRANCH   1  12
ATOM     12  O   UNL     1       4.888   5.009  17.645  0.00  0.00    +0.000 OA
BRANCH  12  13
ATOM     13  C   UNL     1       4.569   6.330  17.647  0.00  0.00    +0.000 C 
ATOM     14  O   UNL     1       5.356   7.236  17.405  0.00  0.00    +0.000 OA
BRANCH  13  15
ATOM     15  C   UNL     1       3.091   6.554  17.822  0.00  0.00    +0.000 C 
BRANCH  15  16
ATOM     16  C   UNL     1       2.609   6.550  19.271  0.00  0.00    +0.000 C 
BRANCH  16  17
ATOM     17  C   UNL     1       2.185   5.154  19.659  0.00  0.00    +0.000 A 
ATOM     18  C   UNL     1       1.621   4.299  18.702  0.00  0.00    +0.000 A 
ATOM     19  C   UNL     1       1.132   3.048  19.076  0.00  0.00    +0.000 A 
ATOM     20  C   UNL     1       1.202   2.640  20.406  0.00  0.00    +0.000 A 
ATOM     21  C   UNL     1       1.773   3.478  21.363  0.00  0.00    +0.000 A 
ATOM     22  C   UNL     1       2.263   4.730  20.992  0.00  0.00    +0.000 A 
ENDBRANCH  16  17
ENDBRANCH  15  16
ENDBRANCH  13  15
ENDBRANCH  12  13
ENDBRANCH   1  12
TORSDOF 10
ENDMDL
MODEL 9
REMARK VINA RESULT:      -6.4      1.275      2.056
REMARK  Name = 
REMARK  13 active torsions:
REMARK  status: ('A' for Active; 'I' for Inactive)
REMARK    1  A    between atoms: C_1  and  C_2
REMARK    2  A    between atoms: C_2  and  C_3
REMARK    3  A    between atoms: C_2  and  C_4
REMARK    4  A    between atoms: C_2  and  N_5
REMARK    5  A    between atoms: N_5  and  C_6
REMARK    6  A    between atoms: C_6  and  C_7
REMARK    7  A    between atoms: C_7  and  O_8
REMARK    8  A    between atoms: C_7  and  C_9
REMARK    9  A    between atoms: C_9  and  O_10
REMARK   10  A    between atoms: O_10  and  C_11
REMARK   11  A    between atoms: C_11  and  C_13
REMARK   12  A    between atoms: C_13  and  C_14
REMARK   13  A    between atoms: C_14  and  C_15
REMARK                            x       y       z     vdW  Elec       q    Type
REMARK                         _______ _______ _______ _____ _____    ______ ____
ROOT
ATOM      1  C   UNL     1       6.945   5.412  16.537  0.00  0.00    +0.000 C 
ENDROOT
BRANCH   1   2
ATOM      2  C   UNL     1       5.983   4.576  15.676  0.00  0.00    +0.000 C 
BRANCH   2   3
ATOM      3  O   UNL     1       5.934   3.237  16.201  0.00  0.00    +0.000 OA
ATOM      4  H   UNL     1       6.100   3.283  17.158  0.00  0.00    +0.000 HD
ENDBRANCH   2   3
BRANCH   2   5
ATOM      5  C   UNL     1       6.450   4.546  14.205  0.00  0.00    +0.000 C 
BRANCH   5   6
ATOM      6  N   UNL     1       6.249   3.221  13.608  0.00  0.00    +0.000 NA
ATOM      7  H   UNL     1       6.998   2.599  13.918  0.00  0.00    +0.000 HD
BRANCH   6   9
ATOM      8  C   UNL     1       4.695   3.623  11.695  0.00  0.00    +0.000 C 
ATOM      9  C   UNL     1       6.102   3.191  12.144  0.00  0.00    +0.000 C 
ATOM     10  C   UNL     1       6.429   1.796  11.586  0.00  0.00    +0.000 C 
ATOM     11  C   UNL     1       7.120   4.192  11.565  0.00  0.00    +0.000 C 
ENDBRANCH   6   9
ENDBRANCH   5   6
ENDBRANCH   2   5
ENDBRANCH   1   2
BRANCH   1  12
ATOM     12  O   UNL     1       6.333   6.079  17.650  0.00  0.00    +0.000 OA
BRANCH  12  13
ATOM     13  C   UNL     1       6.420   5.433  18.841  0.00  0.00    +0.000 C 
ATOM     14  O   UNL     1       7.454   5.286  19.480  0.00  0.00    +0.000 OA
BRANCH  13  15
ATOM     15  C   UNL     1       5.067   5.051  19.377  0.00  0.00    +0.000 C 
BRANCH  15  16
ATOM     16  C   UNL     1       4.748   3.559  19.311  0.00  0.00    +0.000 C 
BRANCH  16  17
ATOM     17  C   UNL     1       3.276   3.345  19.564  0.00  0.00    +0.000 A 
ATOM     18  C   UNL     1       2.537   2.485  18.740  0.00  0.00    +0.000 A 
ATOM     19  C   UNL     1       1.158   2.364  18.902  0.00  0.00    +0.000 A 
ATOM     20  C   UNL     1       0.505   3.099  19.889  0.00  0.00    +0.000 A 
ATOM     21  C   UNL     1       1.231   3.948  20.722  0.00  0.00    +0.000 A 
ATOM     22  C   UNL     1       2.611   4.071  20.562  0.00  0.00    +0.000 A 
ENDBRANCH  16  17
ENDBRANCH  15  16
ENDBRANCH  13  15
ENDBRANCH  12  13
ENDBRANCH   1  12
TORSDOF 10
ENDMDL
