MODEL 1
REMARK VINA RESULT:      -7.6      0.000      0.000
REMARK  Name = 
REMARK  7 active torsions:
REMARK  status: ('A' for Active; 'I' for Inactive)
REMARK    1  A    between atoms: C_1  and  O_2
REMARK    2  A    between atoms: O_2  and  C_3
REMARK    3  A    between atoms: C_3  and  C_5
REMARK    4  A    between atoms: C_6  and  C_7
REMARK    5  A    between atoms: C_9  and  C_10
REMARK    6  A    between atoms: C_11  and  C_12
REMARK    7  A    between atoms: C_12  and  C_14
REMARK                            x       y       z     vdW  Elec       q    Type
REMARK                         _______ _______ _______ _____ _____    ______ ____
ROOT
ATOM      1  C   UNL     1       6.138   4.454  16.694  0.00  0.00    +0.000 A 
ATOM      2  C   UNL     1       5.668   4.176  15.412  0.00  0.00    +0.000 A 
ATOM      3  C   UNL     1       6.307   4.278  14.072  0.00  0.00    +0.000 C 
ATOM      4  N   UNL     1       4.392   3.695  15.522  0.00  0.00    +0.000 N 
ATOM      5  C   UNL     1       3.995   3.697  16.833  0.00  0.00    +0.000 A 
ATOM      6  C   UNL     1       2.636   3.231  17.222  0.00  0.00    +0.000 C 
ATOM      7  C   UNL     1       5.034   4.217  17.604  0.00  0.00    +0.000 A 
ATOM      8  H   UNL     1       3.817   3.389  14.747  0.00  0.00    +0.000 HD
ENDROOT
BRANCH   1   9
ATOM      9  C   UNL     1       7.495   4.918  16.991  0.00  0.00    +0.000 C 
ATOM     10  O   UNL     1       8.345   4.225  17.531  0.00  0.00    +0.000 OA
BRANCH   9  12
ATOM     11  C   UNL     1       7.504   7.161  17.649  0.00  0.00    +0.000 C 
ATOM     12  O   UNL     1       7.696   6.209  16.602  0.00  0.00    +0.000 OA
ENDBRANCH   9  12
ENDBRANCH   1   9
BRANCH   7  13
ATOM     13  C   UNL     1       4.902   4.459  19.052  0.00  0.00    +0.000 C 
ATOM     14  O   UNL     1       5.873   4.796  19.728  0.00  0.00    +0.000 OA
BRANCH  13  15
ATOM     15  C   UNL     1       3.622   4.151  19.758  0.00  0.00    +0.000 A 
ATOM     16  C   UNL     1       3.495   2.902  20.398  0.00  0.00    +0.000 A 
ATOM     17  C   UNL     1       2.334   2.562  21.095  0.00  0.00    +0.000 A 
ATOM     18  C   UNL     1       1.305   3.486  21.218  0.00  0.00    +0.000 A 
ATOM     19  C   UNL     1       1.422   4.740  20.619  0.00  0.00    +0.000 A 
ATOM     20  C   UNL     1       2.567   5.074  19.874  0.00  0.00    +0.000 A 
ATOM     21  I   UNL     1       2.500   6.950  18.924  0.00  0.00    +0.000 I 
ENDBRANCH  13  15
ENDBRANCH   7  13
TORSDOF 4
ENDMDL
MODEL 2
REMARK VINA RESULT:      -7.6      2.289      5.502
REMARK  Name = 
REMARK  7 active torsions:
REMARK  status: ('A' for Active; 'I' for Inactive)
REMARK    1  A    between atoms: C_1  and  O_2
REMARK    2  A    between atoms: O_2  and  C_3
REMARK    3  A    between atoms: C_3  and  C_5
REMARK    4  A    between atoms: C_6  and  C_7
REMARK    5  A    between atoms: C_9  and  C_10
REMARK    6  A    between atoms: C_11  and  C_12
REMARK    7  A    between atoms: C_12  and  C_14
REMARK                            x       y       z     vdW  Elec       q    Type
REMARK                         _______ _______ _______ _____ _____    ______ ____
ROOT
ATOM      1  C   UNL     1       3.290   3.840  19.755  0.00  0.00    +0.000 A 
ATOM      2  C   UNL     1       1.968   4.275  19.681  0.00  0.00    +0.000 A 
ATOM      3  C   UNL     1       0.692   3.671  20.151  0.00  0.00    +0.000 C 
ATOM      4  N   UNL     1       1.958   5.507  19.085  0.00  0.00    +0.000 N 
ATOM      5  C   UNL     1       3.228   5.868  18.721  0.00  0.00    +0.000 A 
ATOM      6  C   UNL     1       3.489   7.165  18.038  0.00  0.00    +0.000 C 
ATOM      7  C   UNL     1       4.094   4.832  19.068  0.00  0.00    +0.000 A 
ATOM      8  H   UNL     1       1.132   6.069  18.926  0.00  0.00    +0.000 HD
ENDROOT
BRANCH   1   9
ATOM      9  C   UNL     1       3.711   2.594  20.397  0.00  0.00    +0.000 C 
ATOM     10  O   UNL     1       3.521   2.341  21.578  0.00  0.00    +0.000 OA
BRANCH   9  12
ATOM     11  C   UNL     1       3.538   1.359  18.419  0.00  0.00    +0.000 C 
ATOM     12  O   UNL     1       4.344   1.754  19.530  0.00  0.00    +0.000 OA
ENDBRANCH   9  12
ENDBRANCH   1   9
BRANCH   7  13
ATOM     13  C   UNL     1       5.527   4.847  18.721  0.00  0.00    +0.000 C 
ATOM     14  O   UNL     1       6.384   5.030  19.584  0.00  0.00    +0.000 OA
BRANCH  13  15
ATOM     15  C   UNL     1       5.962   4.795  17.293  0.00  0.00    +0.000 A 
ATOM     16  C   UNL     1       5.531   3.710  16.502  0.00  0.00    +0.000 A 
ATOM     17  C   UNL     1       5.882   3.615  15.155  0.00  0.00    +0.000 A 
ATOM     18  C   UNL     1       6.617   4.630  14.557  0.00  0.00    +0.000 A 
ATOM     19  C   UNL     1       7.028   5.728  15.313  0.00  0.00    +0.000 A 
ATOM     20  C   UNL     1       6.720   5.809  16.682  0.00  0.00    +0.000 A 
ATOM     21  I   UNL     1       7.548   7.462  17.687  0.00  0.00    +0.000 I 
ENDBRANCH  13  15
ENDBRANCH   7  13
TORSDOF 4
ENDMDL
MODEL 3
REMARK VINA RESULT:      -7.4      1.559      2.074
REMARK  Name = 
REMARK  7 active torsions:
REMARK  status: ('A' for Active; 'I' for Inactive)
REMARK    1  A    between atoms: C_1  and  O_2
REMARK    2  A    between atoms: O_2  and  C_3
REMARK    3  A    between atoms: C_3  and  C_5
REMARK    4  A    between atoms: C_6  and  C_7
REMARK    5  A    between atoms: C_9  and  C_10
REMARK    6  A    between atoms: C_11  and  C_12
REMARK    7  A    between atoms: C_12  and  C_14
REMARK                            x       y       z     vdW  Elec       q    Type
REMARK                         _______ _______ _______ _____ _____    ______ ____
ROOT
ATOM      1  C   UNL     1       6.236   4.457  17.213  0.00  0.00    +0.000 A 
ATOM      2  C   UNL     1       6.030   4.408  15.836  0.00  0.00    +0.000 A 
ATOM      3  C   UNL     1       6.923   4.704  14.683  0.00  0.00    +0.000 C 
ATOM      4  N   UNL     1       4.756   3.961  15.611  0.00  0.00    +0.000 N 
ATOM      5  C   UNL     1       4.107   3.763  16.801  0.00  0.00    +0.000 A 
ATOM      6  C   UNL     1       2.696   3.288  16.834  0.00  0.00    +0.000 C 
ATOM      7  C   UNL     1       4.973   4.114  17.836  0.00  0.00    +0.000 A 
ATOM      8  H   UNL     1       4.346   3.805  14.699  0.00  0.00    +0.000 HD
ENDROOT
BRANCH   1   9
ATOM      9  C   UNL     1       7.507   4.819  17.842  0.00  0.00    +0.000 C 
ATOM     10  O   UNL     1       8.509   4.120  17.798  0.00  0.00    +0.000 OA
BRANCH   9  12
ATOM     11  C   UNL     1       7.542   7.145  17.614  0.00  0.00    +0.000 C 
ATOM     12  O   UNL     1       7.442   6.019  18.486  0.00  0.00    +0.000 OA
ENDBRANCH   9  12
ENDBRANCH   1   9
BRANCH   7  13
ATOM     13  C   UNL     1       4.555   4.122  19.250  0.00  0.00    +0.000 C 
ATOM     14  O   UNL     1       4.990   3.287  20.042  0.00  0.00    +0.000 OA
BRANCH  13  15
ATOM     15  C   UNL     1       3.479   5.047  19.718  0.00  0.00    +0.000 A 
ATOM     16  C   UNL     1       3.515   6.387  19.284  0.00  0.00    +0.000 A 
ATOM     17  C   UNL     1       2.526   7.296  19.665  0.00  0.00    +0.000 A 
ATOM     18  C   UNL     1       1.452   6.869  20.435  0.00  0.00    +0.000 A 
ATOM     19  C   UNL     1       1.381   5.539  20.850  0.00  0.00    +0.000 A 
ATOM     20  C   UNL     1       2.396   4.628  20.511  0.00  0.00    +0.000 A 
ATOM     21  I   UNL     1       2.191   2.708  21.348  0.00  0.00    +0.000 I 
ENDBRANCH  13  15
ENDBRANCH   7  13
TORSDOF 4
ENDMDL
MODEL 4
REMARK VINA RESULT:      -7.3      2.725      5.527
REMARK  Name = 
REMARK  7 active torsions:
REMARK  status: ('A' for Active; 'I' for Inactive)
REMARK    1  A    between atoms: C_1  and  O_2
REMARK    2  A    between atoms: O_2  and  C_3
REMARK    3  A    between atoms: C_3  and  C_5
REMARK    4  A    between atoms: C_6  and  C_7
REMARK    5  A    between atoms: C_9  and  C_10
REMARK    6  A    between atoms: C_11  and  C_12
REMARK    7  A    between atoms: C_12  and  C_14
REMARK                            x       y       z     vdW  Elec       q    Type
REMARK                         _______ _______ _______ _____ _____    ______ ____
ROOT
ATOM      1  C   UNL     1       3.084   3.734  19.869  0.00  0.00    +0.000 A 
ATOM      2  C   UNL     1       2.024   3.787  20.772  0.00  0.00    +0.000 A 
ATOM      3  C   UNL     1       1.373   2.743  21.608  0.00  0.00    +0.000 C 
ATOM      4  N   UNL     1       1.601   5.086  20.857  0.00  0.00    +0.000 N 
ATOM      5  C   UNL     1       2.321   5.876  19.999  0.00  0.00    +0.000 A 
ATOM      6  C   UNL     1       2.047   7.335  19.891  0.00  0.00    +0.000 C 
ATOM      7  C   UNL     1       3.226   5.066  19.315  0.00  0.00    +0.000 A 
ATOM      8  H   UNL     1       0.858   5.418  21.459  0.00  0.00    +0.000 HD
ENDROOT
BRANCH   1   9
ATOM      9  C   UNL     1       3.848   2.523  19.568  0.00  0.00    +0.000 C 
ATOM     10  O   UNL     1       4.987   2.324  19.965  0.00  0.00    +0.000 OA
BRANCH   9  12
ATOM     11  C   UNL     1       2.581   2.244  17.624  0.00  0.00    +0.000 C 
ATOM     12  O   UNL     1       3.147   1.649  18.791  0.00  0.00    +0.000 OA
ENDBRANCH   9  12
ENDBRANCH   1   9
BRANCH   7  13
ATOM     13  C   UNL     1       4.088   5.580  18.234  0.00  0.00    +0.000 C 
ATOM     14  O   UNL     1       3.601   6.079  17.221  0.00  0.00    +0.000 OA
BRANCH  13  15
ATOM     15  C   UNL     1       5.566   5.365  18.277  0.00  0.00    +0.000 A 
ATOM     16  C   UNL     1       6.262   5.743  19.442  0.00  0.00    +0.000 A 
ATOM     17  C   UNL     1       7.640   5.548  19.555  0.00  0.00    +0.000 A 
ATOM     18  C   UNL     1       8.336   4.916  18.533  0.00  0.00    +0.000 A 
ATOM     19  C   UNL     1       7.661   4.505  17.384  0.00  0.00    +0.000 A 
ATOM     20  C   UNL     1       6.283   4.741  17.241  0.00  0.00    +0.000 A 
ATOM     21  I   UNL     1       5.470   4.185  15.381  0.00  0.00    +0.000 I 
ENDBRANCH  13  15
ENDBRANCH   7  13
TORSDOF 4
ENDMDL
MODEL 5
REMARK VINA RESULT:      -7.1      2.484      5.474
REMARK  Name = 
REMARK  7 active torsions:
REMARK  status: ('A' for Active; 'I' for Inactive)
REMARK    1  A    between atoms: C_1  and  O_2
REMARK    2  A    between atoms: O_2  and  C_3
REMARK    3  A    between atoms: C_3  and  C_5
REMARK    4  A    between atoms: C_6  and  C_7
REMARK    5  A    between atoms: C_9  and  C_10
REMARK    6  A    between atoms: C_11  and  C_12
REMARK    7  A    between atoms: C_12  and  C_14
REMARK                            x       y       z     vdW  Elec       q    Type
REMARK                         _______ _______ _______ _____ _____    ______ ____
ROOT
ATOM      1  C   UNL     1       3.455   4.425  19.577  0.00  0.00    +0.000 A 
ATOM      2  C   UNL     1       2.434   4.386  20.524  0.00  0.00    +0.000 A 
ATOM      3  C   UNL     1       1.915   3.290  21.387  0.00  0.00    +0.000 C 
ATOM      4  N   UNL     1       1.902   5.643  20.629  0.00  0.00    +0.000 N 
ATOM      5  C   UNL     1       2.512   6.490  19.742  0.00  0.00    +0.000 A 
ATOM      6  C   UNL     1       2.105   7.920  19.646  0.00  0.00    +0.000 C 
ATOM      7  C   UNL     1       3.455   5.762  19.018  0.00  0.00    +0.000 A 
ATOM      8  H   UNL     1       1.159   5.910  21.262  0.00  0.00    +0.000 HD
ENDROOT
BRANCH   1   9
ATOM      9  C   UNL     1       4.310   3.285  19.242  0.00  0.00    +0.000 C 
ATOM     10  O   UNL     1       5.261   2.928  19.923  0.00  0.00    +0.000 OA
BRANCH   9  12
ATOM     11  C   UNL     1       2.984   1.622  18.274  0.00  0.00    +0.000 C 
ATOM     12  O   UNL     1       3.929   2.675  18.085  0.00  0.00    +0.000 OA
ENDBRANCH   9  12
ENDBRANCH   1   9
BRANCH   7  13
ATOM     13  C   UNL     1       4.221   6.347  17.902  0.00  0.00    +0.000 C 
ATOM     14  O   UNL     1       4.061   7.521  17.573  0.00  0.00    +0.000 OA
BRANCH  13  15
ATOM     15  C   UNL     1       5.093   5.485  17.048  0.00  0.00    +0.000 A 
ATOM     16  C   UNL     1       4.544   4.936  15.872  0.00  0.00    +0.000 A 
ATOM     17  C   UNL     1       5.313   4.142  15.019  0.00  0.00    +0.000 A 
ATOM     18  C   UNL     1       6.658   3.932  15.292  0.00  0.00    +0.000 A 
ATOM     19  C   UNL     1       7.230   4.492  16.435  0.00  0.00    +0.000 A 
ATOM     20  C   UNL     1       6.452   5.253  17.325  0.00  0.00    +0.000 A 
ATOM     21  I   UNL     1       7.450   5.889  19.065  0.00  0.00    +0.000 I 
ENDBRANCH  13  15
ENDBRANCH   7  13
TORSDOF 4
ENDMDL
MODEL 6
REMARK VINA RESULT:      -7.1      2.739      5.474
REMARK  Name = 
REMARK  7 active torsions:
REMARK  status: ('A' for Active; 'I' for Inactive)
REMARK    1  A    between atoms: C_1  and  O_2
REMARK    2  A    between atoms: O_2  and  C_3
REMARK    3  A    between atoms: C_3  and  C_5
REMARK    4  A    between atoms: C_6  and  C_7
REMARK    5  A    between atoms: C_9  and  C_10
REMARK    6  A    between atoms: C_11  and  C_12
REMARK    7  A    between atoms: C_12  and  C_14
REMARK                            x       y       z     vdW  Elec       q    Type
REMARK                         _______ _______ _______ _____ _____    ______ ____
ROOT
ATOM      1  C   UNL     1       2.966   3.798  19.510  0.00  0.00    +0.000 A 
ATOM      2  C   UNL     1       1.884   3.822  20.388  0.00  0.00    +0.000 A 
ATOM      3  C   UNL     1       1.151   2.739  21.097  0.00  0.00    +0.000 C 
ATOM      4  N   UNL     1       1.534   5.129  20.596  0.00  0.00    +0.000 N 
ATOM      5  C   UNL     1       2.323   5.957  19.841  0.00  0.00    +0.000 A 
ATOM      6  C   UNL     1       2.135   7.433  19.876  0.00  0.00    +0.000 C 
ATOM      7  C   UNL     1       3.200   5.168  19.098  0.00  0.00    +0.000 A 
ATOM      8  H   UNL     1       0.794   5.442  21.211  0.00  0.00    +0.000 HD
ENDROOT
BRANCH   1   9
ATOM      9  C   UNL     1       3.669   2.580  19.104  0.00  0.00    +0.000 C 
ATOM     10  O   UNL     1       3.218   1.772  18.304  0.00  0.00    +0.000 OA
BRANCH   9  12
ATOM     11  C   UNL     1       4.853   1.567  20.846  0.00  0.00    +0.000 C 
ATOM     12  O   UNL     1       4.876   2.448  19.723  0.00  0.00    +0.000 OA
ENDBRANCH   9  12
ENDBRANCH   1   9
BRANCH   7  13
ATOM     13  C   UNL     1       4.121   5.736  18.097  0.00  0.00    +0.000 C 
ATOM     14  O   UNL     1       3.693   6.342  17.116  0.00  0.00    +0.000 OA
BRANCH  13  15
ATOM     15  C   UNL     1       5.587   5.455  18.170  0.00  0.00    +0.000 A 
ATOM     16  C   UNL     1       6.269   5.772  19.362  0.00  0.00    +0.000 A 
ATOM     17  C   UNL     1       7.633   5.513  19.504  0.00  0.00    +0.000 A 
ATOM     18  C   UNL     1       8.328   4.878  18.483  0.00  0.00    +0.000 A 
ATOM     19  C   UNL     1       7.665   4.527  17.306  0.00  0.00    +0.000 A 
ATOM     20  C   UNL     1       6.303   4.827  17.135  0.00  0.00    +0.000 A 
ATOM     21  I   UNL     1       5.514   4.356  15.242  0.00  0.00    +0.000 I 
ENDBRANCH  13  15
ENDBRANCH   7  13
TORSDOF 4
ENDMDL
MODEL 7
REMARK VINA RESULT:      -7.1      2.495      5.448
REMARK  Name = 
REMARK  7 active torsions:
REMARK  status: ('A' for Active; 'I' for Inactive)
REMARK    1  A    between atoms: C_1  and  O_2
REMARK    2  A    between atoms: O_2  and  C_3
REMARK    3  A    between atoms: C_3  and  C_5
REMARK    4  A    between atoms: C_6  and  C_7
REMARK    5  A    between atoms: C_9  and  C_10
REMARK    6  A    between atoms: C_11  and  C_12
REMARK    7  A    between atoms: C_12  and  C_14
REMARK                            x       y       z     vdW  Elec       q    Type
REMARK                         _______ _______ _______ _____ _____    ______ ____
ROOT
ATOM      1  C   UNL     1       3.188   4.206  19.281  0.00  0.00    +0.000 A 
ATOM      2  C   UNL     1       2.092   4.127  20.137  0.00  0.00    +0.000 A 
ATOM      3  C   UNL     1       1.429   2.974  20.805  0.00  0.00    +0.000 C 
ATOM      4  N   UNL     1       1.641   5.398  20.370  0.00  0.00    +0.000 N 
ATOM      5  C   UNL     1       2.379   6.301  19.651  0.00  0.00    +0.000 A 
ATOM      6  C   UNL     1       2.080   7.759  19.718  0.00  0.00    +0.000 C 
ATOM      7  C   UNL     1       3.326   5.600  18.907  0.00  0.00    +0.000 A 
ATOM      8  H   UNL     1       0.868   5.639  20.977  0.00  0.00    +0.000 HD
ENDROOT
BRANCH   1   9
ATOM      9  C   UNL     1       3.988   3.054  18.859  0.00  0.00    +0.000 C 
ATOM     10  O   UNL     1       3.724   2.366  17.883  0.00  0.00    +0.000 OA
BRANCH   9  12
ATOM     11  C   UNL     1       4.884   1.717  20.555  0.00  0.00    +0.000 C 
ATOM     12  O   UNL     1       5.052   2.835  19.682  0.00  0.00    +0.000 OA
ENDBRANCH   9  12
ENDBRANCH   1   9
BRANCH   7  13
ATOM     13  C   UNL     1       4.220   6.260  17.938  0.00  0.00    +0.000 C 
ATOM     14  O   UNL     1       4.154   7.472  17.741  0.00  0.00    +0.000 OA
BRANCH  13  15
ATOM     15  C   UNL     1       5.120   5.450  17.063  0.00  0.00    +0.000 A 
ATOM     16  C   UNL     1       4.606   4.965  15.843  0.00  0.00    +0.000 A 
ATOM     17  C   UNL     1       5.401   4.222  14.969  0.00  0.00    +0.000 A 
ATOM     18  C   UNL     1       6.740   4.002  15.268  0.00  0.00    +0.000 A 
ATOM     19  C   UNL     1       7.277   4.499  16.455  0.00  0.00    +0.000 A 
ATOM     20  C   UNL     1       6.472   5.207  17.364  0.00  0.00    +0.000 A 
ATOM     21  I   UNL     1       7.419   5.750  19.163  0.00  0.00    +0.000 I 
ENDBRANCH  13  15
ENDBRANCH   7  13
TORSDOF 4
ENDMDL
MODEL 8
REMARK VINA RESULT:      -7.0      2.356      5.543
REMARK  Name = 
REMARK  7 active torsions:
REMARK  status: ('A' for Active; 'I' for Inactive)
REMARK    1  A    between atoms: C_1  and  O_2
REMARK    2  A    between atoms: O_2  and  C_3
REMARK    3  A    between atoms: C_3  and  C_5
REMARK    4  A    between atoms: C_6  and  C_7
REMARK    5  A    between atoms: C_9  and  C_10
REMARK    6  A    between atoms: C_11  and  C_12
REMARK    7  A    between atoms: C_12  and  C_14
REMARK                            x       y       z     vdW  Elec       q    Type
REMARK                         _______ _______ _______ _____ _____    ______ ____
ROOT
ATOM      1  C   UNL     1       3.159   3.473  18.863  0.00  0.00    +0.000 A 
ATOM      2  C   UNL     1       1.840   3.904  18.739  0.00  0.00    +0.000 A 
ATOM      3  C   UNL     1       0.541   3.220  18.981  0.00  0.00    +0.000 C 
ATOM      4  N   UNL     1       1.855   5.218  18.357  0.00  0.00    +0.000 N 
ATOM      5  C   UNL     1       3.145   5.644  18.177  0.00  0.00    +0.000 A 
ATOM      6  C   UNL     1       3.436   7.039  17.746  0.00  0.00    +0.000 C 
ATOM      7  C   UNL     1       3.999   4.572  18.428  0.00  0.00    +0.000 A 
ATOM      8  H   UNL     1       1.034   5.793  18.216  0.00  0.00    +0.000 HD
ENDROOT
BRANCH   1   9
ATOM      9  C   UNL     1       3.550   2.141  19.326  0.00  0.00    +0.000 C 
ATOM     10  O   UNL     1       3.503   1.139  18.627  0.00  0.00    +0.000 OA
BRANCH   9  12
ATOM     11  C   UNL     1       2.912   2.384  21.562  0.00  0.00    +0.000 C 
ATOM     12  O   UNL     1       3.963   2.145  20.625  0.00  0.00    +0.000 OA
ENDBRANCH   9  12
ENDBRANCH   1   9
BRANCH   7  13
ATOM     13  C   UNL     1       5.457   4.656  18.223  0.00  0.00    +0.000 C 
ATOM     14  O   UNL     1       6.222   4.793  19.177  0.00  0.00    +0.000 OA
BRANCH  13  15
ATOM     15  C   UNL     1       6.026   4.730  16.844  0.00  0.00    +0.000 A 
ATOM     16  C   UNL     1       5.695   3.711  15.929  0.00  0.00    +0.000 A 
ATOM     17  C   UNL     1       6.174   3.734  14.618  0.00  0.00    +0.000 A 
ATOM     18  C   UNL     1       6.941   4.806  14.179  0.00  0.00    +0.000 A 
ATOM     19  C   UNL     1       7.255   5.841  15.060  0.00  0.00    +0.000 A 
ATOM     20  C   UNL     1       6.817   5.803  16.395  0.00  0.00    +0.000 A 
ATOM     21  I   UNL     1       7.511   7.376  17.609  0.00  0.00    +0.000 I 
ENDBRANCH  13  15
ENDBRANCH   7  13
TORSDOF 4
ENDMDL
MODEL 9
REMARK VINA RESULT:      -7.0      2.448      3.234
REMARK  Name = 
REMARK  7 active torsions:
REMARK  status: ('A' for Active; 'I' for Inactive)
REMARK    1  A    between atoms: C_1  and  O_2
REMARK    2  A    between atoms: O_2  and  C_3
REMARK    3  A    between atoms: C_3  and  C_5
REMARK    4  A    between atoms: C_6  and  C_7
REMARK    5  A    between atoms: C_9  and  C_10
REMARK    6  A    between atoms: C_11  and  C_12
REMARK    7  A    between atoms: C_12  and  C_14
REMARK                            x       y       z     vdW  Elec       q    Type
REMARK                         _______ _______ _______ _____ _____    ______ ____
ROOT
ATOM      1  C   UNL     1       4.811   5.050  16.564  0.00  0.00    +0.000 A 
ATOM      2  C   UNL     1       5.775   4.087  16.274  0.00  0.00    +0.000 A 
ATOM      3  C   UNL     1       7.098   4.173  15.597  0.00  0.00    +0.000 C 
ATOM      4  N   UNL     1       5.346   2.889  16.777  0.00  0.00    +0.000 N 
ATOM      5  C   UNL     1       4.107   3.030  17.344  0.00  0.00    +0.000 A 
ATOM      6  C   UNL     1       3.408   1.866  17.955  0.00  0.00    +0.000 C 
ATOM      7  C   UNL     1       3.702   4.355  17.186  0.00  0.00    +0.000 A 
ATOM      8  H   UNL     1       5.863   2.020  16.731  0.00  0.00    +0.000 HD
ENDROOT
BRANCH   1   9
ATOM      9  C   UNL     1       4.948   6.473  16.248  0.00  0.00    +0.000 C 
ATOM     10  O   UNL     1       4.782   6.938  15.129  0.00  0.00    +0.000 OA
BRANCH   9  12
ATOM     11  C   UNL     1       6.695   7.375  17.512  0.00  0.00    +0.000 C 
ATOM     12  O   UNL     1       5.287   7.215  17.340  0.00  0.00    +0.000 OA
ENDBRANCH   9  12
ENDBRANCH   1   9
BRANCH   7  13
ATOM     13  C   UNL     1       2.365   4.828  17.590  0.00  0.00    +0.000 C 
ATOM     14  O   UNL     1       1.349   4.382  17.058  0.00  0.00    +0.000 OA
BRANCH  13  15
ATOM     15  C   UNL     1       2.221   5.969  18.544  0.00  0.00    +0.000 A 
ATOM     16  C   UNL     1       2.186   7.277  18.021  0.00  0.00    +0.000 A 
ATOM     17  C   UNL     1       2.030   8.384  18.856  0.00  0.00    +0.000 A 
ATOM     18  C   UNL     1       1.844   8.203  20.220  0.00  0.00    +0.000 A 
ATOM     19  C   UNL     1       1.843   6.915  20.755  0.00  0.00    +0.000 A 
ATOM     20  C   UNL     1       2.048   5.796  19.929  0.00  0.00    +0.000 A 
ATOM     21  I   UNL     1       2.162   3.951  20.934  0.00  0.00    +0.000 I 
ENDBRANCH  13  15
ENDBRANCH   7  13
TORSDOF 4
ENDMDL
