MODEL 1
REMARK VINA RESULT:      -7.2      0.000      0.000
REMARK  Name = 
REMARK  9 active torsions:
REMARK  status: ('A' for Active; 'I' for Inactive)
REMARK    1  A    between atoms: C_2  and  C_3
REMARK    2  A    between atoms: C_3  and  O_4
REMARK    3  A    between atoms: O_4  and  C_5
REMARK    4  A    between atoms: C_5  and  C_7
REMARK    5  A    between atoms: C_7  and  C_8
REMARK    6  A    between atoms: C_8  and  S_9
REMARK    7  A    between atoms: S_9  and  C_10
REMARK    8  A    between atoms: N_16  and  C_17
REMARK    9  A    between atoms: C_17  and  C_18
REMARK                            x       y       z     vdW  Elec       q    Type
REMARK                         _______ _______ _______ _____ _____    ______ ____
ROOT
ATOM      1  C   UNL     1       7.947   6.573  18.867  0.00  0.00    +0.000 C 
ENDROOT
BRANCH   1   3
ATOM      2  O   UNL     1       7.290   7.844  16.913  0.00  0.00    +0.000 OA
ATOM      3  C   UNL     1       7.899   7.824  17.981  0.00  0.00    +0.000 C 
ATOM      4  N   UNL     1       8.581   8.905  18.489  0.00  0.00    +0.000 N 
ATOM      5  H   UNL     1       9.008   8.822  19.404  0.00  0.00    +0.000 HD
BRANCH   4   6
ATOM      6  C   UNL     1       8.677  10.186  17.814  0.00  0.00    +0.000 C 
BRANCH   6   7
ATOM      7  C   UNL     1       9.439  11.160  18.676  0.00  0.00    +0.000 A 
ATOM      8  C   UNL     1       9.689  10.871  20.024  0.00  0.00    +0.000 A 
ATOM      9  C   UNL     1      10.277  11.825  20.858  0.00  0.00    +0.000 A 
ATOM     10  C   UNL     1      10.630  13.074  20.350  0.00  0.00    +0.000 A 
ATOM     11  C   UNL     1      10.419  13.361  19.002  0.00  0.00    +0.000 A 
ATOM     12  C   UNL     1       9.828  12.410  18.168  0.00  0.00    +0.000 A 
ENDBRANCH   6   7
ENDBRANCH   4   6
ENDBRANCH   1   3
BRANCH   1  13
ATOM     13  O   UNL     1       6.940   5.612  18.543  0.00  0.00    +0.000 OA
BRANCH  13  14
ATOM     14  C   UNL     1       7.319   4.673  17.637  0.00  0.00    +0.000 C 
ATOM     15  O   UNL     1       8.409   4.113  17.632  0.00  0.00    +0.000 OA
BRANCH  14  16
ATOM     16  C   UNL     1       6.208   4.370  16.663  0.00  0.00    +0.000 C 
BRANCH  16  17
ATOM     17  C   UNL     1       4.880   4.965  17.117  0.00  0.00    +0.000 C 
BRANCH  17  18
ATOM     18  S   UNL     1       3.537   3.755  16.835  0.00  0.00    +0.000 S 
BRANCH  18  19
ATOM     19  C   UNL     1       2.661   3.817  18.394  0.00  0.00    +0.000 A 
ATOM     20  C   UNL     1       2.966   4.835  19.302  0.00  0.00    +0.000 A 
ATOM     21  C   UNL     1       2.249   4.966  20.499  0.00  0.00    +0.000 A 
ATOM     22  C   UNL     1       1.206   4.084  20.784  0.00  0.00    +0.000 A 
ATOM     23  C   UNL     1       0.885   3.078  19.875  0.00  0.00    +0.000 A 
ATOM     24  C   UNL     1       1.606   2.943  18.684  0.00  0.00    +0.000 A 
ENDBRANCH  18  19
ENDBRANCH  17  18
ENDBRANCH  16  17
ENDBRANCH  14  16
ENDBRANCH  13  14
ENDBRANCH   1  13
TORSDOF 9
ENDMDL
MODEL 2
REMARK VINA RESULT:      -6.9      1.201      1.480
REMARK  Name = 
REMARK  9 active torsions:
REMARK  status: ('A' for Active; 'I' for Inactive)
REMARK    1  A    between atoms: C_2  and  C_3
REMARK    2  A    between atoms: C_3  and  O_4
REMARK    3  A    between atoms: O_4  and  C_5
REMARK    4  A    between atoms: C_5  and  C_7
REMARK    5  A    between atoms: C_7  and  C_8
REMARK    6  A    between atoms: C_8  and  S_9
REMARK    7  A    between atoms: S_9  and  C_10
REMARK    8  A    between atoms: N_16  and  C_17
REMARK    9  A    between atoms: C_17  and  C_18
REMARK                            x       y       z     vdW  Elec       q    Type
REMARK                         _______ _______ _______ _____ _____    ______ ____
ROOT
ATOM      1  C   UNL     1       7.921   6.278  17.849  0.00  0.00    +0.000 C 
ENDROOT
BRANCH   1   3
ATOM      2  O   UNL     1       6.659   8.083  16.840  0.00  0.00    +0.000 OA
ATOM      3  C   UNL     1       7.589   7.750  17.573  0.00  0.00    +0.000 C 
ATOM      4  N   UNL     1       8.408   8.647  18.218  0.00  0.00    +0.000 N 
ATOM      5  H   UNL     1       9.115   8.288  18.850  0.00  0.00    +0.000 HD
BRANCH   4   6
ATOM      6  C   UNL     1       8.282  10.086  18.094  0.00  0.00    +0.000 C 
BRANCH   6   7
ATOM      7  C   UNL     1       9.451  10.760  18.767  0.00  0.00    +0.000 A 
ATOM      8  C   UNL     1       9.419  11.031  20.142  0.00  0.00    +0.000 A 
ATOM      9  C   UNL     1      10.439  11.771  20.743  0.00  0.00    +0.000 A 
ATOM     10  C   UNL     1      11.506  12.241  19.978  0.00  0.00    +0.000 A 
ATOM     11  C   UNL     1      11.567  11.949  18.616  0.00  0.00    +0.000 A 
ATOM     12  C   UNL     1      10.546  11.211  18.013  0.00  0.00    +0.000 A 
ENDBRANCH   6   7
ENDBRANCH   4   6
ENDBRANCH   1   3
BRANCH   1  13
ATOM     13  O   UNL     1       6.783   5.416  17.761  0.00  0.00    +0.000 OA
BRANCH  13  14
ATOM     14  C   UNL     1       6.090   5.268  18.920  0.00  0.00    +0.000 C 
ATOM     15  O   UNL     1       6.600   5.209  20.032  0.00  0.00    +0.000 OA
BRANCH  14  16
ATOM     16  C   UNL     1       4.603   5.234  18.669  0.00  0.00    +0.000 C 
BRANCH  16  17
ATOM     17  C   UNL     1       4.282   4.851  17.229  0.00  0.00    +0.000 C 
BRANCH  17  18
ATOM     18  S   UNL     1       3.001   3.544  17.212  0.00  0.00    +0.000 S 
BRANCH  18  19
ATOM     19  C   UNL     1       2.593   3.414  18.950  0.00  0.00    +0.000 A 
ATOM     20  C   UNL     1       1.470   4.092  19.434  0.00  0.00    +0.000 A 
ATOM     21  C   UNL     1       1.072   3.954  20.770  0.00  0.00    +0.000 A 
ATOM     22  C   UNL     1       1.790   3.118  21.627  0.00  0.00    +0.000 A 
ATOM     23  C   UNL     1       2.900   2.425  21.145  0.00  0.00    +0.000 A 
ATOM     24  C   UNL     1       3.301   2.570  19.814  0.00  0.00    +0.000 A 
ENDBRANCH  18  19
ENDBRANCH  17  18
ENDBRANCH  16  17
ENDBRANCH  14  16
ENDBRANCH  13  14
ENDBRANCH   1  13
TORSDOF 9
ENDMDL
MODEL 3
REMARK VINA RESULT:      -6.9      2.407      9.190
REMARK  Name = 
REMARK  9 active torsions:
REMARK  status: ('A' for Active; 'I' for Inactive)
REMARK    1  A    between atoms: C_2  and  C_3
REMARK    2  A    between atoms: C_3  and  O_4
REMARK    3  A    between atoms: O_4  and  C_5
REMARK    4  A    between atoms: C_5  and  C_7
REMARK    5  A    between atoms: C_7  and  C_8
REMARK    6  A    between atoms: C_8  and  S_9
REMARK    7  A    between atoms: S_9  and  C_10
REMARK    8  A    between atoms: N_16  and  C_17
REMARK    9  A    between atoms: C_17  and  C_18
REMARK                            x       y       z     vdW  Elec       q    Type
REMARK                         _______ _______ _______ _____ _____    ______ ____
ROOT
ATOM      1  C   UNL     1       6.528   5.210  16.425  0.00  0.00    +0.000 C 
ENDROOT
BRANCH   1   3
ATOM      2  O   UNL     1       5.597   3.069  15.781  0.00  0.00    +0.000 OA
ATOM      3  C   UNL     1       5.408   4.169  16.296  0.00  0.00    +0.000 C 
ATOM      4  N   UNL     1       4.198   4.572  16.811  0.00  0.00    +0.000 N 
ATOM      5  H   UNL     1       4.143   5.474  17.269  0.00  0.00    +0.000 HD
BRANCH   4   6
ATOM      6  C   UNL     1       3.001   3.753  16.788  0.00  0.00    +0.000 C 
BRANCH   6   7
ATOM      7  C   UNL     1       2.279   3.867  18.107  0.00  0.00    +0.000 A 
ATOM      8  C   UNL     1       2.247   5.088  18.794  0.00  0.00    +0.000 A 
ATOM      9  C   UNL     1       1.695   5.166  20.074  0.00  0.00    +0.000 A 
ATOM     10  C   UNL     1       1.161   4.028  20.677  0.00  0.00    +0.000 A 
ATOM     11  C   UNL     1       1.157   2.815  19.989  0.00  0.00    +0.000 A 
ATOM     12  C   UNL     1       1.711   2.735  18.710  0.00  0.00    +0.000 A 
ENDBRANCH   6   7
ENDBRANCH   4   6
ENDBRANCH   1   3
BRANCH   1  13
ATOM     13  O   UNL     1       7.452   4.918  17.476  0.00  0.00    +0.000 OA
BRANCH  13  14
ATOM     14  C   UNL     1       7.587   5.900  18.405  0.00  0.00    +0.000 C 
ATOM     15  O   UNL     1       7.749   5.705  19.603  0.00  0.00    +0.000 OA
BRANCH  14  16
ATOM     16  C   UNL     1       7.561   7.267  17.767  0.00  0.00    +0.000 C 
BRANCH  16  17
ATOM     17  C   UNL     1       8.429   8.262  18.528  0.00  0.00    +0.000 C 
BRANCH  17  18
ATOM     18  S   UNL     1       8.067   9.961  17.950  0.00  0.00    +0.000 S 
BRANCH  18  19
ATOM     19  C   UNL     1       9.455  10.873  18.615  0.00  0.00    +0.000 A 
ATOM     20  C   UNL     1       9.535  11.072  19.996  0.00  0.00    +0.000 A 
ATOM     21  C   UNL     1      10.645  11.712  20.564  0.00  0.00    +0.000 A 
ATOM     22  C   UNL     1      11.692  12.143  19.747  0.00  0.00    +0.000 A 
ATOM     23  C   UNL     1      11.626  11.932  18.371  0.00  0.00    +0.000 A 
ATOM     24  C   UNL     1      10.514  11.300  17.805  0.00  0.00    +0.000 A 
ENDBRANCH  18  19
ENDBRANCH  17  18
ENDBRANCH  16  17
ENDBRANCH  14  16
ENDBRANCH  13  14
ENDBRANCH   1  13
TORSDOF 9
ENDMDL
MODEL 4
REMARK VINA RESULT:      -6.9      4.580      6.934
REMARK  Name = 
REMARK  9 active torsions:
REMARK  status: ('A' for Active; 'I' for Inactive)
REMARK    1  A    between atoms: C_2  and  C_3
REMARK    2  A    between atoms: C_3  and  O_4
REMARK    3  A    between atoms: O_4  and  C_5
REMARK    4  A    between atoms: C_5  and  C_7
REMARK    5  A    between atoms: C_7  and  C_8
REMARK    6  A    between atoms: C_8  and  S_9
REMARK    7  A    between atoms: S_9  and  C_10
REMARK    8  A    between atoms: N_16  and  C_17
REMARK    9  A    between atoms: C_17  and  C_18
REMARK                            x       y       z     vdW  Elec       q    Type
REMARK                         _______ _______ _______ _____ _____    ______ ____
ROOT
ATOM      1  C   UNL     1       7.776   4.439  17.520  0.00  0.00    +0.000 C 
ENDROOT
BRANCH   1   3
ATOM      2  O   UNL     1       7.565   6.333  16.025  0.00  0.00    +0.000 OA
ATOM      3  C   UNL     1       7.214   5.188  16.306  0.00  0.00    +0.000 C 
ATOM      4  N   UNL     1       6.304   4.468  15.567  0.00  0.00    +0.000 N 
ATOM      5  H   UNL     1       6.114   3.509  15.835  0.00  0.00    +0.000 HD
BRANCH   4   6
ATOM      6  C   UNL     1       5.640   4.982  14.385  0.00  0.00    +0.000 C 
BRANCH   6   7
ATOM      7  C   UNL     1       5.738   3.975  13.266  0.00  0.00    +0.000 A 
ATOM      8  C   UNL     1       6.990   3.529  12.821  0.00  0.00    +0.000 A 
ATOM      9  C   UNL     1       7.091   2.701  11.701  0.00  0.00    +0.000 A 
ATOM     10  C   UNL     1       5.942   2.303  11.021  0.00  0.00    +0.000 A 
ATOM     11  C   UNL     1       4.688   2.712  11.474  0.00  0.00    +0.000 A 
ATOM     12  C   UNL     1       4.586   3.542  12.592  0.00  0.00    +0.000 A 
ENDBRANCH   6   7
ENDBRANCH   4   6
ENDBRANCH   1   3
BRANCH   1  13
ATOM     13  O   UNL     1       6.785   4.134  18.505  0.00  0.00    +0.000 OA
BRANCH  13  14
ATOM     14  C   UNL     1       6.423   5.180  19.292  0.00  0.00    +0.000 C 
ATOM     15  O   UNL     1       7.209   5.908  19.886  0.00  0.00    +0.000 OA
BRANCH  14  16
ATOM     16  C   UNL     1       4.926   5.366  19.304  0.00  0.00    +0.000 C 
BRANCH  16  17
ATOM     17  C   UNL     1       4.459   6.265  18.165  0.00  0.00    +0.000 C 
BRANCH  17  18
ATOM     18  S   UNL     1       2.681   6.648  18.375  0.00  0.00    +0.000 S 
BRANCH  18  19
ATOM     19  C   UNL     1       2.031   5.070  18.913  0.00  0.00    +0.000 A 
ATOM     20  C   UNL     1       1.651   4.915  20.249  0.00  0.00    +0.000 A 
ATOM     21  C   UNL     1       1.064   3.722  20.692  0.00  0.00    +0.000 A 
ATOM     22  C   UNL     1       0.840   2.680  19.789  0.00  0.00    +0.000 A 
ATOM     23  C   UNL     1       1.201   2.836  18.452  0.00  0.00    +0.000 A 
ATOM     24  C   UNL     1       1.793   4.024  18.013  0.00  0.00    +0.000 A 
ENDBRANCH  18  19
ENDBRANCH  17  18
ENDBRANCH  16  17
ENDBRANCH  14  16
ENDBRANCH  13  14
ENDBRANCH   1  13
TORSDOF 9
ENDMDL
MODEL 5
REMARK VINA RESULT:      -6.8      4.097      7.131
REMARK  Name = 
REMARK  9 active torsions:
REMARK  status: ('A' for Active; 'I' for Inactive)
REMARK    1  A    between atoms: C_2  and  C_3
REMARK    2  A    between atoms: C_3  and  O_4
REMARK    3  A    between atoms: O_4  and  C_5
REMARK    4  A    between atoms: C_5  and  C_7
REMARK    5  A    between atoms: C_7  and  C_8
REMARK    6  A    between atoms: C_8  and  S_9
REMARK    7  A    between atoms: S_9  and  C_10
REMARK    8  A    between atoms: N_16  and  C_17
REMARK    9  A    between atoms: C_17  and  C_18
REMARK                            x       y       z     vdW  Elec       q    Type
REMARK                         _______ _______ _______ _____ _____    ______ ____
ROOT
ATOM      1  C   UNL     1       0.925   3.073  18.667  0.00  0.00    +0.000 C 
ENDROOT
BRANCH   1   3
ATOM      2  O   UNL     1       1.149   3.721  20.990  0.00  0.00    +0.000 OA
ATOM      3  C   UNL     1       1.324   4.016  19.809  0.00  0.00    +0.000 C 
ATOM      4  N   UNL     1       1.894   5.198  19.396  0.00  0.00    +0.000 N 
ATOM      5  H   UNL     1       2.053   5.337  18.405  0.00  0.00    +0.000 HD
BRANCH   4   6
ATOM      6  C   UNL     1       2.336   6.239  20.304  0.00  0.00    +0.000 C 
BRANCH   6   7
ATOM      7  C   UNL     1       2.030   7.593  19.714  0.00  0.00    +0.000 A 
ATOM      8  C   UNL     1       1.309   8.541  20.452  0.00  0.00    +0.000 A 
ATOM      9  C   UNL     1       0.910   9.744  19.863  0.00  0.00    +0.000 A 
ATOM     10  C   UNL     1       1.237  10.014  18.536  0.00  0.00    +0.000 A 
ATOM     11  C   UNL     1       1.984   9.094  17.802  0.00  0.00    +0.000 A 
ATOM     12  C   UNL     1       2.381   7.890  18.388  0.00  0.00    +0.000 A 
ENDBRANCH   6   7
ENDBRANCH   4   6
ENDBRANCH   1   3
BRANCH   1  13
ATOM     13  O   UNL     1       1.745   1.904  18.588  0.00  0.00    +0.000 OA
BRANCH  13  14
ATOM     14  C   UNL     1       3.059   2.145  18.344  0.00  0.00    +0.000 C 
ATOM     15  O   UNL     1       3.974   1.836  19.100  0.00  0.00    +0.000 OA
BRANCH  14  16
ATOM     16  C   UNL     1       3.258   2.800  17.000  0.00  0.00    +0.000 C 
BRANCH  16  17
ATOM     17  C   UNL     1       3.993   4.130  17.123  0.00  0.00    +0.000 C 
BRANCH  17  18
ATOM     18  S   UNL     1       5.539   4.069  16.146  0.00  0.00    +0.000 S 
BRANCH  18  19
ATOM     19  C   UNL     1       6.604   5.160  17.084  0.00  0.00    +0.000 A 
ATOM     20  C   UNL     1       6.680   6.508  16.721  0.00  0.00    +0.000 A 
ATOM     21  C   UNL     1       7.440   7.410  17.476  0.00  0.00    +0.000 A 
ATOM     22  C   UNL     1       8.115   6.968  18.615  0.00  0.00    +0.000 A 
ATOM     23  C   UNL     1       8.028   5.629  18.992  0.00  0.00    +0.000 A 
ATOM     24  C   UNL     1       7.277   4.727  18.233  0.00  0.00    +0.000 A 
ENDBRANCH  18  19
ENDBRANCH  17  18
ENDBRANCH  16  17
ENDBRANCH  14  16
ENDBRANCH  13  14
ENDBRANCH   1  13
TORSDOF 9
ENDMDL
MODEL 6
REMARK VINA RESULT:      -6.8      1.355      1.881
REMARK  Name = 
REMARK  9 active torsions:
REMARK  status: ('A' for Active; 'I' for Inactive)
REMARK    1  A    between atoms: C_2  and  C_3
REMARK    2  A    between atoms: C_3  and  O_4
REMARK    3  A    between atoms: O_4  and  C_5
REMARK    4  A    between atoms: C_5  and  C_7
REMARK    5  A    between atoms: C_7  and  C_8
REMARK    6  A    between atoms: C_8  and  S_9
REMARK    7  A    between atoms: S_9  and  C_10
REMARK    8  A    between atoms: N_16  and  C_17
REMARK    9  A    between atoms: C_17  and  C_18
REMARK                            x       y       z     vdW  Elec       q    Type
REMARK                         _______ _______ _______ _____ _____    ______ ____
ROOT
ATOM      1  C   UNL     1       6.800   7.237  17.049  0.00  0.00    +0.000 C 
ENDROOT
BRANCH   1   3
ATOM      2  O   UNL     1       8.282   6.782  18.910  0.00  0.00    +0.000 OA
ATOM      3  C   UNL     1       7.844   7.607  18.110  0.00  0.00    +0.000 C 
ATOM      4  N   UNL     1       8.245   8.922  18.076  0.00  0.00    +0.000 N 
ATOM      5  H   UNL     1       7.876   9.522  17.348  0.00  0.00    +0.000 HD
BRANCH   4   6
ATOM      6  C   UNL     1       9.215   9.491  18.992  0.00  0.00    +0.000 C 
BRANCH   6   7
ATOM      7  C   UNL     1       9.100  10.995  18.986  0.00  0.00    +0.000 A 
ATOM      8  C   UNL     1       8.776  11.677  17.806  0.00  0.00    +0.000 A 
ATOM      9  C   UNL     1       8.799  13.073  17.765  0.00  0.00    +0.000 A 
ATOM     10  C   UNL     1       9.135  13.801  18.905  0.00  0.00    +0.000 A 
ATOM     11  C   UNL     1       9.424  13.134  20.095  0.00  0.00    +0.000 A 
ATOM     12  C   UNL     1       9.406  11.739  20.137  0.00  0.00    +0.000 A 
ENDBRANCH   6   7
ENDBRANCH   4   6
ENDBRANCH   1   3
BRANCH   1  13
ATOM     13  O   UNL     1       7.304   6.355  16.043  0.00  0.00    +0.000 OA
BRANCH  13  14
ATOM     14  C   UNL     1       6.480   5.324  15.722  0.00  0.00    +0.000 C 
ATOM     15  O   UNL     1       6.025   5.121  14.603  0.00  0.00    +0.000 OA
BRANCH  14  16
ATOM     16  C   UNL     1       6.231   4.431  16.912  0.00  0.00    +0.000 C 
BRANCH  16  17
ATOM     17  C   UNL     1       4.790   3.933  16.952  0.00  0.00    +0.000 C 
BRANCH  17  18
ATOM     18  S   UNL     1       3.706   5.246  17.624  0.00  0.00    +0.000 S 
BRANCH  18  19
ATOM     19  C   UNL     1       2.702   4.328  18.786  0.00  0.00    +0.000 A 
ATOM     20  C   UNL     1       2.839   4.588  20.152  0.00  0.00    +0.000 A 
ATOM     21  C   UNL     1       2.016   3.948  21.088  0.00  0.00    +0.000 A 
ATOM     22  C   UNL     1       1.036   3.052  20.656  0.00  0.00    +0.000 A 
ATOM     23  C   UNL     1       0.883   2.802  19.293  0.00  0.00    +0.000 A 
ATOM     24  C   UNL     1       1.710   3.436  18.360  0.00  0.00    +0.000 A 
ENDBRANCH  18  19
ENDBRANCH  17  18
ENDBRANCH  16  17
ENDBRANCH  14  16
ENDBRANCH  13  14
ENDBRANCH   1  13
TORSDOF 9
ENDMDL
MODEL 7
REMARK VINA RESULT:      -6.8      1.501      1.930
REMARK  Name = 
REMARK  9 active torsions:
REMARK  status: ('A' for Active; 'I' for Inactive)
REMARK    1  A    between atoms: C_2  and  C_3
REMARK    2  A    between atoms: C_3  and  O_4
REMARK    3  A    between atoms: O_4  and  C_5
REMARK    4  A    between atoms: C_5  and  C_7
REMARK    5  A    between atoms: C_7  and  C_8
REMARK    6  A    between atoms: C_8  and  S_9
REMARK    7  A    between atoms: S_9  and  C_10
REMARK    8  A    between atoms: N_16  and  C_17
REMARK    9  A    between atoms: C_17  and  C_18
REMARK                            x       y       z     vdW  Elec       q    Type
REMARK                         _______ _______ _______ _____ _____    ______ ____
ROOT
ATOM      1  C   UNL     1       7.106   7.500  16.910  0.00  0.00    +0.000 C 
ENDROOT
BRANCH   1   3
ATOM      2  O   UNL     1       8.477   7.103  18.867  0.00  0.00    +0.000 OA
ATOM      3  C   UNL     1       8.022   7.919  18.067  0.00  0.00    +0.000 C 
ATOM      4  N   UNL     1       8.289   9.267  18.119  0.00  0.00    +0.000 N 
ATOM      5  H   UNL     1       7.920   9.862  17.387  0.00  0.00    +0.000 HD
BRANCH   4   6
ATOM      6  C   UNL     1       9.123   9.884  19.133  0.00  0.00    +0.000 C 
BRANCH   6   7
ATOM      7  C   UNL     1       9.735  11.150  18.589  0.00  0.00    +0.000 A 
ATOM      8  C   UNL     1       8.924  12.146  18.028  0.00  0.00    +0.000 A 
ATOM      9  C   UNL     1       9.495  13.258  17.406  0.00  0.00    +0.000 A 
ATOM     10  C   UNL     1      10.881  13.391  17.346  0.00  0.00    +0.000 A 
ATOM     11  C   UNL     1      11.698  12.424  17.930  0.00  0.00    +0.000 A 
ATOM     12  C   UNL     1      11.129  11.310  18.551  0.00  0.00    +0.000 A 
ENDBRANCH   6   7
ENDBRANCH   4   6
ENDBRANCH   1   3
BRANCH   1  13
ATOM     13  O   UNL     1       7.605   6.383  16.170  0.00  0.00    +0.000 OA
BRANCH  13  14
ATOM     14  C   UNL     1       6.728   5.356  16.028  0.00  0.00    +0.000 C 
ATOM     15  O   UNL     1       6.172   5.057  14.978  0.00  0.00    +0.000 OA
BRANCH  14  16
ATOM     16  C   UNL     1       6.560   4.595  17.320  0.00  0.00    +0.000 C 
BRANCH  16  17
ATOM     17  C   UNL     1       5.103   4.562  17.770  0.00  0.00    +0.000 C 
BRANCH  17  18
ATOM     18  S   UNL     1       4.863   3.205  18.975  0.00  0.00    +0.000 S 
BRANCH  18  19
ATOM     19  C   UNL     1       3.231   3.569  19.610  0.00  0.00    +0.000 A 
ATOM     20  C   UNL     1       2.984   4.831  20.159  0.00  0.00    +0.000 A 
ATOM     21  C   UNL     1       1.700   5.183  20.595  0.00  0.00    +0.000 A 
ATOM     22  C   UNL     1       0.649   4.273  20.467  0.00  0.00    +0.000 A 
ATOM     23  C   UNL     1       0.885   3.020  19.905  0.00  0.00    +0.000 A 
ATOM     24  C   UNL     1       2.169   2.667  19.477  0.00  0.00    +0.000 A 
ENDBRANCH  18  19
ENDBRANCH  17  18
ENDBRANCH  16  17
ENDBRANCH  14  16
ENDBRANCH  13  14
ENDBRANCH   1  13
TORSDOF 9
ENDMDL
MODEL 8
REMARK VINA RESULT:      -6.8      2.675      9.629
REMARK  Name = 
REMARK  9 active torsions:
REMARK  status: ('A' for Active; 'I' for Inactive)
REMARK    1  A    between atoms: C_2  and  C_3
REMARK    2  A    between atoms: C_3  and  O_4
REMARK    3  A    between atoms: O_4  and  C_5
REMARK    4  A    between atoms: C_5  and  C_7
REMARK    5  A    between atoms: C_7  and  C_8
REMARK    6  A    between atoms: C_8  and  S_9
REMARK    7  A    between atoms: S_9  and  C_10
REMARK    8  A    between atoms: N_16  and  C_17
REMARK    9  A    between atoms: C_17  and  C_18
REMARK                            x       y       z     vdW  Elec       q    Type
REMARK                         _______ _______ _______ _____ _____    ______ ____
ROOT
ATOM      1  C   UNL     1       5.241   6.690  16.721  0.00  0.00    +0.000 C 
ENDROOT
BRANCH   1   3
ATOM      2  O   UNL     1       5.570   4.385  16.057  0.00  0.00    +0.000 OA
ATOM      3  C   UNL     1       4.879   5.201  16.664  0.00  0.00    +0.000 C 
ATOM      4  N   UNL     1       3.735   4.869  17.352  0.00  0.00    +0.000 N 
ATOM      5  H   UNL     1       3.256   5.594  17.873  0.00  0.00    +0.000 HD
BRANCH   4   6
ATOM      6  C   UNL     1       3.202   3.522  17.424  0.00  0.00    +0.000 C 
BRANCH   6   7
ATOM      7  C   UNL     1       2.607   3.282  18.789  0.00  0.00    +0.000 A 
ATOM      8  C   UNL     1       1.299   3.695  19.075  0.00  0.00    +0.000 A 
ATOM      9  C   UNL     1       0.791   3.594  20.372  0.00  0.00    +0.000 A 
ATOM     10  C   UNL     1       1.582   3.071  21.394  0.00  0.00    +0.000 A 
ATOM     11  C   UNL     1       2.873   2.624  21.114  0.00  0.00    +0.000 A 
ATOM     12  C   UNL     1       3.383   2.727  19.819  0.00  0.00    +0.000 A 
ENDBRANCH   6   7
ENDBRANCH   4   6
ENDBRANCH   1   3
BRANCH   1  13
ATOM     13  O   UNL     1       6.154   7.010  17.773  0.00  0.00    +0.000 OA
BRANCH  13  14
ATOM     14  C   UNL     1       7.452   7.121  17.388  0.00  0.00    +0.000 C 
ATOM     15  O   UNL     1       7.892   6.734  16.312  0.00  0.00    +0.000 OA
BRANCH  14  16
ATOM     16  C   UNL     1       8.277   7.827  18.435  0.00  0.00    +0.000 C 
BRANCH  16  17
ATOM     17  C   UNL     1       8.438   9.310  18.121  0.00  0.00    +0.000 C 
BRANCH  17  18
ATOM     18  S   UNL     1       9.112  10.178  19.585  0.00  0.00    +0.000 S 
BRANCH  18  19
ATOM     19  C   UNL     1       9.777  11.667  18.850  0.00  0.00    +0.000 A 
ATOM     20  C   UNL     1       9.713  12.864  19.569  0.00  0.00    +0.000 A 
ATOM     21  C   UNL     1      10.292  14.035  19.063  0.00  0.00    +0.000 A 
ATOM     22  C   UNL     1      10.957  14.008  17.836  0.00  0.00    +0.000 A 
ATOM     23  C   UNL     1      11.040  12.813  17.123  0.00  0.00    +0.000 A 
ATOM     24  C   UNL     1      10.455  11.646  17.625  0.00  0.00    +0.000 A 
ENDBRANCH  18  19
ENDBRANCH  17  18
ENDBRANCH  16  17
ENDBRANCH  14  16
ENDBRANCH  13  14
ENDBRANCH   1  13
TORSDOF 9
ENDMDL
MODEL 9
REMARK VINA RESULT:      -6.7      4.653      7.432
REMARK  Name = 
REMARK  9 active torsions:
REMARK  status: ('A' for Active; 'I' for Inactive)
REMARK    1  A    between atoms: C_2  and  C_3
REMARK    2  A    between atoms: C_3  and  O_4
REMARK    3  A    between atoms: O_4  and  C_5
REMARK    4  A    between atoms: C_5  and  C_7
REMARK    5  A    between atoms: C_7  and  C_8
REMARK    6  A    between atoms: C_8  and  S_9
REMARK    7  A    between atoms: S_9  and  C_10
REMARK    8  A    between atoms: N_16  and  C_17
REMARK    9  A    between atoms: C_17  and  C_18
REMARK                            x       y       z     vdW  Elec       q    Type
REMARK                         _______ _______ _______ _____ _____    ______ ____
ROOT
ATOM      1  C   UNL     1       3.010   7.172  18.314  0.00  0.00    +0.000 C 
ENDROOT
BRANCH   1   3
ATOM      2  O   UNL     1       2.291   9.141  17.100  0.00  0.00    +0.000 OA
ATOM      3  C   UNL     1       2.218   8.472  18.130  0.00  0.00    +0.000 C 
ATOM      4  N   UNL     1       1.425   8.810  19.202  0.00  0.00    +0.000 N 
ATOM      5  H   UNL     1       1.380   8.173  19.989  0.00  0.00    +0.000 HD
BRANCH   4   6
ATOM      6  C   UNL     1       0.600  10.001  19.250  0.00  0.00    +0.000 C 
BRANCH   6   7
ATOM      7  C   UNL     1      -0.025  10.135  20.616  0.00  0.00    +0.000 A 
ATOM      8  C   UNL     1      -0.680  11.318  20.984  0.00  0.00    +0.000 A 
ATOM      9  C   UNL     1      -1.143  11.496  22.289  0.00  0.00    +0.000 A 
ATOM     10  C   UNL     1      -0.965  10.490  23.237  0.00  0.00    +0.000 A 
ATOM     11  C   UNL     1      -0.346   9.294  22.874  0.00  0.00    +0.000 A 
ATOM     12  C   UNL     1       0.120   9.116  21.570  0.00  0.00    +0.000 A 
ENDBRANCH   6   7
ENDBRANCH   4   6
ENDBRANCH   1   3
BRANCH   1  13
ATOM     13  O   UNL     1       2.214   5.997  18.144  0.00  0.00    +0.000 OA
BRANCH  13  14
ATOM     14  C   UNL     1       1.961   5.310  19.288  0.00  0.00    +0.000 C 
ATOM     15  O   UNL     1       2.006   5.793  20.413  0.00  0.00    +0.000 OA
BRANCH  14  16
ATOM     16  C   UNL     1       1.570   3.882  18.997  0.00  0.00    +0.000 C 
BRANCH  16  17
ATOM     17  C   UNL     1       2.563   3.205  18.059  0.00  0.00    +0.000 C 
BRANCH  17  18
ATOM     18  S   UNL     1       4.160   2.971  18.921  0.00  0.00    +0.000 S 
BRANCH  18  19
ATOM     19  C   UNL     1       5.186   4.200  18.122  0.00  0.00    +0.000 A 
ATOM     20  C   UNL     1       5.048   4.407  16.747  0.00  0.00    +0.000 A 
ATOM     21  C   UNL     1       5.776   5.413  16.098  0.00  0.00    +0.000 A 
ATOM     22  C   UNL     1       6.637   6.231  16.831  0.00  0.00    +0.000 A 
ATOM     23  C   UNL     1       6.765   6.041  18.206  0.00  0.00    +0.000 A 
ATOM     24  C   UNL     1       6.045   5.032  18.851  0.00  0.00    +0.000 A 
ENDBRANCH  18  19
ENDBRANCH  17  18
ENDBRANCH  16  17
ENDBRANCH  14  16
ENDBRANCH  13  14
ENDBRANCH   1  13
TORSDOF 9
ENDMDL
