MODEL 1
REMARK VINA RESULT:      -6.5      0.000      0.000
REMARK  Name = 
REMARK  5 active torsions:
REMARK  status: ('A' for Active; 'I' for Inactive)
REMARK    1  A    between atoms: C_1  and  C_2
REMARK    2  A    between atoms: C_2  and  C_3
REMARK    3  A    between atoms: N_9  and  C_10
REMARK    4  A    between atoms: C_14  and  C_16
REMARK    5  A    between atoms: C_17  and  N_18
REMARK                            x       y       z     vdW  Elec       q    Type
REMARK                         _______ _______ _______ _____ _____    ______ ____
ROOT
ATOM      1  C   UNL     1      -1.389  12.952  22.921  0.00  0.00    +0.000 C 
ATOM      2  C   UNL     1      -1.877  14.073  22.014  0.00  0.00    +0.000 C 
ATOM      3  C   UNL     1      -3.312  13.876  21.547  0.00  0.00    +0.000 C 
ATOM      4  N   UNL     1      -4.286  13.419  22.548  0.00  0.00    +0.000 N 
ATOM      5  C   UNL     1      -5.648  13.148  22.189  0.00  0.00    +0.000 C 
ATOM      6  O   UNL     1      -6.379  12.524  22.959  0.00  0.00    +0.000 OA
ATOM      7  C   UNL     1      -3.791  12.593  23.656  0.00  0.00    +0.000 C 
ATOM      8  C   UNL     1      -2.375  12.921  24.103  0.00  0.00    +0.000 C 
ENDROOT
BRANCH   1  17
ATOM      9  C   UNL     1      -1.767  12.221  18.015  0.00  0.00    +0.000 C 
ATOM     10  C   UNL     1      -1.284  10.779  18.192  0.00  0.00    +0.000 C 
ATOM     11  C   UNL     1      -2.030   9.856  17.233  0.00  0.00    +0.000 C 
ATOM     12  C   UNL     1      -1.407  10.256  19.612  0.00  0.00    +0.000 C 
ATOM     13  C   UNL     1      -0.065  10.593  20.258  0.00  0.00    +0.000 C 
ATOM     14  C   UNL     1       0.457   9.442  21.129  0.00  0.00    +0.000 C 
ATOM     15  C   UNL     1      -0.491   9.214  22.293  0.00  0.00    +0.000 C 
ATOM     16  C   UNL     1      -0.734  10.512  23.061  0.00  0.00    +0.000 C 
ATOM     17  N   UNL     1      -1.070  11.678  22.234  0.00  0.00    +0.000 NA
ATOM     18  C   UNL     1      -0.136  11.858  21.113  0.00  0.00    +0.000 C 
ATOM     19  C   UNL     1       0.835  10.804  19.070  0.00  0.00    +0.000 C 
ATOM     20  O   UNL     1       2.041  11.001  19.115  0.00  0.00    +0.000 OA
ATOM     21  O   UNL     1       0.119  10.739  17.906  0.00  0.00    +0.000 OA
ENDBRANCH   1  17
BRANCH   5  22
ATOM     22  C   UNL     1      -6.132  13.527  20.847  0.00  0.00    +0.000 A 
ATOM     23  C   UNL     1      -6.937  14.617  20.552  0.00  0.00    +0.000 A 
ATOM     24  S   UNL     1      -6.959  14.959  18.883  0.00  0.00    +0.000 S 
ATOM     25  C   UNL     1      -6.306  13.428  18.487  0.00  0.00    +0.000 A 
ATOM     26  C   UNL     1      -6.171  12.891  17.194  0.00  0.00    +0.000 A 
ATOM     27  C   UNL     1      -5.663  11.609  17.040  0.00  0.00    +0.000 A 
ATOM     28  C   UNL     1      -5.262  10.877  18.155  0.00  0.00    +0.000 A 
ATOM     29  C   UNL     1      -5.354  11.437  19.438  0.00  0.00    +0.000 A 
ATOM     30  C   UNL     1      -5.906  12.734  19.634  0.00  0.00    +0.000 A 
BRANCH  23  31
ATOM     31  N   UNL     1      -7.620  15.439  21.384  0.00  0.00    +0.000 N 
ATOM     32  H   UNL     1      -8.252  15.049  22.080  0.00  0.00    +0.000 HD
ATOM     33  H   UNL     1      -7.146  16.283  21.694  0.00  0.00    +0.000 HD
ENDBRANCH  23  31
ENDBRANCH   5  22
TORSDOF 3
ENDMDL
MODEL 2
REMARK VINA RESULT:      -6.5      1.005      1.039
REMARK  Name = 
REMARK  5 active torsions:
REMARK  status: ('A' for Active; 'I' for Inactive)
REMARK    1  A    between atoms: C_1  and  C_2
REMARK    2  A    between atoms: C_2  and  C_3
REMARK    3  A    between atoms: N_9  and  C_10
REMARK    4  A    between atoms: C_14  and  C_16
REMARK    5  A    between atoms: C_17  and  N_18
REMARK                            x       y       z     vdW  Elec       q    Type
REMARK                         _______ _______ _______ _____ _____    ______ ____
ROOT
ATOM      1  C   UNL     1      -0.620  13.312  22.095  0.00  0.00    +0.000 C 
ATOM      2  C   UNL     1      -1.137  14.332  21.090  0.00  0.00    +0.000 C 
ATOM      3  C   UNL     1      -2.655  14.349  20.990  0.00  0.00    +0.000 C 
ATOM      4  N   UNL     1      -3.411  14.280  22.248  0.00  0.00    +0.000 N 
ATOM      5  C   UNL     1      -4.844  14.230  22.252  0.00  0.00    +0.000 C 
ATOM      6  O   UNL     1      -5.450  13.911  23.275  0.00  0.00    +0.000 OA
ATOM      7  C   UNL     1      -2.792  13.578  23.380  0.00  0.00    +0.000 C 
ATOM      8  C   UNL     1      -1.276  13.688  23.436  0.00  0.00    +0.000 C 
ENDROOT
BRANCH   1  17
ATOM      9  C   UNL     1      -2.120  11.839  17.586  0.00  0.00    +0.000 C 
ATOM     10  C   UNL     1      -1.877  10.380  17.981  0.00  0.00    +0.000 C 
ATOM     11  C   UNL     1      -2.957   9.488  17.376  0.00  0.00    +0.000 C 
ATOM     12  C   UNL     1      -1.798  10.151  19.479  0.00  0.00    +0.000 C 
ATOM     13  C   UNL     1      -0.314  10.297  19.809  0.00  0.00    +0.000 C 
ATOM     14  C   UNL     1       0.161   9.230  20.804  0.00  0.00    +0.000 C 
ATOM     15  C   UNL     1      -0.554   9.417  22.131  0.00  0.00    +0.000 C 
ATOM     16  C   UNL     1      -0.398  10.850  22.637  0.00  0.00    +0.000 C 
ATOM     17  N   UNL     1      -0.682  11.900  21.649  0.00  0.00    +0.000 NA
ATOM     18  C   UNL     1       0.019  11.677  20.376  0.00  0.00    +0.000 C 
ATOM     19  C   UNL     1       0.346  10.099  18.470  0.00  0.00    +0.000 C 
ATOM     20  O   UNL     1       1.551  10.036  18.272  0.00  0.00    +0.000 OA
ATOM     21  O   UNL     1      -0.592   9.989  17.482  0.00  0.00    +0.000 OA
ENDBRANCH   1  17
BRANCH   5  22
ATOM     22  C   UNL     1      -5.580  14.458  20.993  0.00  0.00    +0.000 A 
ATOM     23  C   UNL     1      -6.238  15.626  20.636  0.00  0.00    +0.000 A 
ATOM     24  S   UNL     1      -6.621  15.659  18.976  0.00  0.00    +0.000 S 
ATOM     25  C   UNL     1      -6.357  13.978  18.807  0.00  0.00    +0.000 A 
ATOM     26  C   UNL     1      -6.645  13.201  17.670  0.00  0.00    +0.000 A 
ATOM     27  C   UNL     1      -6.416  11.832  17.707  0.00  0.00    +0.000 A 
ATOM     28  C   UNL     1      -5.877  11.243  18.848  0.00  0.00    +0.000 A 
ATOM     29  C   UNL     1      -5.546  12.031  19.960  0.00  0.00    +0.000 A 
ATOM     30  C   UNL     1      -5.804  13.431  19.970  0.00  0.00    +0.000 A 
BRANCH  23  31
ATOM     31  N   UNL     1      -6.540  16.712  21.386  0.00  0.00    +0.000 N 
ATOM     32  H   UNL     1      -6.482  16.663  22.401  0.00  0.00    +0.000 HD
ATOM     33  H   UNL     1      -6.285  17.622  21.009  0.00  0.00    +0.000 HD
ENDBRANCH  23  31
ENDBRANCH   5  22
TORSDOF 3
ENDMDL
MODEL 3
REMARK VINA RESULT:      -6.2      3.877      7.368
REMARK  Name = 
REMARK  5 active torsions:
REMARK  status: ('A' for Active; 'I' for Inactive)
REMARK    1  A    between atoms: C_1  and  C_2
REMARK    2  A    between atoms: C_2  and  C_3
REMARK    3  A    between atoms: N_9  and  C_10
REMARK    4  A    between atoms: C_14  and  C_16
REMARK    5  A    between atoms: C_17  and  N_18
REMARK                            x       y       z     vdW  Elec       q    Type
REMARK                         _______ _______ _______ _____ _____    ______ ____
ROOT
ATOM      1  C   UNL     1      -0.446  11.508  19.126  0.00  0.00    +0.000 C 
ATOM      2  C   UNL     1      -0.881  12.820  18.490  0.00  0.00    +0.000 C 
ATOM      3  C   UNL     1       0.111  13.950  18.723  0.00  0.00    +0.000 C 
ATOM      4  N   UNL     1       1.538  13.632  18.572  0.00  0.00    +0.000 N 
ATOM      5  C   UNL     1       2.549  14.615  18.830  0.00  0.00    +0.000 C 
ATOM      6  O   UNL     1       3.725  14.274  18.957  0.00  0.00    +0.000 OA
ATOM      7  C   UNL     1       1.964  12.255  18.856  0.00  0.00    +0.000 C 
ATOM      8  C   UNL     1       0.931  11.192  18.514  0.00  0.00    +0.000 C 
ENDROOT
BRANCH   1  17
ATOM      9  C   UNL     1      -1.806  15.331  22.004  0.00  0.00    +0.000 C 
ATOM     10  C   UNL     1      -1.711  14.433  23.241  0.00  0.00    +0.000 C 
ATOM     11  C   UNL     1      -1.153  15.226  24.419  0.00  0.00    +0.000 C 
ATOM     12  C   UNL     1      -0.889  13.175  23.030  0.00  0.00    +0.000 C 
ATOM     13  C   UNL     1      -1.905  12.130  22.574  0.00  0.00    +0.000 C 
ATOM     14  C   UNL     1      -1.664  10.767  23.237  0.00  0.00    +0.000 C 
ATOM     15  C   UNL     1      -0.317  10.219  22.800  0.00  0.00    +0.000 C 
ATOM     16  C   UNL     1      -0.207  10.195  21.276  0.00  0.00    +0.000 C 
ATOM     17  N   UNL     1      -0.597  11.439  20.598  0.00  0.00    +0.000 NA
ATOM     18  C   UNL     1      -1.901  11.942  21.057  0.00  0.00    +0.000 C 
ATOM     19  C   UNL     1      -3.215  12.714  23.033  0.00  0.00    +0.000 C 
ATOM     20  O   UNL     1      -4.304  12.163  22.965  0.00  0.00    +0.000 OA
ATOM     21  O   UNL     1      -3.028  13.964  23.555  0.00  0.00    +0.000 OA
ENDBRANCH   1  17
BRANCH   5  22
ATOM     22  C   UNL     1       2.154  16.020  19.048  0.00  0.00    +0.000 A 
ATOM     23  C   UNL     1       2.144  17.020  18.087  0.00  0.00    +0.000 A 
ATOM     24  S   UNL     1       1.265  18.387  18.599  0.00  0.00    +0.000 S 
ATOM     25  C   UNL     1       1.288  17.880  20.232  0.00  0.00    +0.000 A 
ATOM     26  C   UNL     1       0.857  18.630  21.341  0.00  0.00    +0.000 A 
ATOM     27  C   UNL     1       0.984  18.093  22.616  0.00  0.00    +0.000 A 
ATOM     28  C   UNL     1       1.505  16.813  22.786  0.00  0.00    +0.000 A 
ATOM     29  C   UNL     1       1.887  16.051  21.672  0.00  0.00    +0.000 A 
ATOM     30  C   UNL     1       1.805  16.586  20.355  0.00  0.00    +0.000 A 
BRANCH  23  31
ATOM     31  N   UNL     1       2.663  17.023  16.836  0.00  0.00    +0.000 N 
ATOM     32  H   UNL     1       2.441  16.268  16.191  0.00  0.00    +0.000 HD
ATOM     33  H   UNL     1       2.773  17.925  16.381  0.00  0.00    +0.000 HD
ENDBRANCH  23  31
ENDBRANCH   5  22
TORSDOF 3
ENDMDL
MODEL 4
REMARK VINA RESULT:      -6.1      2.462      6.461
REMARK  Name = 
REMARK  5 active torsions:
REMARK  status: ('A' for Active; 'I' for Inactive)
REMARK    1  A    between atoms: C_1  and  C_2
REMARK    2  A    between atoms: C_2  and  C_3
REMARK    3  A    between atoms: N_9  and  C_10
REMARK    4  A    between atoms: C_14  and  C_16
REMARK    5  A    between atoms: C_17  and  N_18
REMARK                            x       y       z     vdW  Elec       q    Type
REMARK                         _______ _______ _______ _____ _____    ______ ____
ROOT
ATOM      1  C   UNL     1      -4.277  13.825  23.045  0.00  0.00    +0.000 C 
ATOM      2  C   UNL     1      -3.527  12.503  23.125  0.00  0.00    +0.000 C 
ATOM      3  C   UNL     1      -2.485  12.343  22.028  0.00  0.00    +0.000 C 
ATOM      4  N   UNL     1      -1.648  13.512  21.724  0.00  0.00    +0.000 N 
ATOM      5  C   UNL     1      -0.680  13.477  20.667  0.00  0.00    +0.000 C 
ATOM      6  O   UNL     1      -0.179  14.523  20.251  0.00  0.00    +0.000 OA
ATOM      7  C   UNL     1      -2.224  14.844  21.956  0.00  0.00    +0.000 C 
ATOM      8  C   UNL     1      -3.194  14.916  23.125  0.00  0.00    +0.000 C 
ENDROOT
BRANCH   1  17
ATOM      9  C   UNL     1      -4.138  11.190  18.827  0.00  0.00    +0.000 C 
ATOM     10  C   UNL     1      -5.438  11.855  18.368  0.00  0.00    +0.000 C 
ATOM     11  C   UNL     1      -5.390  12.114  16.866  0.00  0.00    +0.000 C 
ATOM     12  C   UNL     1      -5.767  13.142  19.103  0.00  0.00    +0.000 C 
ATOM     13  C   UNL     1      -6.626  12.696  20.285  0.00  0.00    +0.000 C 
ATOM     14  C   UNL     1      -7.815  13.637  20.518  0.00  0.00    +0.000 C 
ATOM     15  C   UNL     1      -7.306  15.015  20.904  0.00  0.00    +0.000 C 
ATOM     16  C   UNL     1      -6.342  14.929  22.086  0.00  0.00    +0.000 C 
ATOM     17  N   UNL     1      -5.289  13.912  21.965  0.00  0.00    +0.000 NA
ATOM     18  C   UNL     1      -5.820  12.597  21.581  0.00  0.00    +0.000 C 
ATOM     19  C   UNL     1      -7.108  11.336  19.853  0.00  0.00    +0.000 C 
ATOM     20  O   UNL     1      -7.912  10.640  20.456  0.00  0.00    +0.000 OA
ATOM     21  O   UNL     1      -6.525  10.971  18.671  0.00  0.00    +0.000 OA
ENDBRANCH   1  17
BRANCH   5  22
ATOM     22  C   UNL     1      -0.371  12.193  20.010  0.00  0.00    +0.000 A 
ATOM     23  C   UNL     1      -0.556  11.902  18.666  0.00  0.00    +0.000 A 
ATOM     24  S   UNL     1       0.271  10.487  18.201  0.00  0.00    +0.000 S 
ATOM     25  C   UNL     1       0.487   9.993  19.825  0.00  0.00    +0.000 A 
ATOM     26  C   UNL     1       0.991   8.752  20.256  0.00  0.00    +0.000 A 
ATOM     27  C   UNL     1       1.062   8.483  21.617  0.00  0.00    +0.000 A 
ATOM     28  C   UNL     1       0.666   9.447  22.541  0.00  0.00    +0.000 A 
ATOM     29  C   UNL     1       0.210  10.700  22.105  0.00  0.00    +0.000 A 
ATOM     30  C   UNL     1       0.090  10.994  20.717  0.00  0.00    +0.000 A 
BRANCH  23  31
ATOM     31  N   UNL     1      -1.222  12.597  17.714  0.00  0.00    +0.000 N 
ATOM     32  H   UNL     1      -1.036  13.589  17.584  0.00  0.00    +0.000 HD
ATOM     33  H   UNL     1      -1.440  12.109  16.849  0.00  0.00    +0.000 HD
ENDBRANCH  23  31
ENDBRANCH   5  22
TORSDOF 3
ENDMDL
MODEL 5
REMARK VINA RESULT:      -6.0      1.427      2.301
REMARK  Name = 
REMARK  5 active torsions:
REMARK  status: ('A' for Active; 'I' for Inactive)
REMARK    1  A    between atoms: C_1  and  C_2
REMARK    2  A    between atoms: C_2  and  C_3
REMARK    3  A    between atoms: N_9  and  C_10
REMARK    4  A    between atoms: C_14  and  C_16
REMARK    5  A    between atoms: C_17  and  N_18
REMARK                            x       y       z     vdW  Elec       q    Type
REMARK                         _______ _______ _______ _____ _____    ______ ____
ROOT
ATOM      1  C   UNL     1      -1.494  12.905  22.670  0.00  0.00    +0.000 C 
ATOM      2  C   UNL     1      -1.887  14.027  21.719  0.00  0.00    +0.000 C 
ATOM      3  C   UNL     1      -3.242  13.803  21.065  0.00  0.00    +0.000 C 
ATOM      4  N   UNL     1      -4.328  13.310  21.925  0.00  0.00    +0.000 N 
ATOM      5  C   UNL     1      -5.623  13.012  21.387  0.00  0.00    +0.000 C 
ATOM      6  O   UNL     1      -6.433  12.361  22.047  0.00  0.00    +0.000 OA
ATOM      7  C   UNL     1      -3.962  12.481  23.080  0.00  0.00    +0.000 C 
ATOM      8  C   UNL     1      -2.625  12.835  23.712  0.00  0.00    +0.000 C 
ENDROOT
BRANCH   1  17
ATOM      9  C   UNL     1      -1.851  11.985  17.794  0.00  0.00    +0.000 C 
ATOM     10  C   UNL     1      -1.224  10.605  18.008  0.00  0.00    +0.000 C 
ATOM     11  C   UNL     1      -1.884   9.583  17.089  0.00  0.00    +0.000 C 
ATOM     12  C   UNL     1      -1.278  10.118  19.444  0.00  0.00    +0.000 C 
ATOM     13  C   UNL     1       0.031  10.608  20.062  0.00  0.00    +0.000 C 
ATOM     14  C   UNL     1       0.676   9.543  20.959  0.00  0.00    +0.000 C 
ATOM     15  C   UNL     1      -0.231   9.258  22.143  0.00  0.00    +0.000 C 
ATOM     16  C   UNL     1      -0.595  10.548  22.875  0.00  0.00    +0.000 C 
ATOM     17  N   UNL     1      -1.056  11.649  22.018  0.00  0.00    +0.000 NA
ATOM     18  C   UNL     1      -0.158  11.886  20.878  0.00  0.00    +0.000 C 
ATOM     19  C   UNL     1       0.892  10.870  18.854  0.00  0.00    +0.000 C 
ATOM     20  O   UNL     1       2.072  11.188  18.876  0.00  0.00    +0.000 OA
ATOM     21  O   UNL     1       0.173  10.697  17.704  0.00  0.00    +0.000 OA
ENDBRANCH   1  17
BRANCH   5  22
ATOM     22  C   UNL     1      -5.937  13.398  19.997  0.00  0.00    +0.000 A 
ATOM     23  C   UNL     1      -5.886  12.563  18.890  0.00  0.00    +0.000 A 
ATOM     24  S   UNL     1      -6.686  13.238  17.546  0.00  0.00    +0.000 S 
ATOM     25  C   UNL     1      -6.698  14.799  18.245  0.00  0.00    +0.000 A 
ATOM     26  C   UNL     1      -7.088  15.992  17.610  0.00  0.00    +0.000 A 
ATOM     27  C   UNL     1      -6.996  17.193  18.302  0.00  0.00    +0.000 A 
ATOM     28  C   UNL     1      -6.550  17.207  19.621  0.00  0.00    +0.000 A 
ATOM     29  C   UNL     1      -6.209  16.008  20.265  0.00  0.00    +0.000 A 
ATOM     30  C   UNL     1      -6.256  14.765  19.572  0.00  0.00    +0.000 A 
BRANCH  23  31
ATOM     31  N   UNL     1      -5.364  11.320  18.768  0.00  0.00    +0.000 N 
ATOM     32  H   UNL     1      -4.544  11.056  19.309  0.00  0.00    +0.000 HD
ATOM     33  H   UNL     1      -6.018  10.554  18.623  0.00  0.00    +0.000 HD
ENDBRANCH  23  31
ENDBRANCH   5  22
TORSDOF 3
ENDMDL
MODEL 6
REMARK VINA RESULT:      -6.0      2.649      7.098
REMARK  Name = 
REMARK  5 active torsions:
REMARK  status: ('A' for Active; 'I' for Inactive)
REMARK    1  A    between atoms: C_1  and  C_2
REMARK    2  A    between atoms: C_2  and  C_3
REMARK    3  A    between atoms: N_9  and  C_10
REMARK    4  A    between atoms: C_14  and  C_16
REMARK    5  A    between atoms: C_17  and  N_18
REMARK                            x       y       z     vdW  Elec       q    Type
REMARK                         _______ _______ _______ _____ _____    ______ ____
ROOT
ATOM      1  C   UNL     1      -4.329  10.708  17.414  0.00  0.00    +0.000 C 
ATOM      2  C   UNL     1      -3.361  11.824  17.050  0.00  0.00    +0.000 C 
ATOM      3  C   UNL     1      -2.204  11.950  18.030  0.00  0.00    +0.000 C 
ATOM      4  N   UNL     1      -1.570  10.703  18.483  0.00  0.00    +0.000 N 
ATOM      5  C   UNL     1      -0.514  10.717  19.452  0.00  0.00    +0.000 C 
ATOM      6  O   UNL     1      -0.175   9.675  20.013  0.00  0.00    +0.000 OA
ATOM      7  C   UNL     1      -2.402   9.493  18.531  0.00  0.00    +0.000 C 
ATOM      8  C   UNL     1      -3.479   9.425  17.459  0.00  0.00    +0.000 C 
ENDROOT
BRANCH   1  17
ATOM      9  C   UNL     1      -3.642  14.401  20.676  0.00  0.00    +0.000 C 
ATOM     10  C   UNL     1      -4.917  13.986  21.414  0.00  0.00    +0.000 C 
ATOM     11  C   UNL     1      -4.728  14.155  22.918  0.00  0.00    +0.000 C 
ATOM     12  C   UNL     1      -5.377  12.573  21.108  0.00  0.00    +0.000 C 
ATOM     13  C   UNL     1      -6.330  12.731  19.925  0.00  0.00    +0.000 C 
ATOM     14  C   UNL     1      -7.579  11.851  20.073  0.00  0.00    +0.000 C 
ATOM     15  C   UNL     1      -7.175  10.388  20.055  0.00  0.00    +0.000 C 
ATOM     16  C   UNL     1      -6.334  10.069  18.820  0.00  0.00    +0.000 C 
ATOM     17  N   UNL     1      -5.228  10.999  18.555  0.00  0.00    +0.000 NA
ATOM     18  C   UNL     1      -5.658  12.405  18.592  0.00  0.00    +0.000 C 
ATOM     19  C   UNL     1      -6.704  14.189  19.990  0.00  0.00    +0.000 C 
ATOM     20  O   UNL     1      -7.533  14.744  19.284  0.00  0.00    +0.000 OA
ATOM     21  O   UNL     1      -5.987  14.826  20.965  0.00  0.00    +0.000 OA
ENDBRANCH   1  17
BRANCH   5  22
ATOM     22  C   UNL     1       0.090  12.004  19.847  0.00  0.00    +0.000 A 
ATOM     23  C   UNL     1       1.124  12.654  19.189  0.00  0.00    +0.000 A 
ATOM     24  S   UNL     1       1.280  14.274  19.691  0.00  0.00    +0.000 S 
ATOM     25  C   UNL     1       0.322  14.012  21.083  0.00  0.00    +0.000 A 
ATOM     26  C   UNL     1       0.119  14.922  22.137  0.00  0.00    +0.000 A 
ATOM     27  C   UNL     1      -0.652  14.539  23.226  0.00  0.00    +0.000 A 
ATOM     28  C   UNL     1      -1.243  13.279  23.257  0.00  0.00    +0.000 A 
ATOM     29  C   UNL     1      -1.076  12.394  22.181  0.00  0.00    +0.000 A 
ATOM     30  C   UNL     1      -0.261  12.740  21.067  0.00  0.00    +0.000 A 
BRANCH  23  31
ATOM     31  N   UNL     1       1.940  12.205  18.206  0.00  0.00    +0.000 N 
ATOM     32  H   UNL     1       1.556  11.674  17.428  0.00  0.00    +0.000 HD
ATOM     33  H   UNL     1       2.722  12.800  17.944  0.00  0.00    +0.000 HD
ENDBRANCH  23  31
ENDBRANCH   5  22
TORSDOF 3
ENDMDL
MODEL 7
REMARK VINA RESULT:      -5.9     10.505     13.201
REMARK  Name = 
REMARK  5 active torsions:
REMARK  status: ('A' for Active; 'I' for Inactive)
REMARK    1  A    between atoms: C_1  and  C_2
REMARK    2  A    between atoms: C_2  and  C_3
REMARK    3  A    between atoms: N_9  and  C_10
REMARK    4  A    between atoms: C_14  and  C_16
REMARK    5  A    between atoms: C_17  and  N_18
REMARK                            x       y       z     vdW  Elec       q    Type
REMARK                         _______ _______ _______ _____ _____    ______ ____
ROOT
ATOM      1  C   UNL     1       6.819  17.698  21.459  0.00  0.00    +0.000 C 
ATOM      2  C   UNL     1       8.301  17.824  21.138  0.00  0.00    +0.000 C 
ATOM      3  C   UNL     1       8.764  16.842  20.072  0.00  0.00    +0.000 C 
ATOM      4  N   UNL     1       7.890  16.661  18.904  0.00  0.00    +0.000 N 
ATOM      5  C   UNL     1       8.212  15.713  17.877  0.00  0.00    +0.000 C 
ATOM      6  O   UNL     1       7.360  15.382  17.052  0.00  0.00    +0.000 OA
ATOM      7  C   UNL     1       6.448  16.864  19.092  0.00  0.00    +0.000 C 
ATOM      8  C   UNL     1       6.089  17.923  20.122  0.00  0.00    +0.000 C 
ENDROOT
BRANCH   1  17
ATOM      9  C   UNL     1       9.609  13.607  21.939  0.00  0.00    +0.000 C 
ATOM     10  C   UNL     1       8.554  12.996  22.865  0.00  0.00    +0.000 C 
ATOM     11  C   UNL     1       8.432  11.499  22.601  0.00  0.00    +0.000 C 
ATOM     12  C   UNL     1       7.188  13.650  22.763  0.00  0.00    +0.000 C 
ATOM     13  C   UNL     1       7.215  14.753  23.820  0.00  0.00    +0.000 C 
ATOM     14  C   UNL     1       5.896  14.831  24.600  0.00  0.00    +0.000 C 
ATOM     15  C   UNL     1       4.770  15.221  23.659  0.00  0.00    +0.000 C 
ATOM     16  C   UNL     1       5.115  16.497  22.894  0.00  0.00    +0.000 C 
ATOM     17  N   UNL     1       6.448  16.519  22.276  0.00  0.00    +0.000 NA
ATOM     18  C   UNL     1       7.508  16.126  23.216  0.00  0.00    +0.000 C 
ATOM     19  C   UNL     1       8.337  14.319  24.726  0.00  0.00    +0.000 C 
ATOM     20  O   UNL     1       8.655  14.860  25.775  0.00  0.00    +0.000 OA
ATOM     21  O   UNL     1       8.966  13.216  24.219  0.00  0.00    +0.000 OA
ENDBRANCH   1  17
BRANCH   5  22
ATOM     22  C   UNL     1       9.535  15.060  17.883  0.00  0.00    +0.000 A 
ATOM     23  C   UNL     1      10.720  15.621  17.430  0.00  0.00    +0.000 A 
ATOM     24  S   UNL     1      12.082  14.742  17.956  0.00  0.00    +0.000 S 
ATOM     25  C   UNL     1      11.133  13.382  18.375  0.00  0.00    +0.000 A 
ATOM     26  C   UNL     1      11.616  12.120  18.765  0.00  0.00    +0.000 A 
ATOM     27  C   UNL     1      10.712  11.099  19.030  0.00  0.00    +0.000 A 
ATOM     28  C   UNL     1       9.343  11.336  18.940  0.00  0.00    +0.000 A 
ATOM     29  C   UNL     1       8.868  12.611  18.598  0.00  0.00    +0.000 A 
ATOM     30  C   UNL     1       9.767  13.668  18.284  0.00  0.00    +0.000 A 
BRANCH  23  31
ATOM     31  N   UNL     1      10.924  16.753  16.716  0.00  0.00    +0.000 N 
ATOM     32  H   UNL     1      10.511  17.631  17.023  0.00  0.00    +0.000 HD
ATOM     33  H   UNL     1      11.833  16.866  16.274  0.00  0.00    +0.000 HD
ENDBRANCH  23  31
ENDBRANCH   5  22
TORSDOF 3
ENDMDL
MODEL 8
REMARK VINA RESULT:      -5.8      9.832     13.173
REMARK  Name = 
REMARK  5 active torsions:
REMARK  status: ('A' for Active; 'I' for Inactive)
REMARK    1  A    between atoms: C_1  and  C_2
REMARK    2  A    between atoms: C_2  and  C_3
REMARK    3  A    between atoms: N_9  and  C_10
REMARK    4  A    between atoms: C_14  and  C_16
REMARK    5  A    between atoms: C_17  and  N_18
REMARK                            x       y       z     vdW  Elec       q    Type
REMARK                         _______ _______ _______ _____ _____    ______ ____
ROOT
ATOM      1  C   UNL     1       5.532  17.066  19.969  0.00  0.00    +0.000 C 
ATOM      2  C   UNL     1       6.907  17.586  19.576  0.00  0.00    +0.000 C 
ATOM      3  C   UNL     1       7.823  16.496  19.039  0.00  0.00    +0.000 C 
ATOM      4  N   UNL     1       7.236  15.528  18.101  0.00  0.00    +0.000 N 
ATOM      5  C   UNL     1       8.004  14.431  17.590  0.00  0.00    +0.000 C 
ATOM      6  O   UNL     1       7.442  13.492  17.025  0.00  0.00    +0.000 OA
ATOM      7  C   UNL     1       5.802  15.239  18.228  0.00  0.00    +0.000 C 
ATOM      8  C   UNL     1       4.960  16.416  18.695  0.00  0.00    +0.000 C 
ENDROOT
BRANCH   1  17
ATOM      9  C   UNL     1       9.347  14.477  21.839  0.00  0.00    +0.000 C 
ATOM     10  C   UNL     1       8.482  14.065  23.033  0.00  0.00    +0.000 C 
ATOM     11  C   UNL     1       8.794  12.626  23.432  0.00  0.00    +0.000 C 
ATOM     12  C   UNL     1       6.991  14.224  22.800  0.00  0.00    +0.000 C 
ATOM     13  C   UNL     1       6.677  15.635  23.293  0.00  0.00    +0.000 C 
ATOM     14  C   UNL     1       5.369  15.687  24.093  0.00  0.00    +0.000 C 
ATOM     15  C   UNL     1       4.204  15.321  23.189  0.00  0.00    +0.000 C 
ATOM     16  C   UNL     1       4.197  16.189  21.931  0.00  0.00    +0.000 C 
ATOM     17  N   UNL     1       5.486  16.298  21.235  0.00  0.00    +0.000 NA
ATOM     18  C   UNL     1       6.588  16.642  22.146  0.00  0.00    +0.000 C 
ATOM     19  C   UNL     1       7.851  15.947  24.183  0.00  0.00    +0.000 C 
ATOM     20  O   UNL     1       7.975  16.947  24.875  0.00  0.00    +0.000 OA
ATOM     21  O   UNL     1       8.779  14.944  24.125  0.00  0.00    +0.000 OA
ENDBRANCH   1  17
BRANCH   5  22
ATOM     22  C   UNL     1       9.458  14.385  17.839  0.00  0.00    +0.000 A 
ATOM     23  C   UNL     1      10.397  15.275  17.338  0.00  0.00    +0.000 A 
ATOM     24  S   UNL     1      11.890  15.148  18.149  0.00  0.00    +0.000 S 
ATOM     25  C   UNL     1      11.475  13.635  18.830  0.00  0.00    +0.000 A 
ATOM     26  C   UNL     1      12.333  12.783  19.548  0.00  0.00    +0.000 A 
ATOM     27  C   UNL     1      11.855  11.560  19.999  0.00  0.00    +0.000 A 
ATOM     28  C   UNL     1      10.530  11.198  19.767  0.00  0.00    +0.000 A 
ATOM     29  C   UNL     1       9.666  12.074  19.093  0.00  0.00    +0.000 A 
ATOM     30  C   UNL     1      10.134  13.318  18.585  0.00  0.00    +0.000 A 
BRANCH  23  31
ATOM     31  N   UNL     1      10.265  16.224  16.381  0.00  0.00    +0.000 N 
ATOM     32  H   UNL     1      10.011  15.959  15.432  0.00  0.00    +0.000 HD
ATOM     33  H   UNL     1       9.883  17.122  16.668  0.00  0.00    +0.000 HD
ENDBRANCH  23  31
ENDBRANCH   5  22
TORSDOF 3
ENDMDL
MODEL 9
REMARK VINA RESULT:      -5.8      4.251      7.267
REMARK  Name = 
REMARK  5 active torsions:
REMARK  status: ('A' for Active; 'I' for Inactive)
REMARK    1  A    between atoms: C_1  and  C_2
REMARK    2  A    between atoms: C_2  and  C_3
REMARK    3  A    between atoms: N_9  and  C_10
REMARK    4  A    between atoms: C_14  and  C_16
REMARK    5  A    between atoms: C_17  and  N_18
REMARK                            x       y       z     vdW  Elec       q    Type
REMARK                         _______ _______ _______ _____ _____    ______ ____
ROOT
ATOM      1  C   UNL     1       3.067  14.763  19.347  0.00  0.00    +0.000 C 
ATOM      2  C   UNL     1       3.141  13.821  20.540  0.00  0.00    +0.000 C 
ATOM      3  C   UNL     1       1.907  12.942  20.681  0.00  0.00    +0.000 C 
ATOM      4  N   UNL     1       1.366  12.345  19.452  0.00  0.00    +0.000 N 
ATOM      5  C   UNL     1       0.171  11.552  19.475  0.00  0.00    +0.000 C 
ATOM      6  O   UNL     1      -0.413  11.281  18.425  0.00  0.00    +0.000 OA
ATOM      7  C   UNL     1       1.569  13.072  18.192  0.00  0.00    +0.000 C 
ATOM      8  C   UNL     1       2.870  13.856  18.119  0.00  0.00    +0.000 C 
ENDROOT
BRANCH   1  17
ATOM      9  C   UNL     1      -0.385  15.161  22.908  0.00  0.00    +0.000 C 
ATOM     10  C   UNL     1      -0.782  16.538  22.369  0.00  0.00    +0.000 C 
ATOM     11  C   UNL     1      -2.293  16.723  22.473  0.00  0.00    +0.000 C 
ATOM     12  C   UNL     1      -0.328  16.799  20.944  0.00  0.00    +0.000 C 
ATOM     13  C   UNL     1       1.043  17.455  21.097  0.00  0.00    +0.000 C 
ATOM     14  C   UNL     1       1.228  18.629  20.126  0.00  0.00    +0.000 C 
ATOM     15  C   UNL     1       1.197  18.118  18.697  0.00  0.00    +0.000 C 
ATOM     16  C   UNL     1       2.204  16.986  18.501  0.00  0.00    +0.000 C 
ATOM     17  N   UNL     1       2.166  15.927  19.517  0.00  0.00    +0.000 NA
ATOM     18  C   UNL     1       2.186  16.463  20.886  0.00  0.00    +0.000 C 
ATOM     19  C   UNL     1       1.021  17.948  22.520  0.00  0.00    +0.000 C 
ATOM     20  O   UNL     1       1.886  18.628  23.052  0.00  0.00    +0.000 OA
ATOM     21  O   UNL     1      -0.118  17.535  23.155  0.00  0.00    +0.000 OA
ENDBRANCH   1  17
BRANCH   5  22
ATOM     22  C   UNL     1      -0.410  11.157  20.773  0.00  0.00    +0.000 A 
ATOM     23  C   UNL     1      -0.053  10.042  21.517  0.00  0.00    +0.000 A 
ATOM     24  S   UNL     1      -0.639  10.129  23.114  0.00  0.00    +0.000 S 
ATOM     25  C   UNL     1      -1.742  11.375  22.719  0.00  0.00    +0.000 A 
ATOM     26  C   UNL     1      -2.747  11.893  23.557  0.00  0.00    +0.000 A 
ATOM     27  C   UNL     1      -3.597  12.877  23.070  0.00  0.00    +0.000 A 
ATOM     28  C   UNL     1      -3.433  13.366  21.777  0.00  0.00    +0.000 A 
ATOM     29  C   UNL     1      -2.398  12.880  20.964  0.00  0.00    +0.000 A 
ATOM     30  C   UNL     1      -1.533  11.845  21.418  0.00  0.00    +0.000 A 
BRANCH  23  31
ATOM     31  N   UNL     1       0.715   8.981  21.173  0.00  0.00    +0.000 N 
ATOM     32  H   UNL     1       1.214   8.459  21.890  0.00  0.00    +0.000 HD
ATOM     33  H   UNL     1       0.390   8.403  20.403  0.00  0.00    +0.000 HD
ENDBRANCH  23  31
ENDBRANCH   5  22
TORSDOF 3
ENDMDL
