MODEL 1
REMARK VINA RESULT:      -8.0      0.000      0.000
REMARK  Name = 
REMARK  16 active torsions:
REMARK  status: ('A' for Active; 'I' for Inactive)
REMARK    1  A    between atoms: C_1  and  C_2
REMARK    2  A    between atoms: C_2  and  C_3
REMARK    3  A    between atoms: C_3  and  C_4
REMARK    4  A    between atoms: C_4  and  N_5
REMARK    5  A    between atoms: C_6  and  C_8
REMARK    6  A    between atoms: C_8  and  C_9
REMARK    7  A    between atoms: C_8  and  N_16
REMARK    8  A    between atoms: C_9  and  C_10
REMARK    9  A    between atoms: C_17  and  C_19
REMARK   10  A    between atoms: C_19  and  C_20
REMARK   11  A    between atoms: C_19  and  N_24
REMARK   12  A    between atoms: C_20  and  C_21
REMARK   13  A    between atoms: C_21  and  C_22
REMARK   14  A    between atoms: C_21  and  C_23
REMARK   15  A    between atoms: C_25  and  C_27
REMARK   16  A    between atoms: C_27  and  C_28
REMARK                            x       y       z     vdW  Elec       q    Type
REMARK                         _______ _______ _______ _____ _____    ______ ____
ROOT
ATOM      1  N   UNL     1       4.756   6.945  17.689  0.00  0.00    +0.000 N 
ATOM      2  C   UNL     1       5.698   6.891  16.682  0.00  0.00    +0.000 C 
ATOM      3  O   UNL     1       5.479   6.576  15.518  0.00  0.00    +0.000 OA
ATOM      4  H   UNL     1       4.968   7.510  18.500  0.00  0.00    +0.000 HD
ENDROOT
BRANCH   1   5
ATOM      5  C   UNL     1       3.326   6.648  17.543  0.00  0.00    +0.000 C 
BRANCH   5   7
ATOM      6  N   UNL     1       2.020   7.784  19.288  0.00  0.00    +0.000 N 
ATOM      7  C   UNL     1       2.635   7.932  18.061  0.00  0.00    +0.000 C 
ATOM      8  O   UNL     1       2.665   8.996  17.450  0.00  0.00    +0.000 OA
ATOM      9  H   UNL     1       1.885   6.845  19.642  0.00  0.00    +0.000 HD
BRANCH   6  10
ATOM     10  C   UNL     1       1.378   8.893  19.956  0.00  0.00    +0.000 C 
BRANCH  10  11
ATOM     11  C   UNL     1       1.221   8.645  21.452  0.00  0.00    +0.000 C 
BRANCH  11  13
ATOM     12  C   UNL     1      -0.301   9.467  23.287  0.00  0.00    +0.000 C 
ATOM     13  C   UNL     1       0.667   9.868  22.186  0.00  0.00    +0.000 C 
ENDBRANCH  11  13
ENDBRANCH  10  11
ENDBRANCH   6  10
ENDBRANCH   5   7
BRANCH   5  14
ATOM     14  C   UNL     1       2.924   5.396  18.323  0.00  0.00    +0.000 C 
BRANCH  14  15
ATOM     15  C   UNL     1       2.421   4.201  17.513  0.00  0.00    +0.000 C 
ATOM     16  C   UNL     1       3.371   2.993  17.593  0.00  0.00    +0.000 C 
ATOM     17  C   UNL     1       3.377   2.326  18.967  0.00  0.00    +0.000 C 
ATOM     18  C   UNL     1       1.969   1.894  19.362  0.00  0.00    +0.000 C 
ATOM     19  C   UNL     1       1.004   3.073  19.354  0.00  0.00    +0.000 C 
ATOM     20  C   UNL     1       1.012   3.812  18.011  0.00  0.00    +0.000 C 
ENDBRANCH  14  15
ENDBRANCH   5  14
ENDBRANCH   1   5
BRANCH   2  21
ATOM     21  C   UNL     1       7.125   7.226  17.141  0.00  0.00    +0.000 C 
BRANCH  21  22
ATOM     22  N   UNL     1       7.282   8.672  17.202  0.00  0.00    +0.000 N 
ATOM     23  C   UNL     1       8.203   9.252  18.029  0.00  0.00    +0.000 C 
ATOM     24  O   UNL     1       8.947   8.581  18.755  0.00  0.00    +0.000 OA
ATOM     25  H   UNL     1       6.630   9.235  16.654  0.00  0.00    +0.000 HD
BRANCH  23  26
ATOM     26  C   UNL     1       8.280  10.762  18.003  0.00  0.00    +0.000 C 
BRANCH  26  27
ATOM     27  C   UNL     1       9.558  11.267  18.629  0.00  0.00    +0.000 A 
ATOM     28  C   UNL     1      10.699  11.456  17.846  0.00  0.00    +0.000 A 
ATOM     29  C   UNL     1      11.901  11.837  18.438  0.00  0.00    +0.000 A 
ATOM     30  C   UNL     1      11.977  12.036  19.816  0.00  0.00    +0.000 A 
ATOM     31  C   UNL     1      10.837  11.898  20.600  0.00  0.00    +0.000 A 
ATOM     32  C   UNL     1       9.624  11.522  20.007  0.00  0.00    +0.000 A 
ENDBRANCH  26  27
ENDBRANCH  23  26
ENDBRANCH  21  22
BRANCH  21  33
ATOM     33  C   UNL     1       7.507   6.542  18.458  0.00  0.00    +0.000 C 
BRANCH  33  34
ATOM     34  C   UNL     1       7.511   4.996  18.484  0.00  0.00    +0.000 C 
ATOM     35  C   UNL     1       6.336   4.385  19.251  0.00  0.00    +0.000 C 
ATOM     36  C   UNL     1       7.587   4.346  17.102  0.00  0.00    +0.000 C 
ENDBRANCH  33  34
ENDBRANCH  21  33
ENDBRANCH   2  21
TORSDOF 13
ENDMDL
MODEL 2
REMARK VINA RESULT:      -8.0      3.460      9.154
REMARK  Name = 
REMARK  16 active torsions:
REMARK  status: ('A' for Active; 'I' for Inactive)
REMARK    1  A    between atoms: C_1  and  C_2
REMARK    2  A    between atoms: C_2  and  C_3
REMARK    3  A    between atoms: C_3  and  C_4
REMARK    4  A    between atoms: C_4  and  N_5
REMARK    5  A    between atoms: C_6  and  C_8
REMARK    6  A    between atoms: C_8  and  C_9
REMARK    7  A    between atoms: C_8  and  N_16
REMARK    8  A    between atoms: C_9  and  C_10
REMARK    9  A    between atoms: C_17  and  C_19
REMARK   10  A    between atoms: C_19  and  C_20
REMARK   11  A    between atoms: C_19  and  N_24
REMARK   12  A    between atoms: C_20  and  C_21
REMARK   13  A    between atoms: C_21  and  C_22
REMARK   14  A    between atoms: C_21  and  C_23
REMARK   15  A    between atoms: C_25  and  C_27
REMARK   16  A    between atoms: C_27  and  C_28
REMARK                            x       y       z     vdW  Elec       q    Type
REMARK                         _______ _______ _______ _____ _____    ______ ____
ROOT
ATOM      1  N   UNL     1       1.754   8.291  19.537  0.00  0.00    +0.000 N 
ATOM      2  C   UNL     1       1.252   8.715  20.751  0.00  0.00    +0.000 C 
ATOM      3  O   UNL     1       1.409   8.144  21.825  0.00  0.00    +0.000 OA
ATOM      4  H   UNL     1       1.842   8.977  18.801  0.00  0.00    +0.000 HD
ENDROOT
BRANCH   1   5
ATOM      5  C   UNL     1       2.573   7.093  19.319  0.00  0.00    +0.000 C 
BRANCH   5   7
ATOM      6  N   UNL     1       4.331   6.535  17.694  0.00  0.00    +0.000 N 
ATOM      7  C   UNL     1       3.263   7.368  17.962  0.00  0.00    +0.000 C 
ATOM      8  O   UNL     1       2.870   8.227  17.178  0.00  0.00    +0.000 OA
ATOM      9  H   UNL     1       4.702   5.979  18.455  0.00  0.00    +0.000 HD
BRANCH   6  10
ATOM     10  C   UNL     1       5.057   6.605  16.447  0.00  0.00    +0.000 C 
BRANCH  10  11
ATOM     11  C   UNL     1       6.472   6.053  16.579  0.00  0.00    +0.000 C 
BRANCH  11  13
ATOM     12  C   UNL     1       7.723   5.933  18.765  0.00  0.00    +0.000 C 
ATOM     13  C   UNL     1       6.672   5.279  17.884  0.00  0.00    +0.000 C 
ENDBRANCH  11  13
ENDBRANCH  10  11
ENDBRANCH   6  10
ENDBRANCH   5   7
BRANCH   5  14
ATOM     14  C   UNL     1       1.726   5.820  19.312  0.00  0.00    +0.000 C 
BRANCH  14  15
ATOM     15  C   UNL     1       2.093   4.733  20.321  0.00  0.00    +0.000 C 
ATOM     16  C   UNL     1       0.987   3.673  20.474  0.00  0.00    +0.000 C 
ATOM     17  C   UNL     1       0.843   2.777  19.244  0.00  0.00    +0.000 C 
ATOM     18  C   UNL     1       2.165   2.091  18.920  0.00  0.00    +0.000 C 
ATOM     19  C   UNL     1       3.279   3.108  18.701  0.00  0.00    +0.000 C 
ATOM     20  C   UNL     1       3.418   4.069  19.887  0.00  0.00    +0.000 C 
ENDBRANCH  14  15
ENDBRANCH   5  14
ENDBRANCH   1   5
BRANCH   2  21
ATOM     21  C   UNL     1       0.402   9.991  20.666  0.00  0.00    +0.000 C 
BRANCH  21  22
ATOM     22  N   UNL     1      -0.578   9.844  19.600  0.00  0.00    +0.000 N 
ATOM     23  C   UNL     1      -0.679  10.766  18.596  0.00  0.00    +0.000 C 
ATOM     24  O   UNL     1       0.058  11.758  18.540  0.00  0.00    +0.000 OA
ATOM     25  H   UNL     1      -1.231   9.063  19.673  0.00  0.00    +0.000 HD
BRANCH  23  26
ATOM     26  C   UNL     1      -1.730  10.505  17.541  0.00  0.00    +0.000 C 
BRANCH  26  27
ATOM     27  C   UNL     1      -3.051  11.144  17.898  0.00  0.00    +0.000 A 
ATOM     28  C   UNL     1      -3.184  11.871  19.083  0.00  0.00    +0.000 A 
ATOM     29  C   UNL     1      -4.424  12.385  19.456  0.00  0.00    +0.000 A 
ATOM     30  C   UNL     1      -5.543  12.181  18.650  0.00  0.00    +0.000 A 
ATOM     31  C   UNL     1      -5.414  11.500  17.444  0.00  0.00    +0.000 A 
ATOM     32  C   UNL     1      -4.167  10.988  17.062  0.00  0.00    +0.000 A 
ENDBRANCH  26  27
ENDBRANCH  23  26
ENDBRANCH  21  22
BRANCH  21  33
ATOM     33  C   UNL     1      -0.243  10.373  22.002  0.00  0.00    +0.000 C 
BRANCH  33  34
ATOM     34  C   UNL     1      -1.127  11.642  22.032  0.00  0.00    +0.000 C 
ATOM     35  C   UNL     1      -2.087  11.701  23.222  0.00  0.00    +0.000 C 
ATOM     36  C   UNL     1      -0.343  12.953  21.967  0.00  0.00    +0.000 C 
ENDBRANCH  33  34
ENDBRANCH  21  33
ENDBRANCH   2  21
TORSDOF 13
ENDMDL
MODEL 3
REMARK VINA RESULT:      -8.0      4.382      7.902
REMARK  Name = 
REMARK  16 active torsions:
REMARK  status: ('A' for Active; 'I' for Inactive)
REMARK    1  A    between atoms: C_1  and  C_2
REMARK    2  A    between atoms: C_2  and  C_3
REMARK    3  A    between atoms: C_3  and  C_4
REMARK    4  A    between atoms: C_4  and  N_5
REMARK    5  A    between atoms: C_6  and  C_8
REMARK    6  A    between atoms: C_8  and  C_9
REMARK    7  A    between atoms: C_8  and  N_16
REMARK    8  A    between atoms: C_9  and  C_10
REMARK    9  A    between atoms: C_17  and  C_19
REMARK   10  A    between atoms: C_19  and  C_20
REMARK   11  A    between atoms: C_19  and  N_24
REMARK   12  A    between atoms: C_20  and  C_21
REMARK   13  A    between atoms: C_21  and  C_22
REMARK   14  A    between atoms: C_21  and  C_23
REMARK   15  A    between atoms: C_25  and  C_27
REMARK   16  A    between atoms: C_27  and  C_28
REMARK                            x       y       z     vdW  Elec       q    Type
REMARK                         _______ _______ _______ _____ _____    ______ ____
ROOT
ATOM      1  N   UNL     1       1.481   9.198  19.500  0.00  0.00    +0.000 N 
ATOM      2  C   UNL     1       2.032   8.703  18.335  0.00  0.00    +0.000 C 
ATOM      3  O   UNL     1       1.753   9.076  17.201  0.00  0.00    +0.000 OA
ATOM      4  H   UNL     1       1.996   9.061  20.358  0.00  0.00    +0.000 HD
ENDROOT
BRANCH   1   5
ATOM      5  C   UNL     1       0.475  10.264  19.588  0.00  0.00    +0.000 C 
BRANCH   5   7
ATOM      6  N   UNL     1      -0.747  11.257  21.476  0.00  0.00    +0.000 N 
ATOM      7  C   UNL     1       0.376  10.543  21.106  0.00  0.00    +0.000 C 
ATOM      8  O   UNL     1       1.204  10.133  21.914  0.00  0.00    +0.000 OA
ATOM      9  H   UNL     1      -1.284  11.709  20.745  0.00  0.00    +0.000 HD
BRANCH   6  10
ATOM     10  C   UNL     1      -1.038  11.556  22.859  0.00  0.00    +0.000 C 
BRANCH  10  11
ATOM     11  C   UNL     1      -2.036  12.701  22.997  0.00  0.00    +0.000 C 
BRANCH  11  13
ATOM     12  C   UNL     1      -4.541  12.984  23.051  0.00  0.00    +0.000 C 
ATOM     13  C   UNL     1      -3.349  12.249  23.641  0.00  0.00    +0.000 C 
ENDBRANCH  11  13
ENDBRANCH  10  11
ENDBRANCH   6  10
ENDBRANCH   5   7
BRANCH   5  14
ATOM     14  C   UNL     1      -0.857   9.839  18.970  0.00  0.00    +0.000 C 
BRANCH  14  15
ATOM     15  C   UNL     1      -1.347  10.632  17.758  0.00  0.00    +0.000 C 
ATOM     16  C   UNL     1      -2.412   9.872  16.948  0.00  0.00    +0.000 C 
ATOM     17  C   UNL     1      -3.750   9.757  17.677  0.00  0.00    +0.000 C 
ATOM     18  C   UNL     1      -4.281  11.136  18.049  0.00  0.00    +0.000 C 
ATOM     19  C   UNL     1      -3.281  11.905  18.905  0.00  0.00    +0.000 C 
ATOM     20  C   UNL     1      -1.904  11.991  18.237  0.00  0.00    +0.000 C 
ENDBRANCH  14  15
ENDBRANCH   5  14
ENDBRANCH   1   5
BRANCH   2  21
ATOM     21  C   UNL     1       3.040   7.565  18.554  0.00  0.00    +0.000 C 
BRANCH  21  22
ATOM     22  N   UNL     1       2.317   6.323  18.784  0.00  0.00    +0.000 N 
ATOM     23  C   UNL     1       1.902   5.964  20.035  0.00  0.00    +0.000 C 
ATOM     24  O   UNL     1       2.111   6.677  21.025  0.00  0.00    +0.000 OA
ATOM     25  H   UNL     1       2.197   5.700  17.984  0.00  0.00    +0.000 HD
BRANCH  23  26
ATOM     26  C   UNL     1       1.156   4.654  20.151  0.00  0.00    +0.000 C 
BRANCH  26  27
ATOM     27  C   UNL     1       1.951   3.506  19.575  0.00  0.00    +0.000 A 
ATOM     28  C   UNL     1       3.096   3.043  20.228  0.00  0.00    +0.000 A 
ATOM     29  C   UNL     1       3.877   2.045  19.652  0.00  0.00    +0.000 A 
ATOM     30  C   UNL     1       3.523   1.495  18.421  0.00  0.00    +0.000 A 
ATOM     31  C   UNL     1       2.359   1.912  17.784  0.00  0.00    +0.000 A 
ATOM     32  C   UNL     1       1.567   2.911  18.363  0.00  0.00    +0.000 A 
ENDBRANCH  26  27
ENDBRANCH  23  26
ENDBRANCH  21  22
BRANCH  21  33
ATOM     33  C   UNL     1       4.063   7.444  17.420  0.00  0.00    +0.000 C 
BRANCH  33  34
ATOM     34  C   UNL     1       4.611   6.034  17.100  0.00  0.00    +0.000 C 
ATOM     35  C   UNL     1       5.309   5.933  15.743  0.00  0.00    +0.000 C 
ATOM     36  C   UNL     1       5.539   5.464  18.174  0.00  0.00    +0.000 C 
ENDBRANCH  33  34
ENDBRANCH  21  33
ENDBRANCH   2  21
TORSDOF 13
ENDMDL
MODEL 4
REMARK VINA RESULT:      -8.0      3.673      8.819
REMARK  Name = 
REMARK  16 active torsions:
REMARK  status: ('A' for Active; 'I' for Inactive)
REMARK    1  A    between atoms: C_1  and  C_2
REMARK    2  A    between atoms: C_2  and  C_3
REMARK    3  A    between atoms: C_3  and  C_4
REMARK    4  A    between atoms: C_4  and  N_5
REMARK    5  A    between atoms: C_6  and  C_8
REMARK    6  A    between atoms: C_8  and  C_9
REMARK    7  A    between atoms: C_8  and  N_16
REMARK    8  A    between atoms: C_9  and  C_10
REMARK    9  A    between atoms: C_17  and  C_19
REMARK   10  A    between atoms: C_19  and  C_20
REMARK   11  A    between atoms: C_19  and  N_24
REMARK   12  A    between atoms: C_20  and  C_21
REMARK   13  A    between atoms: C_21  and  C_22
REMARK   14  A    between atoms: C_21  and  C_23
REMARK   15  A    between atoms: C_25  and  C_27
REMARK   16  A    between atoms: C_27  and  C_28
REMARK                            x       y       z     vdW  Elec       q    Type
REMARK                         _______ _______ _______ _____ _____    ______ ____
ROOT
ATOM      1  N   UNL     1       2.500   7.586  19.066  0.00  0.00    +0.000 N 
ATOM      2  C   UNL     1       1.704   8.014  20.110  0.00  0.00    +0.000 C 
ATOM      3  O   UNL     1       1.360   7.332  21.068  0.00  0.00    +0.000 OA
ATOM      4  H   UNL     1       2.975   8.291  18.519  0.00  0.00    +0.000 HD
ENDROOT
BRANCH   1   5
ATOM      5  C   UNL     1       3.084   6.247  18.925  0.00  0.00    +0.000 C 
BRANCH   5   7
ATOM      6  N   UNL     1       5.470   5.917  18.434  0.00  0.00    +0.000 N 
ATOM      7  C   UNL     1       4.290   6.475  17.984  0.00  0.00    +0.000 C 
ATOM      8  O   UNL     1       4.196   7.067  16.912  0.00  0.00    +0.000 OA
ATOM      9  H   UNL     1       5.510   5.603  19.397  0.00  0.00    +0.000 HD
BRANCH   6  10
ATOM     10  C   UNL     1       6.686   5.976  17.656  0.00  0.00    +0.000 C 
BRANCH  10  11
ATOM     11  C   UNL     1       7.010   4.637  17.002  0.00  0.00    +0.000 C 
BRANCH  11  13
ATOM     12  C   UNL     1       5.600   4.293  14.940  0.00  0.00    +0.000 C 
ATOM     13  C   UNL     1       6.959   4.713  15.474  0.00  0.00    +0.000 C 
ENDBRANCH  11  13
ENDBRANCH  10  11
ENDBRANCH   6  10
ENDBRANCH   5   7
BRANCH   5  14
ATOM     14  C   UNL     1       2.073   5.243  18.370  0.00  0.00    +0.000 C 
BRANCH  14  15
ATOM     15  C   UNL     1       1.675   4.081  19.279  0.00  0.00    +0.000 C 
ATOM     16  C   UNL     1       1.205   2.847  18.488  0.00  0.00    +0.000 C 
ATOM     17  C   UNL     1       2.340   2.148  17.740  0.00  0.00    +0.000 C 
ATOM     18  C   UNL     1       3.450   1.743  18.702  0.00  0.00    +0.000 C 
ATOM     19  C   UNL     1       3.988   2.946  19.467  0.00  0.00    +0.000 C 
ATOM     20  C   UNL     1       2.872   3.715  20.184  0.00  0.00    +0.000 C 
ENDBRANCH  14  15
ENDBRANCH   5  14
ENDBRANCH   1   5
BRANCH   2  21
ATOM     21  C   UNL     1       1.213   9.462  19.969  0.00  0.00    +0.000 C 
BRANCH  21  22
ATOM     22  N   UNL     1      -0.022   9.477  19.200  0.00  0.00    +0.000 N 
ATOM     23  C   UNL     1      -0.350  10.539  18.404  0.00  0.00    +0.000 C 
ATOM     24  O   UNL     1       0.386  11.527  18.293  0.00  0.00    +0.000 OA
ATOM     25  H   UNL     1      -0.664   8.695  19.335  0.00  0.00    +0.000 HD
BRANCH  23  26
ATOM     26  C   UNL     1      -1.656  10.440  17.647  0.00  0.00    +0.000 C 
BRANCH  26  27
ATOM     27  C   UNL     1      -2.782  11.126  18.384  0.00  0.00    +0.000 A 
ATOM     28  C   UNL     1      -4.108  10.915  18.000  0.00  0.00    +0.000 A 
ATOM     29  C   UNL     1      -5.139  11.615  18.621  0.00  0.00    +0.000 A 
ATOM     30  C   UNL     1      -4.859  12.531  19.634  0.00  0.00    +0.000 A 
ATOM     31  C   UNL     1      -3.547  12.715  20.059  0.00  0.00    +0.000 A 
ATOM     32  C   UNL     1      -2.508  12.007  19.442  0.00  0.00    +0.000 A 
ENDBRANCH  26  27
ENDBRANCH  23  26
ENDBRANCH  21  22
BRANCH  21  33
ATOM     33  C   UNL     1       1.070  10.180  21.315  0.00  0.00    +0.000 C 
BRANCH  33  34
ATOM     34  C   UNL     1      -0.349  10.287  21.921  0.00  0.00    +0.000 C 
ATOM     35  C   UNL     1      -0.612   9.303  23.062  0.00  0.00    +0.000 C 
ATOM     36  C   UNL     1      -0.726  11.694  22.387  0.00  0.00    +0.000 C 
ENDBRANCH  33  34
ENDBRANCH  21  33
ENDBRANCH   2  21
TORSDOF 13
ENDMDL
MODEL 5
REMARK VINA RESULT:      -8.0      3.709      8.151
REMARK  Name = 
REMARK  16 active torsions:
REMARK  status: ('A' for Active; 'I' for Inactive)
REMARK    1  A    between atoms: C_1  and  C_2
REMARK    2  A    between atoms: C_2  and  C_3
REMARK    3  A    between atoms: C_3  and  C_4
REMARK    4  A    between atoms: C_4  and  N_5
REMARK    5  A    between atoms: C_6  and  C_8
REMARK    6  A    between atoms: C_8  and  C_9
REMARK    7  A    between atoms: C_8  and  N_16
REMARK    8  A    between atoms: C_9  and  C_10
REMARK    9  A    between atoms: C_17  and  C_19
REMARK   10  A    between atoms: C_19  and  C_20
REMARK   11  A    between atoms: C_19  and  N_24
REMARK   12  A    between atoms: C_20  and  C_21
REMARK   13  A    between atoms: C_21  and  C_22
REMARK   14  A    between atoms: C_21  and  C_23
REMARK   15  A    between atoms: C_25  and  C_27
REMARK   16  A    between atoms: C_27  and  C_28
REMARK                            x       y       z     vdW  Elec       q    Type
REMARK                         _______ _______ _______ _____ _____    ______ ____
ROOT
ATOM      1  N   UNL     1       2.634   6.957  18.668  0.00  0.00    +0.000 N 
ATOM      2  C   UNL     1       2.185   8.235  18.403  0.00  0.00    +0.000 C 
ATOM      3  O   UNL     1       2.322   8.831  17.340  0.00  0.00    +0.000 OA
ATOM      4  H   UNL     1       2.200   6.456  19.430  0.00  0.00    +0.000 HD
ENDROOT
BRANCH   1   5
ATOM      5  C   UNL     1       3.342   6.083  17.724  0.00  0.00    +0.000 C 
BRANCH   5   7
ATOM      6  N   UNL     1       1.810   4.654  19.011  0.00  0.00    +0.000 N 
ATOM      7  C   UNL     1       2.663   4.707  17.926  0.00  0.00    +0.000 C 
ATOM      8  O   UNL     1       2.839   3.760  17.166  0.00  0.00    +0.000 OA
ATOM      9  H   UNL     1       1.852   5.408  19.685  0.00  0.00    +0.000 HD
BRANCH   6  10
ATOM     10  C   UNL     1       1.041   3.470  19.317  0.00  0.00    +0.000 C 
BRANCH  10  11
ATOM     11  C   UNL     1       0.982   3.200  20.816  0.00  0.00    +0.000 C 
BRANCH  11  13
ATOM     12  C   UNL     1       3.373   2.400  20.765  0.00  0.00    +0.000 C 
ATOM     13  C   UNL     1       2.362   3.285  21.474  0.00  0.00    +0.000 C 
ENDBRANCH  11  13
ENDBRANCH  10  11
ENDBRANCH   6  10
ENDBRANCH   5   7
BRANCH   5  14
ATOM     14  C   UNL     1       4.846   6.053  17.997  0.00  0.00    +0.000 C 
BRANCH  14  15
ATOM     15  C   UNL     1       5.759   6.661  16.932  0.00  0.00    +0.000 C 
ATOM     16  C   UNL     1       7.224   6.219  17.089  0.00  0.00    +0.000 C 
ATOM     17  C   UNL     1       7.446   4.748  16.740  0.00  0.00    +0.000 C 
ATOM     18  C   UNL     1       6.975   4.454  15.321  0.00  0.00    +0.000 C 
ATOM     19  C   UNL     1       5.508   4.823  15.135  0.00  0.00    +0.000 C 
ATOM     20  C   UNL     1       5.227   6.276  15.534  0.00  0.00    +0.000 C 
ENDBRANCH  14  15
ENDBRANCH   5  14
ENDBRANCH   1   5
BRANCH   2  21
ATOM     21  C   UNL     1       1.504   8.919  19.597  0.00  0.00    +0.000 C 
BRANCH  21  22
ATOM     22  N   UNL     1       0.379   9.709  19.119  0.00  0.00    +0.000 N 
ATOM     23  C   UNL     1       0.408  11.076  19.150  0.00  0.00    +0.000 C 
ATOM     24  O   UNL     1       1.387  11.702  19.574  0.00  0.00    +0.000 OA
ATOM     25  H   UNL     1      -0.457   9.201  18.827  0.00  0.00    +0.000 HD
BRANCH  23  26
ATOM     26  C   UNL     1      -0.816  11.790  18.622  0.00  0.00    +0.000 C 
BRANCH  26  27
ATOM     27  C   UNL     1      -1.767  12.164  19.735  0.00  0.00    +0.000 A 
ATOM     28  C   UNL     1      -1.305  12.284  21.047  0.00  0.00    +0.000 A 
ATOM     29  C   UNL     1      -2.197  12.542  22.085  0.00  0.00    +0.000 A 
ATOM     30  C   UNL     1      -3.559  12.686  21.824  0.00  0.00    +0.000 A 
ATOM     31  C   UNL     1      -4.025  12.617  20.516  0.00  0.00    +0.000 A 
ATOM     32  C   UNL     1      -3.130  12.365  19.469  0.00  0.00    +0.000 A 
ENDBRANCH  26  27
ENDBRANCH  23  26
ENDBRANCH  21  22
BRANCH  21  33
ATOM     33  C   UNL     1       1.100   7.936  20.700  0.00  0.00    +0.000 C 
BRANCH  33  34
ATOM     34  C   UNL     1       0.811   8.518  22.104  0.00  0.00    +0.000 C 
ATOM     35  C   UNL     1       1.724   9.682  22.493  0.00  0.00    +0.000 C 
ATOM     36  C   UNL     1      -0.643   8.939  22.321  0.00  0.00    +0.000 C 
ENDBRANCH  33  34
ENDBRANCH  21  33
ENDBRANCH   2  21
TORSDOF 13
ENDMDL
MODEL 6
REMARK VINA RESULT:      -7.9      3.598      6.665
REMARK  Name = 
REMARK  16 active torsions:
REMARK  status: ('A' for Active; 'I' for Inactive)
REMARK    1  A    between atoms: C_1  and  C_2
REMARK    2  A    between atoms: C_2  and  C_3
REMARK    3  A    between atoms: C_3  and  C_4
REMARK    4  A    between atoms: C_4  and  N_5
REMARK    5  A    between atoms: C_6  and  C_8
REMARK    6  A    between atoms: C_8  and  C_9
REMARK    7  A    between atoms: C_8  and  N_16
REMARK    8  A    between atoms: C_9  and  C_10
REMARK    9  A    between atoms: C_17  and  C_19
REMARK   10  A    between atoms: C_19  and  C_20
REMARK   11  A    between atoms: C_19  and  N_24
REMARK   12  A    between atoms: C_20  and  C_21
REMARK   13  A    between atoms: C_21  and  C_22
REMARK   14  A    between atoms: C_21  and  C_23
REMARK   15  A    between atoms: C_25  and  C_27
REMARK   16  A    between atoms: C_27  and  C_28
REMARK                            x       y       z     vdW  Elec       q    Type
REMARK                         _______ _______ _______ _____ _____    ______ ____
ROOT
ATOM      1  N   UNL     1       2.385   7.799  18.930  0.00  0.00    +0.000 N 
ATOM      2  C   UNL     1       1.729   8.936  18.503  0.00  0.00    +0.000 C 
ATOM      3  O   UNL     1       1.502   9.230  17.334  0.00  0.00    +0.000 OA
ATOM      4  H   UNL     1       2.235   7.502  19.884  0.00  0.00    +0.000 HD
ENDROOT
BRANCH   1   5
ATOM      5  C   UNL     1       2.913   6.737  18.065  0.00  0.00    +0.000 C 
BRANCH   5   7
ATOM      6  N   UNL     1       1.986   5.260  19.799  0.00  0.00    +0.000 N 
ATOM      7  C   UNL     1       2.057   5.504  18.441  0.00  0.00    +0.000 C 
ATOM      8  O   UNL     1       1.462   4.828  17.607  0.00  0.00    +0.000 OA
ATOM      9  H   UNL     1       2.638   5.746  20.403  0.00  0.00    +0.000 HD
BRANCH   6  10
ATOM     10  C   UNL     1       1.181   4.189  20.339  0.00  0.00    +0.000 C 
BRANCH  10  11
ATOM     11  C   UNL     1       1.994   2.917  20.554  0.00  0.00    +0.000 C 
BRANCH  11  13
ATOM     12  C   UNL     1       3.166   1.850  18.592  0.00  0.00    +0.000 C 
ATOM     13  C   UNL     1       1.869   1.945  19.378  0.00  0.00    +0.000 C 
ENDBRANCH  11  13
ENDBRANCH  10  11
ENDBRANCH   6  10
ENDBRANCH   5   7
BRANCH   5  14
ATOM     14  C   UNL     1       4.409   6.516  18.288  0.00  0.00    +0.000 C 
BRANCH  14  15
ATOM     15  C   UNL     1       5.341   6.829  17.117  0.00  0.00    +0.000 C 
ATOM     16  C   UNL     1       6.822   6.855  17.534  0.00  0.00    +0.000 C 
ATOM     17  C   UNL     1       7.373   5.470  17.875  0.00  0.00    +0.000 C 
ATOM     18  C   UNL     1       7.190   4.514  16.703  0.00  0.00    +0.000 C 
ATOM     19  C   UNL     1       5.726   4.411  16.293  0.00  0.00    +0.000 C 
ATOM     20  C   UNL     1       5.115   5.786  16.000  0.00  0.00    +0.000 C 
ENDBRANCH  14  15
ENDBRANCH   5  14
ENDBRANCH   1   5
BRANCH   2  21
ATOM     21  C   UNL     1       1.316   9.884  19.638  0.00  0.00    +0.000 C 
BRANCH  21  22
ATOM     22  N   UNL     1       1.279  11.249  19.133  0.00  0.00    +0.000 N 
ATOM     23  C   UNL     1       1.398  12.320  19.974  0.00  0.00    +0.000 C 
ATOM     24  O   UNL     1       1.550  12.183  21.194  0.00  0.00    +0.000 OA
ATOM     25  H   UNL     1       1.091  11.372  18.137  0.00  0.00    +0.000 HD
BRANCH  23  26
ATOM     26  C   UNL     1       1.351  13.690  19.335  0.00  0.00    +0.000 C 
BRANCH  26  27
ATOM     27  C   UNL     1       2.734  14.268  19.151  0.00  0.00    +0.000 A 
ATOM     28  C   UNL     1       3.550  14.510  20.258  0.00  0.00    +0.000 A 
ATOM     29  C   UNL     1       4.789  15.125  20.097  0.00  0.00    +0.000 A 
ATOM     30  C   UNL     1       5.229  15.501  18.828  0.00  0.00    +0.000 A 
ATOM     31  C   UNL     1       4.447  15.222  17.713  0.00  0.00    +0.000 A 
ATOM     32  C   UNL     1       3.203  14.598  17.871  0.00  0.00    +0.000 A 
ENDBRANCH  26  27
ENDBRANCH  23  26
ENDBRANCH  21  22
BRANCH  21  33
ATOM     33  C   UNL     1       0.003   9.476  20.312  0.00  0.00    +0.000 C 
BRANCH  33  34
ATOM     34  C   UNL     1       0.062   9.067  21.803  0.00  0.00    +0.000 C 
ATOM     35  C   UNL     1       1.484   8.926  22.351  0.00  0.00    +0.000 C 
ATOM     36  C   UNL     1      -0.735   9.980  22.735  0.00  0.00    +0.000 C 
ENDBRANCH  33  34
ENDBRANCH  21  33
ENDBRANCH   2  21
TORSDOF 13
ENDMDL
MODEL 7
REMARK VINA RESULT:      -7.9      3.864      7.587
REMARK  Name = 
REMARK  16 active torsions:
REMARK  status: ('A' for Active; 'I' for Inactive)
REMARK    1  A    between atoms: C_1  and  C_2
REMARK    2  A    between atoms: C_2  and  C_3
REMARK    3  A    between atoms: C_3  and  C_4
REMARK    4  A    between atoms: C_4  and  N_5
REMARK    5  A    between atoms: C_6  and  C_8
REMARK    6  A    between atoms: C_8  and  C_9
REMARK    7  A    between atoms: C_8  and  N_16
REMARK    8  A    between atoms: C_9  and  C_10
REMARK    9  A    between atoms: C_17  and  C_19
REMARK   10  A    between atoms: C_19  and  C_20
REMARK   11  A    between atoms: C_19  and  N_24
REMARK   12  A    between atoms: C_20  and  C_21
REMARK   13  A    between atoms: C_21  and  C_22
REMARK   14  A    between atoms: C_21  and  C_23
REMARK   15  A    between atoms: C_25  and  C_27
REMARK   16  A    between atoms: C_27  and  C_28
REMARK                            x       y       z     vdW  Elec       q    Type
REMARK                         _______ _______ _______ _____ _____    ______ ____
ROOT
ATOM      1  N   UNL     1       2.064   7.787  18.934  0.00  0.00    +0.000 N 
ATOM      2  C   UNL     1       1.913   8.940  18.190  0.00  0.00    +0.000 C 
ATOM      3  O   UNL     1       2.227   9.073  17.012  0.00  0.00    +0.000 OA
ATOM      4  H   UNL     1       1.495   7.687  19.763  0.00  0.00    +0.000 HD
ENDROOT
BRANCH   1   5
ATOM      5  C   UNL     1       2.613   6.517  18.446  0.00  0.00    +0.000 C 
BRANCH   5   7
ATOM      6  N   UNL     1       1.521   4.331  18.720  0.00  0.00    +0.000 N 
ATOM      7  C   UNL     1       1.967   5.462  19.376  0.00  0.00    +0.000 C 
ATOM      8  O   UNL     1       1.894   5.603  20.593  0.00  0.00    +0.000 OA
ATOM      9  H   UNL     1       1.454   4.363  17.710  0.00  0.00    +0.000 HD
BRANCH   6  10
ATOM     10  C   UNL     1       0.947   3.214  19.434  0.00  0.00    +0.000 C 
BRANCH  10  11
ATOM     11  C   UNL     1       2.017   2.279  19.985  0.00  0.00    +0.000 C 
BRANCH  11  13
ATOM     12  C   UNL     1       4.537   2.341  19.889  0.00  0.00    +0.000 C 
ATOM     13  C   UNL     1       3.253   2.220  19.084  0.00  0.00    +0.000 C 
ENDBRANCH  11  13
ENDBRANCH  10  11
ENDBRANCH   6  10
ENDBRANCH   5   7
BRANCH   5  14
ATOM     14  C   UNL     1       4.142   6.503  18.497  0.00  0.00    +0.000 C 
BRANCH  14  15
ATOM     15  C   UNL     1       4.884   6.627  17.167  0.00  0.00    +0.000 C 
ATOM     16  C   UNL     1       6.342   7.085  17.347  0.00  0.00    +0.000 C 
ATOM     17  C   UNL     1       7.231   6.018  17.984  0.00  0.00    +0.000 C 
ATOM     18  C   UNL     1       7.199   4.732  17.167  0.00  0.00    +0.000 C 
ATOM     19  C   UNL     1       5.776   4.207  17.013  0.00  0.00    +0.000 C 
ATOM     20  C   UNL     1       4.834   5.269  16.433  0.00  0.00    +0.000 C 
ENDBRANCH  14  15
ENDBRANCH   5  14
ENDBRANCH   1   5
BRANCH   2  21
ATOM     21  C   UNL     1       1.336  10.124  18.979  0.00  0.00    +0.000 C 
BRANCH  21  22
ATOM     22  N   UNL     1       1.718  11.367  18.327  0.00  0.00    +0.000 N 
ATOM     23  C   UNL     1       1.986  12.495  19.051  0.00  0.00    +0.000 C 
ATOM     24  O   UNL     1       1.925  12.512  20.286  0.00  0.00    +0.000 OA
ATOM     25  H   UNL     1       1.709  11.380  17.306  0.00  0.00    +0.000 HD
BRANCH  23  26
ATOM     26  C   UNL     1       2.378  13.726  18.265  0.00  0.00    +0.000 C 
BRANCH  26  27
ATOM     27  C   UNL     1       1.604  14.944  18.711  0.00  0.00    +0.000 A 
ATOM     28  C   UNL     1       0.207  14.936  18.694  0.00  0.00    +0.000 A 
ATOM     29  C   UNL     1      -0.506  16.087  19.020  0.00  0.00    +0.000 A 
ATOM     30  C   UNL     1       0.167  17.257  19.370  0.00  0.00    +0.000 A 
ATOM     31  C   UNL     1       1.556  17.265  19.437  0.00  0.00    +0.000 A 
ATOM     32  C   UNL     1       2.276  16.107  19.117  0.00  0.00    +0.000 A 
ENDBRANCH  26  27
ENDBRANCH  23  26
ENDBRANCH  21  22
BRANCH  21  33
ATOM     33  C   UNL     1      -0.178  10.020  19.196  0.00  0.00    +0.000 C 
BRANCH  33  34
ATOM     34  C   UNL     1      -1.093  10.809  18.231  0.00  0.00    +0.000 C 
ATOM     35  C   UNL     1      -1.953   9.924  17.328  0.00  0.00    +0.000 C 
ATOM     36  C   UNL     1      -1.996  11.832  18.921  0.00  0.00    +0.000 C 
ENDBRANCH  33  34
ENDBRANCH  21  33
ENDBRANCH   2  21
TORSDOF 13
ENDMDL
MODEL 8
REMARK VINA RESULT:      -7.9      3.626      8.907
REMARK  Name = 
REMARK  16 active torsions:
REMARK  status: ('A' for Active; 'I' for Inactive)
REMARK    1  A    between atoms: C_1  and  C_2
REMARK    2  A    between atoms: C_2  and  C_3
REMARK    3  A    between atoms: C_3  and  C_4
REMARK    4  A    between atoms: C_4  and  N_5
REMARK    5  A    between atoms: C_6  and  C_8
REMARK    6  A    between atoms: C_8  and  C_9
REMARK    7  A    between atoms: C_8  and  N_16
REMARK    8  A    between atoms: C_9  and  C_10
REMARK    9  A    between atoms: C_17  and  C_19
REMARK   10  A    between atoms: C_19  and  C_20
REMARK   11  A    between atoms: C_19  and  N_24
REMARK   12  A    between atoms: C_20  and  C_21
REMARK   13  A    between atoms: C_21  and  C_22
REMARK   14  A    between atoms: C_21  and  C_23
REMARK   15  A    between atoms: C_25  and  C_27
REMARK   16  A    between atoms: C_27  and  C_28
REMARK                            x       y       z     vdW  Elec       q    Type
REMARK                         _______ _______ _______ _____ _____    ______ ____
ROOT
ATOM      1  N   UNL     1       2.026   7.865  18.908  0.00  0.00    +0.000 N 
ATOM      2  C   UNL     1       1.806   9.077  18.284  0.00  0.00    +0.000 C 
ATOM      3  O   UNL     1       2.175   9.371  17.153  0.00  0.00    +0.000 OA
ATOM      4  H   UNL     1       1.422   7.619  19.680  0.00  0.00    +0.000 HD
ENDROOT
BRANCH   1   5
ATOM      5  C   UNL     1       2.725   6.714  18.325  0.00  0.00    +0.000 C 
BRANCH   5   7
ATOM      6  N   UNL     1       1.829   4.427  18.441  0.00  0.00    +0.000 N 
ATOM      7  C   UNL     1       2.235   5.521  19.180  0.00  0.00    +0.000 C 
ATOM      8  O   UNL     1       2.243   5.534  20.407  0.00  0.00    +0.000 OA
ATOM      9  H   UNL     1       1.684   4.553  17.447  0.00  0.00    +0.000 HD
BRANCH   6  10
ATOM     10  C   UNL     1       1.399   3.200  19.071  0.00  0.00    +0.000 C 
BRANCH  10  11
ATOM     11  C   UNL     1       1.905   1.970  18.327  0.00  0.00    +0.000 C 
BRANCH  11  13
ATOM     12  C   UNL     1       3.883   2.295  19.857  0.00  0.00    +0.000 C 
ATOM     13  C   UNL     1       3.409   1.757  18.518  0.00  0.00    +0.000 C 
ENDBRANCH  11  13
ENDBRANCH  10  11
ENDBRANCH   6  10
ENDBRANCH   5   7
BRANCH   5  14
ATOM     14  C   UNL     1       4.243   6.893  18.363  0.00  0.00    +0.000 C 
BRANCH  14  15
ATOM     15  C   UNL     1       4.992   6.776  17.036  0.00  0.00    +0.000 C 
ATOM     16  C   UNL     1       6.477   7.161  17.161  0.00  0.00    +0.000 C 
ATOM     17  C   UNL     1       7.294   6.141  17.953  0.00  0.00    +0.000 C 
ATOM     18  C   UNL     1       7.178   4.755  17.329  0.00  0.00    +0.000 C 
ATOM     19  C   UNL     1       5.723   4.307  17.239  0.00  0.00    +0.000 C 
ATOM     20  C   UNL     1       4.852   5.333  16.504  0.00  0.00    +0.000 C 
ENDBRANCH  14  15
ENDBRANCH   5  14
ENDBRANCH   1   5
BRANCH   2  21
ATOM     21  C   UNL     1       1.071  10.106  19.156  0.00  0.00    +0.000 C 
BRANCH  21  22
ATOM     22  N   UNL     1      -0.291  10.262  18.667  0.00  0.00    +0.000 N 
ATOM     23  C   UNL     1      -0.784  11.490  18.323  0.00  0.00    +0.000 C 
ATOM     24  O   UNL     1      -0.101  12.517  18.402  0.00  0.00    +0.000 OA
ATOM     25  H   UNL     1      -0.881   9.429  18.658  0.00  0.00    +0.000 HD
BRANCH  23  26
ATOM     26  C   UNL     1      -2.211  11.529  17.822  0.00  0.00    +0.000 C 
BRANCH  26  27
ATOM     27  C   UNL     1      -3.170  11.971  18.902  0.00  0.00    +0.000 A 
ATOM     28  C   UNL     1      -2.686  12.479  20.110  0.00  0.00    +0.000 A 
ATOM     29  C   UNL     1      -3.567  12.804  21.139  0.00  0.00    +0.000 A 
ATOM     30  C   UNL     1      -4.940  12.629  20.972  0.00  0.00    +0.000 A 
ATOM     31  C   UNL     1      -5.438  12.170  19.758  0.00  0.00    +0.000 A 
ATOM     32  C   UNL     1      -4.556  11.849  18.719  0.00  0.00    +0.000 A 
ENDBRANCH  26  27
ENDBRANCH  23  26
ENDBRANCH  21  22
BRANCH  21  33
ATOM     33  C   UNL     1       1.119   9.769  20.650  0.00  0.00    +0.000 C 
BRANCH  33  34
ATOM     34  C   UNL     1      -0.229   9.645  21.397  0.00  0.00    +0.000 C 
ATOM     35  C   UNL     1      -0.519   8.238  21.923  0.00  0.00    +0.000 C 
ATOM     36  C   UNL     1      -0.405  10.644  22.542  0.00  0.00    +0.000 C 
ENDBRANCH  33  34
ENDBRANCH  21  33
ENDBRANCH   2  21
TORSDOF 13
ENDMDL
MODEL 9
REMARK VINA RESULT:      -7.9      3.473      7.772
REMARK  Name = 
REMARK  16 active torsions:
REMARK  status: ('A' for Active; 'I' for Inactive)
REMARK    1  A    between atoms: C_1  and  C_2
REMARK    2  A    between atoms: C_2  and  C_3
REMARK    3  A    between atoms: C_3  and  C_4
REMARK    4  A    between atoms: C_4  and  N_5
REMARK    5  A    between atoms: C_6  and  C_8
REMARK    6  A    between atoms: C_8  and  C_9
REMARK    7  A    between atoms: C_8  and  N_16
REMARK    8  A    between atoms: C_9  and  C_10
REMARK    9  A    between atoms: C_17  and  C_19
REMARK   10  A    between atoms: C_19  and  C_20
REMARK   11  A    between atoms: C_19  and  N_24
REMARK   12  A    between atoms: C_20  and  C_21
REMARK   13  A    between atoms: C_21  and  C_22
REMARK   14  A    between atoms: C_21  and  C_23
REMARK   15  A    between atoms: C_25  and  C_27
REMARK   16  A    between atoms: C_27  and  C_28
REMARK                            x       y       z     vdW  Elec       q    Type
REMARK                         _______ _______ _______ _____ _____    ______ ____
ROOT
ATOM      1  N   UNL     1       1.643   8.197  19.104  0.00  0.00    +0.000 N 
ATOM      2  C   UNL     1       1.176   8.853  20.225  0.00  0.00    +0.000 C 
ATOM      3  O   UNL     1       1.508   8.611  21.380  0.00  0.00    +0.000 OA
ATOM      4  H   UNL     1       1.560   8.671  18.215  0.00  0.00    +0.000 HD
ENDROOT
BRANCH   1   5
ATOM      5  C   UNL     1       2.625   7.107  19.094  0.00  0.00    +0.000 C 
BRANCH   5   7
ATOM      6  N   UNL     1       4.547   6.541  17.669  0.00  0.00    +0.000 N 
ATOM      7  C   UNL     1       3.476   7.398  17.835  0.00  0.00    +0.000 C 
ATOM      8  O   UNL     1       3.200   8.287  17.036  0.00  0.00    +0.000 OA
ATOM      9  H   UNL     1       4.812   5.955  18.451  0.00  0.00    +0.000 HD
BRANCH   6  10
ATOM     10  C   UNL     1       5.415   6.623  16.517  0.00  0.00    +0.000 C 
BRANCH  10  11
ATOM     11  C   UNL     1       6.790   6.027  16.796  0.00  0.00    +0.000 C 
BRANCH  11  13
ATOM     12  C   UNL     1       7.825   8.171  17.627  0.00  0.00    +0.000 C 
ATOM     13  C   UNL     1       7.498   6.725  17.960  0.00  0.00    +0.000 C 
ENDBRANCH  11  13
ENDBRANCH  10  11
ENDBRANCH   6  10
ENDBRANCH   5   7
BRANCH   5  14
ATOM     14  C   UNL     1       1.950   5.735  19.055  0.00  0.00    +0.000 C 
BRANCH  14  15
ATOM     15  C   UNL     1       2.259   4.774  20.203  0.00  0.00    +0.000 C 
ATOM     16  C   UNL     1       1.069   3.861  20.545  0.00  0.00    +0.000 C 
ATOM     17  C   UNL     1       0.787   2.815  19.466  0.00  0.00    +0.000 C 
ATOM     18  C   UNL     1       2.024   1.964  19.206  0.00  0.00    +0.000 C 
ATOM     19  C   UNL     1       3.217   2.824  18.806  0.00  0.00    +0.000 C 
ATOM     20  C   UNL     1       3.497   3.928  19.831  0.00  0.00    +0.000 C 
ENDBRANCH  14  15
ENDBRANCH   5  14
ENDBRANCH   1   5
BRANCH   2  21
ATOM     21  C   UNL     1       0.127   9.934  19.927  0.00  0.00    +0.000 C 
BRANCH  21  22
ATOM     22  N   UNL     1       0.551  11.192  20.523  0.00  0.00    +0.000 N 
ATOM     23  C   UNL     1      -0.315  11.962  21.247  0.00  0.00    +0.000 C 
ATOM     24  O   UNL     1      -1.491  11.626  21.436  0.00  0.00    +0.000 OA
ATOM     25  H   UNL     1       1.501  11.507  20.319  0.00  0.00    +0.000 HD
BRANCH  23  26
ATOM     26  C   UNL     1       0.240  13.246  21.823  0.00  0.00    +0.000 C 
BRANCH  26  27
ATOM     27  C   UNL     1       0.527  14.264  20.744  0.00  0.00    +0.000 A 
ATOM     28  C   UNL     1      -0.514  14.782  19.970  0.00  0.00    +0.000 A 
ATOM     29  C   UNL     1      -0.239  15.653  18.918  0.00  0.00    +0.000 A 
ATOM     30  C   UNL     1       1.075  16.018  18.630  0.00  0.00    +0.000 A 
ATOM     31  C   UNL     1       2.115  15.547  19.424  0.00  0.00    +0.000 A 
ATOM     32  C   UNL     1       1.843  14.677  20.487  0.00  0.00    +0.000 A 
ENDBRANCH  26  27
ENDBRANCH  23  26
ENDBRANCH  21  22
BRANCH  21  33
ATOM     33  C   UNL     1      -0.184  10.071  18.433  0.00  0.00    +0.000 C 
BRANCH  33  34
ATOM     34  C   UNL     1      -1.617  10.497  18.039  0.00  0.00    +0.000 C 
ATOM     35  C   UNL     1      -1.789  12.007  17.863  0.00  0.00    +0.000 C 
ATOM     36  C   UNL     1      -2.160   9.793  16.795  0.00  0.00    +0.000 C 
ENDBRANCH  33  34
ENDBRANCH  21  33
ENDBRANCH   2  21
TORSDOF 13
ENDMDL
