MODEL 1
REMARK VINA RESULT:      -5.6      0.000      0.000
REMARK  Name = 
REMARK  10 active torsions:
REMARK  status: ('A' for Active; 'I' for Inactive)
REMARK    1  A    between atoms: C_1  and  O_2
REMARK    2  A    between atoms: O_2  and  C_3
REMARK    3  A    between atoms: C_6  and  C_7
REMARK    4  A    between atoms: C_7  and  C_8
REMARK    5  A    between atoms: N_10  and  C_11
REMARK    6  A    between atoms: C_11  and  C_12
REMARK    7  A    between atoms: C_12  and  O_13
REMARK    8  A    between atoms: O_13  and  C_14
REMARK    9  A    between atoms: C_14  and  C_15
REMARK   10  A    between atoms: C_15  and  O_16
REMARK                            x       y       z     vdW  Elec       q    Type
REMARK                         _______ _______ _______ _____ _____    ______ ____
ROOT
ATOM      1  C   UNL     1       2.494   2.867  17.740  0.00  0.00    +0.000 C 
ATOM      2  O   UNL     1       1.737   3.721  17.276  0.00  0.00    +0.000 OA
ATOM      3  N   UNL     1       2.133   2.077  18.816  0.00  0.00    +0.000 N 
ATOM      4  H   UNL     1       2.857   1.621  19.355  0.00  0.00    +0.000 HD
ENDROOT
BRANCH   1   5
ATOM      5  C   UNL     1       3.890   2.620  17.185  0.00  0.00    +0.000 C 
BRANCH   5   9
ATOM      6  C   UNL     1       6.230   6.239  16.731  0.00  0.00    +0.000 A 
ATOM      7  C   UNL     1       5.885   5.775  18.000  0.00  0.00    +0.000 A 
ATOM      8  C   UNL     1       5.147   4.598  18.150  0.00  0.00    +0.000 A 
ATOM      9  C   UNL     1       4.710   3.879  17.029  0.00  0.00    +0.000 A 
ATOM     10  C   UNL     1       5.065   4.349  15.757  0.00  0.00    +0.000 A 
ATOM     11  C   UNL     1       5.817   5.520  15.608  0.00  0.00    +0.000 A 
BRANCH   6  13
ATOM     12  C   UNL     1       7.772   7.654  17.836  0.00  0.00    +0.000 C 
ATOM     13  O   UNL     1       6.933   7.411  16.713  0.00  0.00    +0.000 OA
ENDBRANCH   6  13
ENDBRANCH   5   9
ENDBRANCH   1   5
BRANCH   3  14
ATOM     14  C   UNL     1       0.864   2.334  19.479  0.00  0.00    +0.000 C 
BRANCH  14  15
ATOM     15  C   UNL     1       1.011   3.104  20.788  0.00  0.00    +0.000 C 
BRANCH  15  16
ATOM     16  O   UNL     1       0.979   4.516  20.529  0.00  0.00    +0.000 OA
BRANCH  16  17
ATOM     17  C   UNL     1       2.293   5.084  20.635  0.00  0.00    +0.000 C 
BRANCH  17  18
ATOM     18  C   UNL     1       2.317   6.418  19.894  0.00  0.00    +0.000 C 
BRANCH  18  19
ATOM     19  O   UNL     1       1.966   7.479  20.777  0.00  0.00    +0.000 OA
ATOM     20  H   UNL     1       2.429   8.270  20.437  0.00  0.00    +0.000 HD
ENDBRANCH  18  19
ENDBRANCH  17  18
ENDBRANCH  16  17
ENDBRANCH  15  16
ENDBRANCH  14  15
ENDBRANCH   3  14
TORSDOF 9
ENDMDL
MODEL 2
REMARK VINA RESULT:      -5.6      3.373      7.045
REMARK  Name = 
REMARK  10 active torsions:
REMARK  status: ('A' for Active; 'I' for Inactive)
REMARK    1  A    between atoms: C_1  and  O_2
REMARK    2  A    between atoms: O_2  and  C_3
REMARK    3  A    between atoms: C_6  and  C_7
REMARK    4  A    between atoms: C_7  and  C_8
REMARK    5  A    between atoms: N_10  and  C_11
REMARK    6  A    between atoms: C_11  and  C_12
REMARK    7  A    between atoms: C_12  and  O_13
REMARK    8  A    between atoms: O_13  and  C_14
REMARK    9  A    between atoms: C_14  and  C_15
REMARK   10  A    between atoms: C_15  and  O_16
REMARK                            x       y       z     vdW  Elec       q    Type
REMARK                         _______ _______ _______ _____ _____    ______ ____
ROOT
ATOM      1  C   UNL     1       7.151   4.733  17.722  0.00  0.00    +0.000 C 
ATOM      2  O   UNL     1       8.245   4.169  17.681  0.00  0.00    +0.000 OA
ATOM      3  N   UNL     1       6.420   4.997  16.580  0.00  0.00    +0.000 N 
ATOM      4  H   UNL     1       5.704   5.711  16.608  0.00  0.00    +0.000 HD
ENDROOT
BRANCH   1   5
ATOM      5  C   UNL     1       6.519   5.202  19.026  0.00  0.00    +0.000 C 
BRANCH   5   9
ATOM      6  C   UNL     1       2.334   4.140  19.394  0.00  0.00    +0.000 A 
ATOM      7  C   UNL     1       3.315   3.149  19.369  0.00  0.00    +0.000 A 
ATOM      8  C   UNL     1       4.666   3.489  19.270  0.00  0.00    +0.000 A 
ATOM      9  C   UNL     1       5.060   4.829  19.160  0.00  0.00    +0.000 A 
ATOM     10  C   UNL     1       4.070   5.820  19.190  0.00  0.00    +0.000 A 
ATOM     11  C   UNL     1       2.717   5.479  19.305  0.00  0.00    +0.000 A 
BRANCH   6  13
ATOM     12  C   UNL     1       0.795   2.422  18.861  0.00  0.00    +0.000 C 
ATOM     13  O   UNL     1       1.048   3.682  19.471  0.00  0.00    +0.000 OA
ENDBRANCH   6  13
ENDBRANCH   5   9
ENDBRANCH   1   5
BRANCH   3  14
ATOM     14  C   UNL     1       7.009   4.690  15.286  0.00  0.00    +0.000 C 
BRANCH  14  15
ATOM     15  C   UNL     1       5.972   4.431  14.196  0.00  0.00    +0.000 C 
BRANCH  15  16
ATOM     16  O   UNL     1       6.339   3.266  13.442  0.00  0.00    +0.000 OA
BRANCH  16  17
ATOM     17  C   UNL     1       5.823   3.340  12.105  0.00  0.00    +0.000 C 
BRANCH  17  18
ATOM     18  C   UNL     1       5.761   1.932  11.519  0.00  0.00    +0.000 C 
BRANCH  18  19
ATOM     19  O   UNL     1       7.075   1.451  11.254  0.00  0.00    +0.000 OA
ATOM     20  H   UNL     1       7.219   0.717  11.884  0.00  0.00    +0.000 HD
ENDBRANCH  18  19
ENDBRANCH  17  18
ENDBRANCH  16  17
ENDBRANCH  15  16
ENDBRANCH  14  15
ENDBRANCH   3  14
TORSDOF 9
ENDMDL
MODEL 3
REMARK VINA RESULT:      -5.6      2.301      5.988
REMARK  Name = 
REMARK  10 active torsions:
REMARK  status: ('A' for Active; 'I' for Inactive)
REMARK    1  A    between atoms: C_1  and  O_2
REMARK    2  A    between atoms: O_2  and  C_3
REMARK    3  A    between atoms: C_6  and  C_7
REMARK    4  A    between atoms: C_7  and  C_8
REMARK    5  A    between atoms: N_10  and  C_11
REMARK    6  A    between atoms: C_11  and  C_12
REMARK    7  A    between atoms: C_12  and  O_13
REMARK    8  A    between atoms: O_13  and  C_14
REMARK    9  A    between atoms: C_14  and  C_15
REMARK   10  A    between atoms: C_15  and  O_16
REMARK                            x       y       z     vdW  Elec       q    Type
REMARK                         _______ _______ _______ _____ _____    ______ ____
ROOT
ATOM      1  C   UNL     1       4.634   6.275  16.706  0.00  0.00    +0.000 C 
ATOM      2  O   UNL     1       5.180   6.831  15.753  0.00  0.00    +0.000 OA
ATOM      3  N   UNL     1       5.085   5.068  17.205  0.00  0.00    +0.000 N 
ATOM      4  H   UNL     1       4.459   4.500  17.760  0.00  0.00    +0.000 HD
ENDROOT
BRANCH   1   5
ATOM      5  C   UNL     1       3.410   6.855  17.402  0.00  0.00    +0.000 C 
BRANCH   5   9
ATOM      6  C   UNL     1       1.442   4.078  20.084  0.00  0.00    +0.000 A 
ATOM      7  C   UNL     1       1.354   3.910  18.703  0.00  0.00    +0.000 A 
ATOM      8  C   UNL     1       2.003   4.792  17.836  0.00  0.00    +0.000 A 
ATOM      9  C   UNL     1       2.728   5.883  18.336  0.00  0.00    +0.000 A 
ATOM     10  C   UNL     1       2.816   6.043  19.725  0.00  0.00    +0.000 A 
ATOM     11  C   UNL     1       2.177   5.149  20.593  0.00  0.00    +0.000 A 
BRANCH   6  13
ATOM     12  C   UNL     1       1.491   2.471  21.821  0.00  0.00    +0.000 C 
ATOM     13  O   UNL     1       0.747   3.165  20.826  0.00  0.00    +0.000 OA
ENDBRANCH   6  13
ENDBRANCH   5   9
ENDBRANCH   1   5
BRANCH   3  14
ATOM     14  C   UNL     1       6.174   4.390  16.520  0.00  0.00    +0.000 C 
BRANCH  14  15
ATOM     15  C   UNL     1       7.556   4.824  17.001  0.00  0.00    +0.000 C 
BRANCH  15  16
ATOM     16  O   UNL     1       7.709   4.505  18.392  0.00  0.00    +0.000 OA
BRANCH  16  17
ATOM     17  C   UNL     1       7.670   5.694  19.196  0.00  0.00    +0.000 C 
BRANCH  17  18
ATOM     18  C   UNL     1       7.924   6.905  18.302  0.00  0.00    +0.000 C 
BRANCH  18  19
ATOM     19  O   UNL     1       8.709   7.871  18.993  0.00  0.00    +0.000 OA
ATOM     20  H   UNL     1       9.284   7.361  19.597  0.00  0.00    +0.000 HD
ENDBRANCH  18  19
ENDBRANCH  17  18
ENDBRANCH  16  17
ENDBRANCH  15  16
ENDBRANCH  14  15
ENDBRANCH   3  14
TORSDOF 9
ENDMDL
MODEL 4
REMARK VINA RESULT:      -5.6      3.685      7.237
REMARK  Name = 
REMARK  10 active torsions:
REMARK  status: ('A' for Active; 'I' for Inactive)
REMARK    1  A    between atoms: C_1  and  O_2
REMARK    2  A    between atoms: O_2  and  C_3
REMARK    3  A    between atoms: C_6  and  C_7
REMARK    4  A    between atoms: C_7  and  C_8
REMARK    5  A    between atoms: N_10  and  C_11
REMARK    6  A    between atoms: C_11  and  C_12
REMARK    7  A    between atoms: C_12  and  O_13
REMARK    8  A    between atoms: O_13  and  C_14
REMARK    9  A    between atoms: C_14  and  C_15
REMARK   10  A    between atoms: C_15  and  O_16
REMARK                            x       y       z     vdW  Elec       q    Type
REMARK                         _______ _______ _______ _____ _____    ______ ____
ROOT
ATOM      1  C   UNL     1       6.904   5.305  16.205  0.00  0.00    +0.000 C 
ATOM      2  O   UNL     1       7.903   4.607  16.382  0.00  0.00    +0.000 OA
ATOM      3  N   UNL     1       6.321   5.446  14.959  0.00  0.00    +0.000 N 
ATOM      4  H   UNL     1       5.718   6.238  14.785  0.00  0.00    +0.000 HD
ENDROOT
BRANCH   1   5
ATOM      5  C   UNL     1       6.238   6.085  17.331  0.00  0.00    +0.000 C 
BRANCH   5   9
ATOM      6  C   UNL     1       2.407   4.462  18.544  0.00  0.00    +0.000 A 
ATOM      7  C   UNL     1       2.540   5.819  18.252  0.00  0.00    +0.000 A 
ATOM      8  C   UNL     1       3.768   6.342  17.842  0.00  0.00    +0.000 A 
ATOM      9  C   UNL     1       4.900   5.520  17.749  0.00  0.00    +0.000 A 
ATOM     10  C   UNL     1       4.759   4.157  18.039  0.00  0.00    +0.000 A 
ATOM     11  C   UNL     1       3.523   3.631  18.435  0.00  0.00    +0.000 A 
BRANCH   6  13
ATOM     12  C   UNL     1       0.990   3.912  20.357  0.00  0.00    +0.000 C 
ATOM     13  O   UNL     1       1.162   4.075  18.955  0.00  0.00    +0.000 OA
ENDBRANCH   6  13
ENDBRANCH   5   9
ENDBRANCH   1   5
BRANCH   3  14
ATOM     14  C   UNL     1       6.968   4.831  13.811  0.00  0.00    +0.000 C 
BRANCH  14  15
ATOM     15  C   UNL     1       6.318   3.517  13.383  0.00  0.00    +0.000 C 
BRANCH  15  16
ATOM     16  O   UNL     1       5.936   3.591  12.001  0.00  0.00    +0.000 OA
BRANCH  16  17
ATOM     17  C   UNL     1       5.389   2.340  11.556  0.00  0.00    +0.000 C 
BRANCH  17  18
ATOM     18  C   UNL     1       6.535   1.394  11.210  0.00  0.00    +0.000 C 
BRANCH  18  19
ATOM     19  O   UNL     1       6.129   0.041  11.393  0.00  0.00    +0.000 OA
ATOM     20  H   UNL     1       5.170   0.025  11.204  0.00  0.00    +0.000 HD
ENDBRANCH  18  19
ENDBRANCH  17  18
ENDBRANCH  16  17
ENDBRANCH  15  16
ENDBRANCH  14  15
ENDBRANCH   3  14
TORSDOF 9
ENDMDL
MODEL 5
REMARK VINA RESULT:      -5.5      3.356      7.350
REMARK  Name = 
REMARK  10 active torsions:
REMARK  status: ('A' for Active; 'I' for Inactive)
REMARK    1  A    between atoms: C_1  and  O_2
REMARK    2  A    between atoms: O_2  and  C_3
REMARK    3  A    between atoms: C_6  and  C_7
REMARK    4  A    between atoms: C_7  and  C_8
REMARK    5  A    between atoms: N_10  and  C_11
REMARK    6  A    between atoms: C_11  and  C_12
REMARK    7  A    between atoms: C_12  and  O_13
REMARK    8  A    between atoms: O_13  and  C_14
REMARK    9  A    between atoms: C_14  and  C_15
REMARK   10  A    between atoms: C_15  and  O_16
REMARK                            x       y       z     vdW  Elec       q    Type
REMARK                         _______ _______ _______ _____ _____    ______ ____
ROOT
ATOM      1  C   UNL     1       6.666   6.783  17.418  0.00  0.00    +0.000 C 
ATOM      2  O   UNL     1       7.000   6.006  18.314  0.00  0.00    +0.000 OA
ATOM      3  N   UNL     1       7.328   7.975  17.199  0.00  0.00    +0.000 N 
ATOM      4  H   UNL     1       6.861   8.711  16.685  0.00  0.00    +0.000 HD
ENDROOT
BRANCH   1   5
ATOM      5  C   UNL     1       5.489   6.507  16.492  0.00  0.00    +0.000 C 
BRANCH   5   9
ATOM      6  C   UNL     1       2.256   4.351  18.409  0.00  0.00    +0.000 A 
ATOM      7  C   UNL     1       2.451   5.707  18.666  0.00  0.00    +0.000 A 
ATOM      8  C   UNL     1       3.480   6.409  18.035  0.00  0.00    +0.000 A 
ATOM      9  C   UNL     1       4.358   5.758  17.157  0.00  0.00    +0.000 A 
ATOM     10  C   UNL     1       4.153   4.396  16.900  0.00  0.00    +0.000 A 
ATOM     11  C   UNL     1       3.111   3.696  17.521  0.00  0.00    +0.000 A 
BRANCH   6  13
ATOM     12  C   UNL     1       0.891   2.443  18.719  0.00  0.00    +0.000 C 
ATOM     13  O   UNL     1       1.231   3.769  19.102  0.00  0.00    +0.000 OA
ENDBRANCH   6  13
ENDBRANCH   5   9
ENDBRANCH   1   5
BRANCH   3  14
ATOM     14  C   UNL     1       8.386   8.368  18.117  0.00  0.00    +0.000 C 
BRANCH  14  15
ATOM     15  C   UNL     1       8.510   9.880  18.285  0.00  0.00    +0.000 C 
BRANCH  15  16
ATOM     16  O   UNL     1       9.431  10.177  19.345  0.00  0.00    +0.000 OA
BRANCH  16  17
ATOM     17  C   UNL     1      10.042  11.461  19.145  0.00  0.00    +0.000 C 
BRANCH  17  18
ATOM     18  C   UNL     1      10.555  11.547  17.710  0.00  0.00    +0.000 C 
BRANCH  18  19
ATOM     19  O   UNL     1      11.977  11.473  17.689  0.00  0.00    +0.000 OA
ATOM     20  H   UNL     1      12.290  12.269  18.163  0.00  0.00    +0.000 HD
ENDBRANCH  18  19
ENDBRANCH  17  18
ENDBRANCH  16  17
ENDBRANCH  15  16
ENDBRANCH  14  15
ENDBRANCH   3  14
TORSDOF 9
ENDMDL
MODEL 6
REMARK VINA RESULT:      -5.5      3.476      7.105
REMARK  Name = 
REMARK  10 active torsions:
REMARK  status: ('A' for Active; 'I' for Inactive)
REMARK    1  A    between atoms: C_1  and  O_2
REMARK    2  A    between atoms: O_2  and  C_3
REMARK    3  A    between atoms: C_6  and  C_7
REMARK    4  A    between atoms: C_7  and  C_8
REMARK    5  A    between atoms: N_10  and  C_11
REMARK    6  A    between atoms: C_11  and  C_12
REMARK    7  A    between atoms: C_12  and  O_13
REMARK    8  A    between atoms: O_13  and  C_14
REMARK    9  A    between atoms: C_14  and  C_15
REMARK   10  A    between atoms: C_15  and  O_16
REMARK                            x       y       z     vdW  Elec       q    Type
REMARK                         _______ _______ _______ _____ _____    ______ ____
ROOT
ATOM      1  C   UNL     1       5.782   6.160  16.256  0.00  0.00    +0.000 C 
ATOM      2  O   UNL     1       5.142   6.844  15.457  0.00  0.00    +0.000 OA
ATOM      3  N   UNL     1       6.739   5.254  15.840  0.00  0.00    +0.000 N 
ATOM      4  H   UNL     1       7.017   4.510  16.467  0.00  0.00    +0.000 HD
ENDROOT
BRANCH   1   5
ATOM      5  C   UNL     1       5.566   6.241  17.761  0.00  0.00    +0.000 C 
BRANCH   5   9
ATOM      6  C   UNL     1       2.390   3.658  19.182  0.00  0.00    +0.000 A 
ATOM      7  C   UNL     1       3.703   3.463  19.608  0.00  0.00    +0.000 A 
ATOM      8  C   UNL     1       4.726   4.306  19.167  0.00  0.00    +0.000 A 
ATOM      9  C   UNL     1       4.459   5.342  18.262  0.00  0.00    +0.000 A 
ATOM     10  C   UNL     1       3.136   5.534  17.841  0.00  0.00    +0.000 A 
ATOM     11  C   UNL     1       2.109   4.698  18.296  0.00  0.00    +0.000 A 
BRANCH   6  13
ATOM     12  C   UNL     1       1.280   2.767  21.073  0.00  0.00    +0.000 C 
ATOM     13  O   UNL     1       1.483   2.756  19.665  0.00  0.00    +0.000 OA
ENDBRANCH   6  13
ENDBRANCH   5   9
ENDBRANCH   1   5
BRANCH   3  14
ATOM     14  C   UNL     1       6.920   5.031  14.415  0.00  0.00    +0.000 C 
BRANCH  14  15
ATOM     15  C   UNL     1       6.188   3.795  13.898  0.00  0.00    +0.000 C 
BRANCH  15  16
ATOM     16  O   UNL     1       6.405   3.655  12.486  0.00  0.00    +0.000 OA
BRANCH  16  17
ATOM     17  C   UNL     1       5.334   2.921  11.875  0.00  0.00    +0.000 C 
BRANCH  17  18
ATOM     18  C   UNL     1       5.862   1.568  11.409  0.00  0.00    +0.000 C 
BRANCH  18  19
ATOM     19  O   UNL     1       7.280   1.610  11.281  0.00  0.00    +0.000 OA
ATOM     20  H   UNL     1       7.460   2.219  10.537  0.00  0.00    +0.000 HD
ENDBRANCH  18  19
ENDBRANCH  17  18
ENDBRANCH  16  17
ENDBRANCH  15  16
ENDBRANCH  14  15
ENDBRANCH   3  14
TORSDOF 9
ENDMDL
MODEL 7
REMARK VINA RESULT:      -5.5      2.303      5.915
REMARK  Name = 
REMARK  10 active torsions:
REMARK  status: ('A' for Active; 'I' for Inactive)
REMARK    1  A    between atoms: C_1  and  O_2
REMARK    2  A    between atoms: O_2  and  C_3
REMARK    3  A    between atoms: C_6  and  C_7
REMARK    4  A    between atoms: C_7  and  C_8
REMARK    5  A    between atoms: N_10  and  C_11
REMARK    6  A    between atoms: C_11  and  C_12
REMARK    7  A    between atoms: C_12  and  O_13
REMARK    8  A    between atoms: O_13  and  C_14
REMARK    9  A    between atoms: C_14  and  C_15
REMARK   10  A    between atoms: C_15  and  O_16
REMARK                            x       y       z     vdW  Elec       q    Type
REMARK                         _______ _______ _______ _____ _____    ______ ____
ROOT
ATOM      1  C   UNL     1       4.458   6.527  16.780  0.00  0.00    +0.000 C 
ATOM      2  O   UNL     1       4.864   7.147  15.797  0.00  0.00    +0.000 OA
ATOM      3  N   UNL     1       4.997   5.310  17.151  0.00  0.00    +0.000 N 
ATOM      4  H   UNL     1       4.460   4.696  17.749  0.00  0.00    +0.000 HD
ENDROOT
BRANCH   1   5
ATOM      5  C   UNL     1       3.321   7.034  17.657  0.00  0.00    +0.000 C 
BRANCH   5   9
ATOM      6  C   UNL     1       1.382   3.903  19.941  0.00  0.00    +0.000 A 
ATOM      7  C   UNL     1       2.047   4.943  20.589  0.00  0.00    +0.000 A 
ATOM      8  C   UNL     1       2.656   5.964  19.857  0.00  0.00    +0.000 A 
ATOM      9  C   UNL     1       2.641   5.946  18.455  0.00  0.00    +0.000 A 
ATOM     10  C   UNL     1       1.968   4.900  17.810  0.00  0.00    +0.000 A 
ATOM     11  C   UNL     1       1.344   3.885  18.546  0.00  0.00    +0.000 A 
BRANCH   6  13
ATOM     12  C   UNL     1       1.664   2.531  21.849  0.00  0.00    +0.000 C 
ATOM     13  O   UNL     1       0.846   2.953  20.765  0.00  0.00    +0.000 OA
ENDBRANCH   6  13
ENDBRANCH   5   9
ENDBRANCH   1   5
BRANCH   3  14
ATOM     14  C   UNL     1       6.004   4.700  16.296  0.00  0.00    +0.000 C 
BRANCH  14  15
ATOM     15  C   UNL     1       7.427   4.872  16.821  0.00  0.00    +0.000 C 
BRANCH  15  16
ATOM     16  O   UNL     1       7.780   6.264  16.822  0.00  0.00    +0.000 OA
BRANCH  16  17
ATOM     17  C   UNL     1       7.758   6.795  18.155  0.00  0.00    +0.000 C 
BRANCH  17  18
ATOM     18  C   UNL     1       7.950   5.652  19.148  0.00  0.00    +0.000 C 
BRANCH  18  19
ATOM     19  O   UNL     1       6.742   5.412  19.863  0.00  0.00    +0.000 OA
ATOM     20  H   UNL     1       6.073   5.994  19.453  0.00  0.00    +0.000 HD
ENDBRANCH  18  19
ENDBRANCH  17  18
ENDBRANCH  16  17
ENDBRANCH  15  16
ENDBRANCH  14  15
ENDBRANCH   3  14
TORSDOF 9
ENDMDL
MODEL 8
REMARK VINA RESULT:      -5.5      2.371      3.761
REMARK  Name = 
REMARK  10 active torsions:
REMARK  status: ('A' for Active; 'I' for Inactive)
REMARK    1  A    between atoms: C_1  and  O_2
REMARK    2  A    between atoms: O_2  and  C_3
REMARK    3  A    between atoms: C_6  and  C_7
REMARK    4  A    between atoms: C_7  and  C_8
REMARK    5  A    between atoms: N_10  and  C_11
REMARK    6  A    between atoms: C_11  and  C_12
REMARK    7  A    between atoms: C_12  and  O_13
REMARK    8  A    between atoms: O_13  and  C_14
REMARK    9  A    between atoms: C_14  and  C_15
REMARK   10  A    between atoms: C_15  and  O_16
REMARK                            x       y       z     vdW  Elec       q    Type
REMARK                         _______ _______ _______ _____ _____    ______ ____
ROOT
ATOM      1  C   UNL     1       4.663   4.810  19.297  0.00  0.00    +0.000 C 
ATOM      2  O   UNL     1       5.143   3.684  19.429  0.00  0.00    +0.000 OA
ATOM      3  N   UNL     1       3.541   5.214  19.997  0.00  0.00    +0.000 N 
ATOM      4  H   UNL     1       3.003   5.999  19.653  0.00  0.00    +0.000 HD
ENDROOT
BRANCH   1   5
ATOM      5  C   UNL     1       5.248   5.845  18.345  0.00  0.00    +0.000 C 
BRANCH   5   9
ATOM      6  C   UNL     1       6.339   4.230  14.475  0.00  0.00    +0.000 A 
ATOM      7  C   UNL     1       7.279   4.910  15.247  0.00  0.00    +0.000 A 
ATOM      8  C   UNL     1       6.936   5.415  16.503  0.00  0.00    +0.000 A 
ATOM      9  C   UNL     1       5.632   5.278  16.998  0.00  0.00    +0.000 A 
ATOM     10  C   UNL     1       4.694   4.589  16.218  0.00  0.00    +0.000 A 
ATOM     11  C   UNL     1       5.043   4.069  14.966  0.00  0.00    +0.000 A 
BRANCH   6  13
ATOM     12  C   UNL     1       5.792   3.360  12.343  0.00  0.00    +0.000 C 
ATOM     13  O   UNL     1       6.788   3.802  13.256  0.00  0.00    +0.000 OA
ENDBRANCH   6  13
ENDBRANCH   5   9
ENDBRANCH   1   5
BRANCH   3  14
ATOM     14  C   UNL     1       2.853   4.245  20.835  0.00  0.00    +0.000 C 
BRANCH  14  15
ATOM     15  C   UNL     1       1.404   4.005  20.418  0.00  0.00    +0.000 C 
BRANCH  15  16
ATOM     16  O   UNL     1       1.257   2.669  19.916  0.00  0.00    +0.000 OA
BRANCH  16  17
ATOM     17  C   UNL     1       1.047   2.676  18.496  0.00  0.00    +0.000 C 
BRANCH  17  18
ATOM     18  C   UNL     1       2.337   2.249  17.802  0.00  0.00    +0.000 C 
BRANCH  18  19
ATOM     19  O   UNL     1       3.099   1.401  18.655  0.00  0.00    +0.000 OA
ATOM     20  H   UNL     1       3.816   1.041  18.097  0.00  0.00    +0.000 HD
ENDBRANCH  18  19
ENDBRANCH  17  18
ENDBRANCH  16  17
ENDBRANCH  15  16
ENDBRANCH  14  15
ENDBRANCH   3  14
TORSDOF 9
ENDMDL
MODEL 9
REMARK VINA RESULT:      -5.4      2.699      4.793
REMARK  Name = 
REMARK  10 active torsions:
REMARK  status: ('A' for Active; 'I' for Inactive)
REMARK    1  A    between atoms: C_1  and  O_2
REMARK    2  A    between atoms: O_2  and  C_3
REMARK    3  A    between atoms: C_6  and  C_7
REMARK    4  A    between atoms: C_7  and  C_8
REMARK    5  A    between atoms: N_10  and  C_11
REMARK    6  A    between atoms: C_11  and  C_12
REMARK    7  A    between atoms: C_12  and  O_13
REMARK    8  A    between atoms: O_13  and  C_14
REMARK    9  A    between atoms: C_14  and  C_15
REMARK   10  A    between atoms: C_15  and  O_16
REMARK                            x       y       z     vdW  Elec       q    Type
REMARK                         _______ _______ _______ _____ _____    ______ ____
ROOT
ATOM      1  C   UNL     1       2.821   4.905  17.775  0.00  0.00    +0.000 C 
ATOM      2  O   UNL     1       1.598   4.839  17.648  0.00  0.00    +0.000 OA
ATOM      3  N   UNL     1       3.622   3.779  17.739  0.00  0.00    +0.000 N 
ATOM      4  H   UNL     1       4.549   3.822  18.143  0.00  0.00    +0.000 HD
ENDROOT
BRANCH   1   5
ATOM      5  C   UNL     1       3.552   6.222  18.000  0.00  0.00    +0.000 C 
BRANCH   5   9
ATOM      6  C   UNL     1       0.984   9.387  19.471  0.00  0.00    +0.000 A 
ATOM      7  C   UNL     1       1.391   8.357  20.317  0.00  0.00    +0.000 A 
ATOM      8  C   UNL     1       2.234   7.346  19.851  0.00  0.00    +0.000 A 
ATOM      9  C   UNL     1       2.660   7.328  18.516  0.00  0.00    +0.000 A 
ATOM     10  C   UNL     1       2.250   8.368  17.672  0.00  0.00    +0.000 A 
ATOM     11  C   UNL     1       1.417   9.390  18.144  0.00  0.00    +0.000 A 
BRANCH   6  13
ATOM     12  C   UNL     1      -0.736  10.980  19.144  0.00  0.00    +0.000 C 
ATOM     13  O   UNL     1       0.142  10.305  20.036  0.00  0.00    +0.000 OA
ENDBRANCH   6  13
ENDBRANCH   5   9
ENDBRANCH   1   5
BRANCH   3  14
ATOM     14  C   UNL     1       2.990   2.473  17.649  0.00  0.00    +0.000 C 
BRANCH  14  15
ATOM     15  C   UNL     1       2.740   1.827  19.009  0.00  0.00    +0.000 C 
BRANCH  15  16
ATOM     16  O   UNL     1       3.413   2.574  20.034  0.00  0.00    +0.000 OA
BRANCH  16  17
ATOM     17  C   UNL     1       2.598   2.673  21.212  0.00  0.00    +0.000 C 
BRANCH  17  18
ATOM     18  C   UNL     1       1.859   4.008  21.192  0.00  0.00    +0.000 C 
BRANCH  18  19
ATOM     19  O   UNL     1       0.654   3.893  20.441  0.00  0.00    +0.000 OA
ATOM     20  H   UNL     1      -0.065   4.130  21.059  0.00  0.00    +0.000 HD
ENDBRANCH  18  19
ENDBRANCH  17  18
ENDBRANCH  16  17
ENDBRANCH  15  16
ENDBRANCH  14  15
ENDBRANCH   3  14
TORSDOF 9
ENDMDL
