MODEL 1
REMARK VINA RESULT:      -8.7      0.000      0.000
REMARK  Name = 
REMARK  8 active torsions:
REMARK  status: ('A' for Active; 'I' for Inactive)
REMARK    1  A    between atoms: C_1  and  C_2
REMARK    2  A    between atoms: C_2  and  C_3
REMARK    3  A    between atoms: C_3  and  C_4
REMARK    4  A    between atoms: C_4  and  C_5
REMARK    5  A    between atoms: C_5  and  C_6
REMARK    6  A    between atoms: C_6  and  C_7
REMARK    7  A    between atoms: C_7  and  C_8
REMARK    8  A    between atoms: C_8  and  C_9
REMARK                            x       y       z     vdW  Elec       q    Type
REMARK                         _______ _______ _______ _____ _____    ______ ____
ROOT
ATOM      1  C   UNL     1       2.757   6.474  19.789  0.00  0.00    +0.000 A 
ATOM      2  C   UNL     1       2.300   7.761  19.370  0.00  0.00    +0.000 A 
ATOM      3  N   UNL     1       2.722   8.241  18.162  0.00  0.00    +0.000 N 
ATOM      4  C   UNL     1       3.693   7.624  17.457  0.00  0.00    +0.000 A 
ATOM      5  C   UNL     1       4.278   6.440  17.890  0.00  0.00    +0.000 A 
ATOM      6  C   UNL     1       5.301   5.828  17.162  0.00  0.00    +0.000 A 
ATOM      7  C   UNL     1       5.894   4.657  17.572  0.00  0.00    +0.000 A 
ATOM      8  C   UNL     1       5.497   4.029  18.719  0.00  0.00    +0.000 A 
ATOM      9  C   UNL     1       4.467   4.614  19.463  0.00  0.00    +0.000 A 
ATOM     10  C   UNL     1       3.818   5.831  19.074  0.00  0.00    +0.000 A 
ATOM     11  O   UNL     1       6.863   4.229  16.727  0.00  0.00    +0.000 OA
ATOM     12  C   UNL     1       6.828   5.253  15.720  0.00  0.00    +0.000 C 
ATOM     13  O   UNL     1       5.843   6.282  15.991  0.00  0.00    +0.000 OA
ATOM     14  C   UNL     1       2.112   9.469  17.570  0.00  0.00    +0.000 C 
ATOM     15  C   UNL     1       0.612   9.477  17.840  0.00  0.00    +0.000 C 
ATOM     16  C   UNL     1       0.433   9.443  19.332  0.00  0.00    +0.000 A 
ATOM     17  C   UNL     1      -0.567  10.215  19.947  0.00  0.00    +0.000 A 
ATOM     18  C   UNL     1      -0.588  10.252  21.321  0.00  0.00    +0.000 A 
ATOM     19  C   UNL     1       0.341   9.574  22.066  0.00  0.00    +0.000 A 
ATOM     20  C   UNL     1       1.320   8.790  21.484  0.00  0.00    +0.000 A 
ATOM     21  C   UNL     1       1.345   8.649  20.085  0.00  0.00    +0.000 A 
ATOM     22  O   UNL     1       0.182   9.776  23.401  0.00  0.00    +0.000 OA
ATOM     23  C   UNL     1      -0.932  10.695  23.410  0.00  0.00    +0.000 C 
ATOM     24  O   UNL     1      -1.453  10.962  22.089  0.00  0.00    +0.000 OA
ENDROOT
BRANCH   1  25
ATOM     25  C   UNL     1       2.081   5.736  20.945  0.00  0.00    +0.000 C 
BRANCH  25  26
ATOM     26  C   UNL     1       1.106   4.621  20.540  0.00  0.00    +0.000 C 
BRANCH  26  27
ATOM     27  C   UNL     1       1.246   3.321  21.339  0.00  0.00    +0.000 C 
BRANCH  27  28
ATOM     28  C   UNL     1       1.934   2.264  20.467  0.00  0.00    +0.000 C 
BRANCH  28  29
ATOM     29  C   UNL     1       1.369   2.216  19.050  0.00  0.00    +0.000 C 
BRANCH  29  30
ATOM     30  C   UNL     1       2.493   2.118  18.013  0.00  0.00    +0.000 C 
BRANCH  30  32
ATOM     31  C   UNL     1       1.365   4.278  17.340  0.00  0.00    +0.000 C 
ATOM     32  C   UNL     1       2.318   3.171  16.920  0.00  0.00    +0.000 C 
ENDBRANCH  30  32
ENDBRANCH  29  30
ENDBRANCH  28  29
ENDBRANCH  27  28
ENDBRANCH  26  27
ENDBRANCH  25  26
ENDBRANCH   1  25
TORSDOF 7
ENDMDL
MODEL 2
REMARK VINA RESULT:      -7.0      0.807      1.547
REMARK  Name = 
REMARK  8 active torsions:
REMARK  status: ('A' for Active; 'I' for Inactive)
REMARK    1  A    between atoms: C_1  and  C_2
REMARK    2  A    between atoms: C_2  and  C_3
REMARK    3  A    between atoms: C_3  and  C_4
REMARK    4  A    between atoms: C_4  and  C_5
REMARK    5  A    between atoms: C_5  and  C_6
REMARK    6  A    between atoms: C_6  and  C_7
REMARK    7  A    between atoms: C_7  and  C_8
REMARK    8  A    between atoms: C_8  and  C_9
REMARK                            x       y       z     vdW  Elec       q    Type
REMARK                         _______ _______ _______ _____ _____    ______ ____
ROOT
ATOM      1  C   UNL     1       2.755   6.550  19.621  0.00  0.00    +0.000 A 
ATOM      2  C   UNL     1       2.298   7.851  19.250  0.00  0.00    +0.000 A 
ATOM      3  N   UNL     1       2.704   8.367  18.051  0.00  0.00    +0.000 N 
ATOM      4  C   UNL     1       3.661   7.769  17.312  0.00  0.00    +0.000 A 
ATOM      5  C   UNL     1       4.247   6.570  17.699  0.00  0.00    +0.000 A 
ATOM      6  C   UNL     1       5.257   5.977  16.936  0.00  0.00    +0.000 A 
ATOM      7  C   UNL     1       5.850   4.792  17.300  0.00  0.00    +0.000 A 
ATOM      8  C   UNL     1       5.468   4.128  18.432  0.00  0.00    +0.000 A 
ATOM      9  C   UNL     1       4.452   4.694  19.210  0.00  0.00    +0.000 A 
ATOM     10  C   UNL     1       3.803   5.925  18.870  0.00  0.00    +0.000 A 
ATOM     11  O   UNL     1       6.804   4.387  16.427  0.00  0.00    +0.000 OA
ATOM     12  C   UNL     1       6.758   5.442  15.453  0.00  0.00    +0.000 C 
ATOM     13  O   UNL     1       5.782   6.466  15.772  0.00  0.00    +0.000 OA
ATOM     14  C   UNL     1       2.090   9.616  17.507  0.00  0.00    +0.000 C 
ATOM     15  C   UNL     1       0.595   9.622  17.801  0.00  0.00    +0.000 C 
ATOM     16  C   UNL     1       0.438   9.541  19.293  0.00  0.00    +0.000 A 
ATOM     17  C   UNL     1      -0.548  10.298  19.948  0.00  0.00    +0.000 A 
ATOM     18  C   UNL     1      -0.548  10.291  21.323  0.00  0.00    +0.000 A 
ATOM     19  C   UNL     1       0.389   9.587  22.032  0.00  0.00    +0.000 A 
ATOM     20  C   UNL     1       1.355   8.817  21.410  0.00  0.00    +0.000 A 
ATOM     21  C   UNL     1       1.358   8.721  20.007  0.00  0.00    +0.000 A 
ATOM     22  O   UNL     1       0.251   9.747  23.374  0.00  0.00    +0.000 OA
ATOM     23  C   UNL     1      -0.859  10.670  23.429  0.00  0.00    +0.000 C 
ATOM     24  O   UNL     1      -1.399  10.980  22.126  0.00  0.00    +0.000 OA
ENDROOT
BRANCH   1  25
ATOM     25  C   UNL     1       2.094   5.779  20.763  0.00  0.00    +0.000 C 
BRANCH  25  26
ATOM     26  C   UNL     1       0.844   4.972  20.383  0.00  0.00    +0.000 C 
BRANCH  26  27
ATOM     27  C   UNL     1       1.041   3.987  19.225  0.00  0.00    +0.000 C 
BRANCH  27  28
ATOM     28  C   UNL     1       1.184   2.568  19.789  0.00  0.00    +0.000 C 
BRANCH  28  29
ATOM     29  C   UNL     1       1.392   2.557  21.301  0.00  0.00    +0.000 C 
BRANCH  29  30
ATOM     30  C   UNL     1       2.874   2.384  21.651  0.00  0.00    +0.000 C 
BRANCH  30  32
ATOM     31  C   UNL     1       5.068   1.411  20.855  0.00  0.00    +0.000 C 
ATOM     32  C   UNL     1       3.644   1.785  20.474  0.00  0.00    +0.000 C 
ENDBRANCH  30  32
ENDBRANCH  29  30
ENDBRANCH  28  29
ENDBRANCH  27  28
ENDBRANCH  26  27
ENDBRANCH  25  26
ENDBRANCH   1  25
TORSDOF 7
ENDMDL
MODEL 3
REMARK VINA RESULT:      -6.6      4.014      7.701
REMARK  Name = 
REMARK  8 active torsions:
REMARK  status: ('A' for Active; 'I' for Inactive)
REMARK    1  A    between atoms: C_1  and  C_2
REMARK    2  A    between atoms: C_2  and  C_3
REMARK    3  A    between atoms: C_3  and  C_4
REMARK    4  A    between atoms: C_4  and  C_5
REMARK    5  A    between atoms: C_5  and  C_6
REMARK    6  A    between atoms: C_6  and  C_7
REMARK    7  A    between atoms: C_7  and  C_8
REMARK    8  A    between atoms: C_8  and  C_9
REMARK                            x       y       z     vdW  Elec       q    Type
REMARK                         _______ _______ _______ _____ _____    ______ ____
ROOT
ATOM      1  C   UNL     1      -1.564  11.924  20.758  0.00  0.00    +0.000 A 
ATOM      2  C   UNL     1      -2.557  12.812  21.274  0.00  0.00    +0.000 A 
ATOM      3  N   UNL     1      -3.739  12.931  20.598  0.00  0.00    +0.000 N 
ATOM      4  C   UNL     1      -3.913  12.387  19.376  0.00  0.00    +0.000 A 
ATOM      5  C   UNL     1      -2.923  11.630  18.760  0.00  0.00    +0.000 A 
ATOM      6  C   UNL     1      -3.108  11.096  17.483  0.00  0.00    +0.000 A 
ATOM      7  C   UNL     1      -2.143  10.345  16.855  0.00  0.00    +0.000 A 
ATOM      8  C   UNL     1      -0.949  10.077  17.464  0.00  0.00    +0.000 A 
ATOM      9  C   UNL     1      -0.741  10.591  18.749  0.00  0.00    +0.000 A 
ATOM     10  C   UNL     1      -1.717  11.376  19.443  0.00  0.00    +0.000 A 
ATOM     11  O   UNL     1      -2.519   9.920  15.624  0.00  0.00    +0.000 OA
ATOM     12  C   UNL     1      -3.839  10.478  15.527  0.00  0.00    +0.000 C 
ATOM     13  O   UNL     1      -4.222  11.237  16.702  0.00  0.00    +0.000 OA
ATOM     14  C   UNL     1      -4.894  13.665  21.198  0.00  0.00    +0.000 C 
ATOM     15  C   UNL     1      -4.968  13.371  22.691  0.00  0.00    +0.000 C 
ATOM     16  C   UNL     1      -3.665  13.815  23.294  0.00  0.00    +0.000 A 
ATOM     17  C   UNL     1      -3.641  14.460  24.542  0.00  0.00    +0.000 A 
ATOM     18  C   UNL     1      -2.439  14.970  24.972  0.00  0.00    +0.000 A 
ATOM     19  C   UNL     1      -1.307  14.868  24.207  0.00  0.00    +0.000 A 
ATOM     20  C   UNL     1      -1.302  14.218  22.986  0.00  0.00    +0.000 A 
ATOM     21  C   UNL     1      -2.482  13.608  22.528  0.00  0.00    +0.000 A 
ATOM     22  O   UNL     1      -0.236  15.475  24.783  0.00  0.00    +0.000 OA
ATOM     23  C   UNL     1      -0.835  16.009  25.984  0.00  0.00    +0.000 C 
ATOM     24  O   UNL     1      -2.225  15.648  26.129  0.00  0.00    +0.000 OA
ENDROOT
BRANCH   1  25
ATOM     25  C   UNL     1      -0.376  11.487  21.614  0.00  0.00    +0.000 C 
BRANCH  25  26
ATOM     26  C   UNL     1      -0.689  10.452  22.704  0.00  0.00    +0.000 C 
BRANCH  26  27
ATOM     27  C   UNL     1       0.277   9.262  22.759  0.00  0.00    +0.000 C 
BRANCH  27  28
ATOM     28  C   UNL     1       0.084   8.397  21.508  0.00  0.00    +0.000 C 
BRANCH  28  29
ATOM     29  C   UNL     1       1.374   8.217  20.714  0.00  0.00    +0.000 C 
BRANCH  29  30
ATOM     30  C   UNL     1       1.846   6.760  20.753  0.00  0.00    +0.000 C 
BRANCH  30  32
ATOM     31  C   UNL     1       3.469   6.323  18.864  0.00  0.00    +0.000 C 
ATOM     32  C   UNL     1       2.029   6.210  19.340  0.00  0.00    +0.000 C 
ENDBRANCH  30  32
ENDBRANCH  29  30
ENDBRANCH  28  29
ENDBRANCH  27  28
ENDBRANCH  26  27
ENDBRANCH  25  26
ENDBRANCH   1  25
TORSDOF 7
ENDMDL
MODEL 4
REMARK VINA RESULT:      -6.5      3.291      6.878
REMARK  Name = 
REMARK  8 active torsions:
REMARK  status: ('A' for Active; 'I' for Inactive)
REMARK    1  A    between atoms: C_1  and  C_2
REMARK    2  A    between atoms: C_2  and  C_3
REMARK    3  A    between atoms: C_3  and  C_4
REMARK    4  A    between atoms: C_4  and  C_5
REMARK    5  A    between atoms: C_5  and  C_6
REMARK    6  A    between atoms: C_6  and  C_7
REMARK    7  A    between atoms: C_7  and  C_8
REMARK    8  A    between atoms: C_8  and  C_9
REMARK                            x       y       z     vdW  Elec       q    Type
REMARK                         _______ _______ _______ _____ _____    ______ ____
ROOT
ATOM      1  C   UNL     1       1.083   9.835  19.319  0.00  0.00    +0.000 A 
ATOM      2  C   UNL     1       0.257   9.768  20.483  0.00  0.00    +0.000 A 
ATOM      3  N   UNL     1       0.416   8.711  21.335  0.00  0.00    +0.000 N 
ATOM      4  C   UNL     1       1.185   7.651  21.011  0.00  0.00    +0.000 A 
ATOM      5  C   UNL     1       1.900   7.598  19.820  0.00  0.00    +0.000 A 
ATOM      6  C   UNL     1       2.670   6.481  19.486  0.00  0.00    +0.000 A 
ATOM      7  C   UNL     1       3.386   6.408  18.314  0.00  0.00    +0.000 A 
ATOM      8  C   UNL     1       3.382   7.440  17.419  0.00  0.00    +0.000 A 
ATOM      9  C   UNL     1       2.627   8.576  17.732  0.00  0.00    +0.000 A 
ATOM     10  C   UNL     1       1.869   8.698  18.941  0.00  0.00    +0.000 A 
ATOM     11  O   UNL     1       4.066   5.244  18.181  0.00  0.00    +0.000 OA
ATOM     12  C   UNL     1       3.714   4.572  19.401  0.00  0.00    +0.000 C 
ATOM     13  O   UNL     1       2.818   5.348  20.237  0.00  0.00    +0.000 OA
ATOM     14  C   UNL     1      -0.253   8.697  22.671  0.00  0.00    +0.000 C 
ATOM     15  C   UNL     1      -0.219  10.094  23.276  0.00  0.00    +0.000 C 
ATOM     16  C   UNL     1      -0.930  11.008  22.318  0.00  0.00    +0.000 A 
ATOM     17  C   UNL     1      -1.782  12.018  22.797  0.00  0.00    +0.000 A 
ATOM     18  C   UNL     1      -2.514  12.725  21.872  0.00  0.00    +0.000 A 
ATOM     19  C   UNL     1      -2.430  12.446  20.533  0.00  0.00    +0.000 A 
ATOM     20  C   UNL     1      -1.582  11.473  20.038  0.00  0.00    +0.000 A 
ATOM     21  C   UNL     1      -0.750  10.769  20.926  0.00  0.00    +0.000 A 
ATOM     22  O   UNL     1      -3.265  13.219  19.791  0.00  0.00    +0.000 OA
ATOM     23  C   UNL     1      -3.918  13.991  20.822  0.00  0.00    +0.000 C 
ATOM     24  O   UNL     1      -3.407  13.711  22.144  0.00  0.00    +0.000 OA
ENDROOT
BRANCH   1  25
ATOM     25  C   UNL     1       1.201  11.127  18.511  0.00  0.00    +0.000 C 
BRANCH  25  26
ATOM     26  C   UNL     1       1.913  12.289  19.217  0.00  0.00    +0.000 C 
BRANCH  26  27
ATOM     27  C   UNL     1       2.398  13.409  18.288  0.00  0.00    +0.000 C 
BRANCH  27  28
ATOM     28  C   UNL     1       1.759  14.734  18.720  0.00  0.00    +0.000 C 
BRANCH  28  29
ATOM     29  C   UNL     1       0.611  14.538  19.706  0.00  0.00    +0.000 C 
BRANCH  29  30
ATOM     30  C   UNL     1      -0.530  15.521  19.426  0.00  0.00    +0.000 C 
BRANCH  30  32
ATOM     31  C   UNL     1      -1.163  17.664  18.242  0.00  0.00    +0.000 C 
ATOM     32  C   UNL     1      -0.055  16.663  18.527  0.00  0.00    +0.000 C 
ENDBRANCH  30  32
ENDBRANCH  29  30
ENDBRANCH  28  29
ENDBRANCH  27  28
ENDBRANCH  26  27
ENDBRANCH  25  26
ENDBRANCH   1  25
TORSDOF 7
ENDMDL
MODEL 5
REMARK VINA RESULT:      -6.5      3.760      9.683
REMARK  Name = 
REMARK  8 active torsions:
REMARK  status: ('A' for Active; 'I' for Inactive)
REMARK    1  A    between atoms: C_1  and  C_2
REMARK    2  A    between atoms: C_2  and  C_3
REMARK    3  A    between atoms: C_3  and  C_4
REMARK    4  A    between atoms: C_4  and  C_5
REMARK    5  A    between atoms: C_5  and  C_6
REMARK    6  A    between atoms: C_6  and  C_7
REMARK    7  A    between atoms: C_7  and  C_8
REMARK    8  A    between atoms: C_8  and  C_9
REMARK                            x       y       z     vdW  Elec       q    Type
REMARK                         _______ _______ _______ _____ _____    ______ ____
ROOT
ATOM      1  C   UNL     1      -1.509  11.567  20.168  0.00  0.00    +0.000 A 
ATOM      2  C   UNL     1      -0.630  10.722  20.912  0.00  0.00    +0.000 A 
ATOM      3  N   UNL     1      -0.694  10.756  22.278  0.00  0.00    +0.000 N 
ATOM      4  C   UNL     1      -1.418  11.690  22.928  0.00  0.00    +0.000 A 
ATOM      5  C   UNL     1      -2.181  12.634  22.250  0.00  0.00    +0.000 A 
ATOM      6  C   UNL     1      -2.904  13.612  22.937  0.00  0.00    +0.000 A 
ATOM      7  C   UNL     1      -3.665  14.554  22.286  0.00  0.00    +0.000 A 
ATOM      8  C   UNL     1      -3.757  14.569  20.923  0.00  0.00    +0.000 A 
ATOM      9  C   UNL     1      -3.051  13.594  20.209  0.00  0.00    +0.000 A 
ATOM     10  C   UNL     1      -2.248  12.592  20.843  0.00  0.00    +0.000 A 
ATOM     11  O   UNL     1      -4.287  15.410  23.133  0.00  0.00    +0.000 OA
ATOM     12  C   UNL     1      -3.846  14.913  24.407  0.00  0.00    +0.000 C 
ATOM     13  O   UNL     1      -2.957  13.773  24.294  0.00  0.00    +0.000 OA
ATOM     14  C   UNL     1       0.033   9.746  23.104  0.00  0.00    +0.000 C 
ATOM     15  C   UNL     1      -0.050   8.380  22.434  0.00  0.00    +0.000 C 
ATOM     16  C   UNL     1       0.568   8.519  21.072  0.00  0.00    +0.000 A 
ATOM     17  C   UNL     1       1.384   7.499  20.554  0.00  0.00    +0.000 A 
ATOM     18  C   UNL     1       2.035   7.746  19.368  0.00  0.00    +0.000 A 
ATOM     19  C   UNL     1       1.908   8.947  18.721  0.00  0.00    +0.000 A 
ATOM     20  C   UNL     1       1.093   9.956  19.200  0.00  0.00    +0.000 A 
ATOM     21  C   UNL     1       0.340   9.735  20.367  0.00  0.00    +0.000 A 
ATOM     22  O   UNL     1       2.666   9.012  17.596  0.00  0.00    +0.000 OA
ATOM     23  C   UNL     1       3.322   7.725  17.629  0.00  0.00    +0.000 C 
ATOM     24  O   UNL     1       2.885   6.899  18.731  0.00  0.00    +0.000 OA
ENDROOT
BRANCH   1  25
ATOM     25  C   UNL     1      -1.732  11.348  18.672  0.00  0.00    +0.000 C 
BRANCH  25  26
ATOM     26  C   UNL     1      -2.528  10.090  18.297  0.00  0.00    +0.000 C 
BRANCH  26  27
ATOM     27  C   UNL     1      -3.441  10.245  17.075  0.00  0.00    +0.000 C 
BRANCH  27  28
ATOM     28  C   UNL     1      -4.323  11.485  17.259  0.00  0.00    +0.000 C 
BRANCH  28  29
ATOM     29  C   UNL     1      -5.685  11.152  17.862  0.00  0.00    +0.000 C 
BRANCH  29  30
ATOM     30  C   UNL     1      -6.039  12.123  18.992  0.00  0.00    +0.000 C 
BRANCH  30  32
ATOM     31  C   UNL     1      -7.089   9.962  19.782  0.00  0.00    +0.000 C 
ATOM     32  C   UNL     1      -6.708  11.387  20.152  0.00  0.00    +0.000 C 
ENDBRANCH  30  32
ENDBRANCH  29  30
ENDBRANCH  28  29
ENDBRANCH  27  28
ENDBRANCH  26  27
ENDBRANCH  25  26
ENDBRANCH   1  25
TORSDOF 7
ENDMDL
MODEL 6
REMARK VINA RESULT:      -6.4      3.026      6.856
REMARK  Name = 
REMARK  8 active torsions:
REMARK  status: ('A' for Active; 'I' for Inactive)
REMARK    1  A    between atoms: C_1  and  C_2
REMARK    2  A    between atoms: C_2  and  C_3
REMARK    3  A    between atoms: C_3  and  C_4
REMARK    4  A    between atoms: C_4  and  C_5
REMARK    5  A    between atoms: C_5  and  C_6
REMARK    6  A    between atoms: C_6  and  C_7
REMARK    7  A    between atoms: C_7  and  C_8
REMARK    8  A    between atoms: C_8  and  C_9
REMARK                            x       y       z     vdW  Elec       q    Type
REMARK                         _______ _______ _______ _____ _____    ______ ____
ROOT
ATOM      1  C   UNL     1       0.851  10.040  19.351  0.00  0.00    +0.000 A 
ATOM      2  C   UNL     1       0.051   9.958  20.532  0.00  0.00    +0.000 A 
ATOM      3  N   UNL     1       0.261   8.915  21.391  0.00  0.00    +0.000 N 
ATOM      4  C   UNL     1       1.058   7.877  21.061  0.00  0.00    +0.000 A 
ATOM      5  C   UNL     1       1.750   7.835  19.856  0.00  0.00    +0.000 A 
ATOM      6  C   UNL     1       2.549   6.741  19.517  0.00  0.00    +0.000 A 
ATOM      7  C   UNL     1       3.243   6.679  18.332  0.00  0.00    +0.000 A 
ATOM      8  C   UNL     1       3.188   7.701  17.427  0.00  0.00    +0.000 A 
ATOM      9  C   UNL     1       2.403   8.815  17.745  0.00  0.00    +0.000 A 
ATOM     10  C   UNL     1       1.665   8.925  18.968  0.00  0.00    +0.000 A 
ATOM     11  O   UNL     1       3.958   5.536  18.195  0.00  0.00    +0.000 OA
ATOM     12  C   UNL     1       3.653   4.865  19.429  0.00  0.00    +0.000 C 
ATOM     13  O   UNL     1       2.749   5.620  20.275  0.00  0.00    +0.000 OA
ATOM     14  C   UNL     1      -0.380   8.892  22.740  0.00  0.00    +0.000 C 
ATOM     15  C   UNL     1      -0.379  10.296  23.331  0.00  0.00    +0.000 C 
ATOM     16  C   UNL     1      -1.139  11.176  22.380  0.00  0.00    +0.000 A 
ATOM     17  C   UNL     1      -2.013  12.163  22.867  0.00  0.00    +0.000 A 
ATOM     18  C   UNL     1      -2.786  12.837  21.951  0.00  0.00    +0.000 A 
ATOM     19  C   UNL     1      -2.720  12.548  20.613  0.00  0.00    +0.000 A 
ATOM     20  C   UNL     1      -1.851  11.598  20.109  0.00  0.00    +0.000 A 
ATOM     21  C   UNL     1      -0.979  10.930  20.986  0.00  0.00    +0.000 A 
ATOM     22  O   UNL     1      -3.594  13.286  19.880  0.00  0.00    +0.000 OA
ATOM     23  C   UNL     1      -4.251  14.046  20.918  0.00  0.00    +0.000 C 
ATOM     24  O   UNL     1      -3.705  13.796  22.231  0.00  0.00    +0.000 OA
ENDROOT
BRANCH   1  25
ATOM     25  C   UNL     1       0.911  11.326  18.529  0.00  0.00    +0.000 C 
BRANCH  25  26
ATOM     26  C   UNL     1       2.133  12.220  18.782  0.00  0.00    +0.000 C 
BRANCH  26  27
ATOM     27  C   UNL     1       1.892  13.718  18.565  0.00  0.00    +0.000 C 
BRANCH  27  28
ATOM     28  C   UNL     1       0.409  14.030  18.798  0.00  0.00    +0.000 C 
BRANCH  28  29
ATOM     29  C   UNL     1       0.187  14.989  19.963  0.00  0.00    +0.000 C 
BRANCH  29  30
ATOM     30  C   UNL     1       0.559  14.332  21.296  0.00  0.00    +0.000 C 
BRANCH  30  32
ATOM     31  C   UNL     1      -1.031  16.075  22.205  0.00  0.00    +0.000 C 
ATOM     32  C   UNL     1       0.218  15.250  22.469  0.00  0.00    +0.000 C 
ENDBRANCH  30  32
ENDBRANCH  29  30
ENDBRANCH  28  29
ENDBRANCH  27  28
ENDBRANCH  26  27
ENDBRANCH  25  26
ENDBRANCH   1  25
TORSDOF 7
ENDMDL
MODEL 7
REMARK VINA RESULT:      -6.3      3.635      7.087
REMARK  Name = 
REMARK  8 active torsions:
REMARK  status: ('A' for Active; 'I' for Inactive)
REMARK    1  A    between atoms: C_1  and  C_2
REMARK    2  A    between atoms: C_2  and  C_3
REMARK    3  A    between atoms: C_3  and  C_4
REMARK    4  A    between atoms: C_4  and  C_5
REMARK    5  A    between atoms: C_5  and  C_6
REMARK    6  A    between atoms: C_6  and  C_7
REMARK    7  A    between atoms: C_7  and  C_8
REMARK    8  A    between atoms: C_8  and  C_9
REMARK                            x       y       z     vdW  Elec       q    Type
REMARK                         _______ _______ _______ _____ _____    ______ ____
ROOT
ATOM      1  C   UNL     1       0.939  10.026  19.399  0.00  0.00    +0.000 A 
ATOM      2  C   UNL     1       0.119   9.930  20.565  0.00  0.00    +0.000 A 
ATOM      3  N   UNL     1       0.292   8.860  21.397  0.00  0.00    +0.000 N 
ATOM      4  C   UNL     1       1.069   7.813  21.051  0.00  0.00    +0.000 A 
ATOM      5  C   UNL     1       1.779   7.788  19.856  0.00  0.00    +0.000 A 
ATOM      6  C   UNL     1       2.558   6.685  19.499  0.00  0.00    +0.000 A 
ATOM      7  C   UNL     1       3.269   6.639  18.323  0.00  0.00    +0.000 A 
ATOM      8  C   UNL     1       3.251   7.687  17.445  0.00  0.00    +0.000 A 
ATOM      9  C   UNL     1       2.487   8.809  17.782  0.00  0.00    +0.000 A 
ATOM     10  C   UNL     1       1.733   8.903  18.997  0.00  0.00    +0.000 A 
ATOM     11  O   UNL     1       3.959   5.484  18.165  0.00  0.00    +0.000 OA
ATOM     12  C   UNL     1       3.619   4.787  19.375  0.00  0.00    +0.000 C 
ATOM     13  O   UNL     1       2.720   5.540  20.228  0.00  0.00    +0.000 OA
ATOM     14  C   UNL     1      -0.370   8.816  22.736  0.00  0.00    +0.000 C 
ATOM     15  C   UNL     1      -0.346  10.203  23.366  0.00  0.00    +0.000 C 
ATOM     16  C   UNL     1      -1.071  11.126  22.428  0.00  0.00    +0.000 A 
ATOM     17  C   UNL     1      -1.930  12.119  22.929  0.00  0.00    +0.000 A 
ATOM     18  C   UNL     1      -2.672  12.835  22.020  0.00  0.00    +0.000 A 
ATOM     19  C   UNL     1      -2.593  12.582  20.676  0.00  0.00    +0.000 A 
ATOM     20  C   UNL     1      -1.738  11.626  20.159  0.00  0.00    +0.000 A 
ATOM     21  C   UNL     1      -0.895  10.914  21.031  0.00  0.00    +0.000 A 
ATOM     22  O   UNL     1      -3.438  13.360  19.951  0.00  0.00    +0.000 OA
ATOM     23  C   UNL     1      -4.094  14.107  20.999  0.00  0.00    +0.000 C 
ATOM     24  O   UNL     1      -3.574  13.808  22.313  0.00  0.00    +0.000 OA
ENDROOT
BRANCH   1  25
ATOM     25  C   UNL     1       1.041  11.333  18.613  0.00  0.00    +0.000 C 
BRANCH  25  26
ATOM     26  C   UNL     1       1.968  12.398  19.214  0.00  0.00    +0.000 C 
BRANCH  26  27
ATOM     27  C   UNL     1       2.140  13.660  18.360  0.00  0.00    +0.000 C 
BRANCH  27  28
ATOM     28  C   UNL     1       1.051  14.673  18.733  0.00  0.00    +0.000 C 
BRANCH  28  29
ATOM     29  C   UNL     1       1.610  16.074  18.964  0.00  0.00    +0.000 C 
BRANCH  29  30
ATOM     30  C   UNL     1       2.917  16.280  18.192  0.00  0.00    +0.000 C 
BRANCH  30  32
ATOM     31  C   UNL     1       1.478  18.016  17.050  0.00  0.00    +0.000 C 
ATOM     32  C   UNL     1       2.676  17.090  16.919  0.00  0.00    +0.000 C 
ENDBRANCH  30  32
ENDBRANCH  29  30
ENDBRANCH  28  29
ENDBRANCH  27  28
ENDBRANCH  26  27
ENDBRANCH  25  26
ENDBRANCH   1  25
TORSDOF 7
ENDMDL
MODEL 8
REMARK VINA RESULT:      -6.3      3.318      6.724
REMARK  Name = 
REMARK  8 active torsions:
REMARK  status: ('A' for Active; 'I' for Inactive)
REMARK    1  A    between atoms: C_1  and  C_2
REMARK    2  A    between atoms: C_2  and  C_3
REMARK    3  A    between atoms: C_3  and  C_4
REMARK    4  A    between atoms: C_4  and  C_5
REMARK    5  A    between atoms: C_5  and  C_6
REMARK    6  A    between atoms: C_6  and  C_7
REMARK    7  A    between atoms: C_7  and  C_8
REMARK    8  A    between atoms: C_8  and  C_9
REMARK                            x       y       z     vdW  Elec       q    Type
REMARK                         _______ _______ _______ _____ _____    ______ ____
ROOT
ATOM      1  C   UNL     1       0.967   9.955  19.347  0.00  0.00    +0.000 A 
ATOM      2  C   UNL     1       0.149   9.866  20.515  0.00  0.00    +0.000 A 
ATOM      3  N   UNL     1       0.330   8.805  21.358  0.00  0.00    +0.000 N 
ATOM      4  C   UNL     1       1.113   7.760  21.022  0.00  0.00    +0.000 A 
ATOM      5  C   UNL     1       1.822   7.727  19.827  0.00  0.00    +0.000 A 
ATOM      6  C   UNL     1       2.608   6.625  19.480  0.00  0.00    +0.000 A 
ATOM      7  C   UNL     1       3.317   6.572  18.303  0.00  0.00    +0.000 A 
ATOM      8  C   UNL     1       3.292   7.611  17.415  0.00  0.00    +0.000 A 
ATOM      9  C   UNL     1       2.521   8.732  17.742  0.00  0.00    +0.000 A 
ATOM     10  C   UNL     1       1.768   8.833  18.956  0.00  0.00    +0.000 A 
ATOM     11  O   UNL     1       4.015   5.420  18.157  0.00  0.00    +0.000 OA
ATOM     12  C   UNL     1       3.681   4.734  19.374  0.00  0.00    +0.000 C 
ATOM     13  O   UNL     1       2.778   5.489  20.221  0.00  0.00    +0.000 OA
ATOM     14  C   UNL     1      -0.331   8.771  22.698  0.00  0.00    +0.000 C 
ATOM     15  C   UNL     1      -0.315  10.164  23.314  0.00  0.00    +0.000 C 
ATOM     16  C   UNL     1      -1.046  11.073  22.367  0.00  0.00    +0.000 A 
ATOM     17  C   UNL     1      -1.911  12.066  22.859  0.00  0.00    +0.000 A 
ATOM     18  C   UNL     1      -2.659  12.768  21.944  0.00  0.00    +0.000 A 
ATOM     19  C   UNL     1      -2.579  12.501  20.602  0.00  0.00    +0.000 A 
ATOM     20  C   UNL     1      -1.719  11.545  20.094  0.00  0.00    +0.000 A 
ATOM     21  C   UNL     1      -0.871  10.848  20.972  0.00  0.00    +0.000 A 
ATOM     22  O   UNL     1      -3.430  13.266  19.870  0.00  0.00    +0.000 OA
ATOM     23  C   UNL     1      -4.089  14.020  20.911  0.00  0.00    +0.000 C 
ATOM     24  O   UNL     1      -3.566  13.738  22.228  0.00  0.00    +0.000 OA
ENDROOT
BRANCH   1  25
ATOM     25  C   UNL     1       1.060  11.254  18.548  0.00  0.00    +0.000 C 
BRANCH  25  26
ATOM     26  C   UNL     1       2.100  12.267  19.046  0.00  0.00    +0.000 C 
BRANCH  26  27
ATOM     27  C   UNL     1       1.566  13.304  20.040  0.00  0.00    +0.000 C 
BRANCH  27  28
ATOM     28  C   UNL     1       0.993  14.497  19.265  0.00  0.00    +0.000 C 
BRANCH  28  29
ATOM     29  C   UNL     1       2.078  15.348  18.614  0.00  0.00    +0.000 C 
BRANCH  29  30
ATOM     30  C   UNL     1       3.075  15.863  19.657  0.00  0.00    +0.000 C 
BRANCH  30  32
ATOM     31  C   UNL     1       4.621  14.924  17.891  0.00  0.00    +0.000 C 
ATOM     32  C   UNL     1       4.494  15.401  19.328  0.00  0.00    +0.000 C 
ENDBRANCH  30  32
ENDBRANCH  29  30
ENDBRANCH  28  29
ENDBRANCH  27  28
ENDBRANCH  26  27
ENDBRANCH  25  26
ENDBRANCH   1  25
TORSDOF 7
ENDMDL
MODEL 9
REMARK VINA RESULT:      -6.1      3.089      9.026
REMARK  Name = 
REMARK  8 active torsions:
REMARK  status: ('A' for Active; 'I' for Inactive)
REMARK    1  A    between atoms: C_1  and  C_2
REMARK    2  A    between atoms: C_2  and  C_3
REMARK    3  A    between atoms: C_3  and  C_4
REMARK    4  A    between atoms: C_4  and  C_5
REMARK    5  A    between atoms: C_5  and  C_6
REMARK    6  A    between atoms: C_6  and  C_7
REMARK    7  A    between atoms: C_7  and  C_8
REMARK    8  A    between atoms: C_8  and  C_9
REMARK                            x       y       z     vdW  Elec       q    Type
REMARK                         _______ _______ _______ _____ _____    ______ ____
ROOT
ATOM      1  C   UNL     1      -0.427  10.549  19.257  0.00  0.00    +0.000 A 
ATOM      2  C   UNL     1       0.491   9.734  19.988  0.00  0.00    +0.000 A 
ATOM      3  N   UNL     1       0.476   9.800  21.353  0.00  0.00    +0.000 N 
ATOM      4  C   UNL     1      -0.238  10.738  22.008  0.00  0.00    +0.000 A 
ATOM      5  C   UNL     1      -1.039  11.655  21.337  0.00  0.00    +0.000 A 
ATOM      6  C   UNL     1      -1.751  12.639  22.027  0.00  0.00    +0.000 A 
ATOM      7  C   UNL     1      -2.549  13.554  21.383  0.00  0.00    +0.000 A 
ATOM      8  C   UNL     1      -2.690  13.536  20.024  0.00  0.00    +0.000 A 
ATOM      9  C   UNL     1      -1.996  12.555  19.308  0.00  0.00    +0.000 A 
ATOM     10  C   UNL     1      -1.156  11.580  19.935  0.00  0.00    +0.000 A 
ATOM     11  O   UNL     1      -3.153  14.421  22.232  0.00  0.00    +0.000 OA
ATOM     12  C   UNL     1      -2.659  13.961  23.500  0.00  0.00    +0.000 C 
ATOM     13  O   UNL     1      -1.758  12.831  23.381  0.00  0.00    +0.000 OA
ATOM     14  C   UNL     1       1.246   8.819  22.176  0.00  0.00    +0.000 C 
ATOM     15  C   UNL     1       1.160   7.437  21.541  0.00  0.00    +0.000 C 
ATOM     16  C   UNL     1       1.727   7.552  20.154  0.00  0.00    +0.000 A 
ATOM     17  C   UNL     1       2.539   6.532  19.630  0.00  0.00    +0.000 A 
ATOM     18  C   UNL     1       3.143   6.760  18.416  0.00  0.00    +0.000 A 
ATOM     19  C   UNL     1       2.974   7.944  17.747  0.00  0.00    +0.000 A 
ATOM     20  C   UNL     1       2.162   8.952  18.232  0.00  0.00    +0.000 A 
ATOM     21  C   UNL     1       1.455   8.749  19.430  0.00  0.00    +0.000 A 
ATOM     22  O   UNL     1       3.691   7.994  16.594  0.00  0.00    +0.000 OA
ATOM     23  C   UNL     1       4.366   6.717  16.633  0.00  0.00    +0.000 C 
ATOM     24  O   UNL     1       3.982   5.911  17.768  0.00  0.00    +0.000 OA
ENDROOT
BRANCH   1  25
ATOM     25  C   UNL     1      -0.700  10.292  17.775  0.00  0.00    +0.000 C 
BRANCH  25  26
ATOM     26  C   UNL     1      -2.088   9.725  17.445  0.00  0.00    +0.000 C 
BRANCH  26  27
ATOM     27  C   UNL     1      -2.746  10.317  16.193  0.00  0.00    +0.000 C 
BRANCH  27  28
ATOM     28  C   UNL     1      -3.974  11.136  16.608  0.00  0.00    +0.000 C 
BRANCH  28  29
ATOM     29  C   UNL     1      -4.641  10.594  17.869  0.00  0.00    +0.000 C 
BRANCH  29  30
ATOM     30  C   UNL     1      -5.948  11.337  18.162  0.00  0.00    +0.000 C 
BRANCH  30  32
ATOM     31  C   UNL     1      -7.192  11.149  20.355  0.00  0.00    +0.000 C 
ATOM     32  C   UNL     1      -6.011  11.770  19.626  0.00  0.00    +0.000 C 
ENDBRANCH  30  32
ENDBRANCH  29  30
ENDBRANCH  28  29
ENDBRANCH  27  28
ENDBRANCH  26  27
ENDBRANCH  25  26
ENDBRANCH   1  25
TORSDOF 7
ENDMDL
