MODEL 1
REMARK VINA RESULT:      -7.7      0.000      0.000
REMARK  Name = 
REMARK  8 active torsions:
REMARK  status: ('A' for Active; 'I' for Inactive)
REMARK    1  A    between atoms: C_1  and  O_2
REMARK    2  A    between atoms: O_2  and  C_3
REMARK    3  A    between atoms: C_7  and  O_8
REMARK    4  A    between atoms: O_8  and  C_9
REMARK    5  A    between atoms: C_9  and  C_10
REMARK    6  A    between atoms: C_10  and  N_11
REMARK    7  A    between atoms: C_15  and  C_16
REMARK    8  A    between atoms: C_22  and  C_23
REMARK                            x       y       z     vdW  Elec       q    Type
REMARK                         _______ _______ _______ _____ _____    ______ ____
ROOT
ATOM      1  N   UNL     1       1.800   3.463  18.990  0.00  0.00    +0.000 N 
ATOM      2  C   UNL     1       1.352   2.156  19.145  0.00  0.00    +0.000 A 
ATOM      3  C   UNL     1       2.029   1.352  18.261  0.00  0.00    +0.000 A 
ATOM      4  C   UNL     1       2.943   2.173  17.580  0.00  0.00    +0.000 A 
ATOM      5  C   UNL     1       2.825   3.465  18.069  0.00  0.00    +0.000 A 
ENDROOT
BRANCH   5   6
ATOM      6  C   UNL     1       3.447   4.635  17.565  0.00  0.00    +0.000 C 
ATOM      7  C   UNL     1       4.639   5.141  17.928  0.00  0.00    +0.000 C 
ATOM      8  C   UNL     1       5.131   6.341  17.151  0.00  0.00    +0.000 C 
ATOM      9  N   UNL     1       4.523   6.969  16.192  0.00  0.00    +0.000 NA
ATOM     10  N   UNL     1       6.353   6.739  17.562  0.00  0.00    +0.000 N 
ATOM     11  O   UNL     1       6.878   7.919  17.077  0.00  0.00    +0.000 OA
ATOM     12  C   UNL     1       8.016   8.085  17.869  0.00  0.00    +0.000 C 
ATOM     13  C   UNL     1       8.662   9.412  17.677  0.00  0.00    +0.000 C 
ATOM     14  C   UNL     1       8.298   7.106  18.738  0.00  0.00    +0.000 C 
ATOM     15  C   UNL     1       7.114   6.253  18.564  0.00  0.00    +0.000 C 
ATOM     16  N   UNL     1       6.785   5.226  19.274  0.00  0.00    +0.000 NA
ATOM     17  C   UNL     1       5.523   4.658  19.089  0.00  0.00    +0.000 C 
ATOM     18  O   UNL     1       5.074   3.872  19.917  0.00  0.00    +0.000 OA
ATOM     19  H   UNL     1       3.590   6.621  15.983  0.00  0.00    +0.000 HD
ENDBRANCH   5   6
BRANCH   1  20
ATOM     20  C   UNL     1       1.117   4.529  19.712  0.00  0.00    +0.000 C 
BRANCH  20  21
ATOM     21  C   UNL     1       1.832   5.304  20.811  0.00  0.00    +0.000 C 
BRANCH  21  22
ATOM     22  O   UNL     1       2.614   6.357  20.234  0.00  0.00    +0.000 OA
BRANCH  22  27
ATOM     23  C   UNL     1       0.607   9.468  20.448  0.00  0.00    +0.000 A 
ATOM     24  C   UNL     1       0.800   9.937  19.147  0.00  0.00    +0.000 A 
ATOM     25  C   UNL     1       1.564   9.205  18.241  0.00  0.00    +0.000 A 
ATOM     26  C   UNL     1       2.136   7.994  18.637  0.00  0.00    +0.000 A 
ATOM     27  C   UNL     1       1.958   7.523  19.939  0.00  0.00    +0.000 A 
ATOM     28  C   UNL     1       1.170   8.249  20.833  0.00  0.00    +0.000 A 
BRANCH  23  30
ATOM     29  C   UNL     1       0.164  11.634  21.277  0.00  0.00    +0.000 C 
ATOM     30  O   UNL     1      -0.177  10.252  21.251  0.00  0.00    +0.000 OA
ENDBRANCH  23  30
ENDBRANCH  22  27
ENDBRANCH  21  22
ENDBRANCH  20  21
ENDBRANCH   1  20
TORSDOF 6
ENDMDL
MODEL 2
REMARK VINA RESULT:      -7.6      2.608      6.538
REMARK  Name = 
REMARK  8 active torsions:
REMARK  status: ('A' for Active; 'I' for Inactive)
REMARK    1  A    between atoms: C_1  and  O_2
REMARK    2  A    between atoms: O_2  and  C_3
REMARK    3  A    between atoms: C_7  and  O_8
REMARK    4  A    between atoms: O_8  and  C_9
REMARK    5  A    between atoms: C_9  and  C_10
REMARK    6  A    between atoms: C_10  and  N_11
REMARK    7  A    between atoms: C_15  and  C_16
REMARK    8  A    between atoms: C_22  and  C_23
REMARK                            x       y       z     vdW  Elec       q    Type
REMARK                         _______ _______ _______ _____ _____    ______ ____
ROOT
ATOM      1  N   UNL     1       3.598   4.017  19.100  0.00  0.00    +0.000 N 
ATOM      2  C   UNL     1       3.398   2.646  19.214  0.00  0.00    +0.000 A 
ATOM      3  C   UNL     1       2.203   2.325  18.618  0.00  0.00    +0.000 A 
ATOM      4  C   UNL     1       1.679   3.515  18.087  0.00  0.00    +0.000 A 
ATOM      5  C   UNL     1       2.569   4.546  18.351  0.00  0.00    +0.000 A 
ENDROOT
BRANCH   5   6
ATOM      6  C   UNL     1       2.371   5.931  18.127  0.00  0.00    +0.000 C 
ATOM      7  C   UNL     1       1.977   6.851  19.026  0.00  0.00    +0.000 C 
ATOM      8  C   UNL     1       1.956   8.289  18.559  0.00  0.00    +0.000 C 
ATOM      9  N   UNL     1       2.241   8.745  17.379  0.00  0.00    +0.000 NA
ATOM     10  N   UNL     1       1.593   9.132  19.549  0.00  0.00    +0.000 N 
ATOM     11  O   UNL     1       1.360  10.459  19.253  0.00  0.00    +0.000 OA
ATOM     12  C   UNL     1       0.820  10.939  20.449  0.00  0.00    +0.000 C 
ATOM     13  C   UNL     1       0.288  12.323  20.325  0.00  0.00    +0.000 C 
ATOM     14  C   UNL     1       0.762  10.081  21.475  0.00  0.00    +0.000 C 
ATOM     15  C   UNL     1       1.214   8.849  20.812  0.00  0.00    +0.000 C 
ATOM     16  N   UNL     1       1.211   7.656  21.304  0.00  0.00    +0.000 NA
ATOM     17  C   UNL     1       1.491   6.580  20.459  0.00  0.00    +0.000 C 
ATOM     18  O   UNL     1       1.232   5.435  20.814  0.00  0.00    +0.000 OA
ATOM     19  H   UNL     1       2.462   8.029  16.691  0.00  0.00    +0.000 HD
ENDBRANCH   5   6
BRANCH   1  20
ATOM     20  C   UNL     1       4.728   4.622  19.794  0.00  0.00    +0.000 C 
BRANCH  20  21
ATOM     21  C   UNL     1       5.828   5.331  19.017  0.00  0.00    +0.000 C 
BRANCH  21  22
ATOM     22  O   UNL     1       6.584   4.376  18.262  0.00  0.00    +0.000 OA
BRANCH  22  27
ATOM     23  C   UNL     1       7.260   5.069  14.682  0.00  0.00    +0.000 A 
ATOM     24  C   UNL     1       6.169   4.402  14.125  0.00  0.00    +0.000 A 
ATOM     25  C   UNL     1       5.238   3.767  14.945  0.00  0.00    +0.000 A 
ATOM     26  C   UNL     1       5.399   3.802  16.331  0.00  0.00    +0.000 A 
ATOM     27  C   UNL     1       6.494   4.458  16.897  0.00  0.00    +0.000 A 
ATOM     28  C   UNL     1       7.408   5.114  16.070  0.00  0.00    +0.000 A 
BRANCH  23  30
ATOM     29  C   UNL     1       7.902   5.330  12.424  0.00  0.00    +0.000 C 
ATOM     30  O   UNL     1       8.102   5.678  13.790  0.00  0.00    +0.000 OA
ENDBRANCH  23  30
ENDBRANCH  22  27
ENDBRANCH  21  22
ENDBRANCH  20  21
ENDBRANCH   1  20
TORSDOF 6
ENDMDL
MODEL 3
REMARK VINA RESULT:      -7.3      2.306      6.307
REMARK  Name = 
REMARK  8 active torsions:
REMARK  status: ('A' for Active; 'I' for Inactive)
REMARK    1  A    between atoms: C_1  and  O_2
REMARK    2  A    between atoms: O_2  and  C_3
REMARK    3  A    between atoms: C_7  and  O_8
REMARK    4  A    between atoms: O_8  and  C_9
REMARK    5  A    between atoms: C_9  and  C_10
REMARK    6  A    between atoms: C_10  and  N_11
REMARK    7  A    between atoms: C_15  and  C_16
REMARK    8  A    between atoms: C_22  and  C_23
REMARK                            x       y       z     vdW  Elec       q    Type
REMARK                         _______ _______ _______ _____ _____    ______ ____
ROOT
ATOM      1  N   UNL     1       4.715   4.472  17.413  0.00  0.00    +0.000 N 
ATOM      2  C   UNL     1       5.932   4.111  16.846  0.00  0.00    +0.000 A 
ATOM      3  C   UNL     1       6.944   4.671  17.586  0.00  0.00    +0.000 A 
ATOM      4  C   UNL     1       6.340   5.352  18.656  0.00  0.00    +0.000 A 
ATOM      5  C   UNL     1       4.966   5.185  18.566  0.00  0.00    +0.000 A 
ENDROOT
BRANCH   5   6
ATOM      6  C   UNL     1       3.970   5.821  19.347  0.00  0.00    +0.000 C 
ATOM      7  C   UNL     1       3.213   6.876  18.997  0.00  0.00    +0.000 C 
ATOM      8  C   UNL     1       2.135   7.291  19.972  0.00  0.00    +0.000 C 
ATOM      9  N   UNL     1       1.870   6.772  21.131  0.00  0.00    +0.000 NA
ATOM     10  N   UNL     1       1.406   8.326  19.504  0.00  0.00    +0.000 N 
ATOM     11  O   UNL     1       0.491   8.939  20.336  0.00  0.00    +0.000 OA
ATOM     12  C   UNL     1       0.109  10.054  19.586  0.00  0.00    +0.000 C 
ATOM     13  C   UNL     1      -0.737  11.004  20.358  0.00  0.00    +0.000 C 
ATOM     14  C   UNL     1       0.624  10.162  18.355  0.00  0.00    +0.000 C 
ATOM     15  C   UNL     1       1.557   9.026  18.361  0.00  0.00    +0.000 C 
ATOM     16  N   UNL     1       2.439   8.740  17.463  0.00  0.00    +0.000 NA
ATOM     17  C   UNL     1       3.373   7.737  17.733  0.00  0.00    +0.000 C 
ATOM     18  O   UNL     1       4.377   7.626  17.037  0.00  0.00    +0.000 OA
ATOM     19  H   UNL     1       2.501   6.025  21.414  0.00  0.00    +0.000 HD
ENDBRANCH   5   6
BRANCH   1  20
ATOM     20  C   UNL     1       3.484   4.126  16.713  0.00  0.00    +0.000 C 
BRANCH  20  21
ATOM     21  C   UNL     1       2.947   2.702  16.744  0.00  0.00    +0.000 C 
BRANCH  21  22
ATOM     22  O   UNL     1       1.809   2.628  17.610  0.00  0.00    +0.000 OA
BRANCH  22  27
ATOM     23  C   UNL     1       3.404   2.261  20.938  0.00  0.00    +0.000 A 
ATOM     24  C   UNL     1       2.396   2.823  21.722  0.00  0.00    +0.000 A 
ATOM     25  C   UNL     1       1.220   3.284  21.132  0.00  0.00    +0.000 A 
ATOM     26  C   UNL     1       1.051   3.177  19.751  0.00  0.00    +0.000 A 
ATOM     27  C   UNL     1       2.058   2.626  18.957  0.00  0.00    +0.000 A 
ATOM     28  C   UNL     1       3.222   2.144  19.558  0.00  0.00    +0.000 A 
BRANCH  23  30
ATOM     29  C   UNL     1       5.279   0.825  20.951  0.00  0.00    +0.000 C 
ATOM     30  O   UNL     1       4.508   1.821  21.617  0.00  0.00    +0.000 OA
ENDBRANCH  23  30
ENDBRANCH  22  27
ENDBRANCH  21  22
ENDBRANCH  20  21
ENDBRANCH   1  20
TORSDOF 6
ENDMDL
MODEL 4
REMARK VINA RESULT:      -7.3      2.378      6.533
REMARK  Name = 
REMARK  8 active torsions:
REMARK  status: ('A' for Active; 'I' for Inactive)
REMARK    1  A    between atoms: C_1  and  O_2
REMARK    2  A    between atoms: O_2  and  C_3
REMARK    3  A    between atoms: C_7  and  O_8
REMARK    4  A    between atoms: O_8  and  C_9
REMARK    5  A    between atoms: C_9  and  C_10
REMARK    6  A    between atoms: C_10  and  N_11
REMARK    7  A    between atoms: C_15  and  C_16
REMARK    8  A    between atoms: C_22  and  C_23
REMARK                            x       y       z     vdW  Elec       q    Type
REMARK                         _______ _______ _______ _____ _____    ______ ____
ROOT
ATOM      1  N   UNL     1       6.478   5.286  17.182  0.00  0.00    +0.000 N 
ATOM      2  C   UNL     1       6.994   4.620  16.076  0.00  0.00    +0.000 A 
ATOM      3  C   UNL     1       6.025   3.786  15.575  0.00  0.00    +0.000 A 
ATOM      4  C   UNL     1       4.877   3.975  16.361  0.00  0.00    +0.000 A 
ATOM      5  C   UNL     1       5.152   4.935  17.322  0.00  0.00    +0.000 A 
ENDROOT
BRANCH   5   6
ATOM      6  C   UNL     1       4.332   5.323  18.410  0.00  0.00    +0.000 C 
ATOM      7  C   UNL     1       3.540   6.408  18.484  0.00  0.00    +0.000 C 
ATOM      8  C   UNL     1       2.672   6.531  19.717  0.00  0.00    +0.000 C 
ATOM      9  N   UNL     1       2.624   5.731  20.736  0.00  0.00    +0.000 NA
ATOM     10  N   UNL     1       1.885   7.626  19.668  0.00  0.00    +0.000 N 
ATOM     11  O   UNL     1       1.154   7.982  20.783  0.00  0.00    +0.000 OA
ATOM     12  C   UNL     1       0.654   9.235  20.422  0.00  0.00    +0.000 C 
ATOM     13  C   UNL     1      -0.014   9.935  21.553  0.00  0.00    +0.000 C 
ATOM     14  C   UNL     1       0.929   9.664  19.184  0.00  0.00    +0.000 C 
ATOM     15  C   UNL     1       1.828   8.593  18.730  0.00  0.00    +0.000 C 
ATOM     16  N   UNL     1       2.519   8.569  17.640  0.00  0.00    +0.000 NA
ATOM     17  C   UNL     1       3.471   7.561  17.470  0.00  0.00    +0.000 C 
ATOM     18  O   UNL     1       4.323   7.660  16.593  0.00  0.00    +0.000 OA
ATOM     19  H   UNL     1       3.284   4.958  20.699  0.00  0.00    +0.000 HD
ENDBRANCH   5   6
BRANCH   1  20
ATOM     20  C   UNL     1       7.371   6.115  17.982  0.00  0.00    +0.000 C 
BRANCH  20  21
ATOM     21  C   UNL     1       7.487   7.610  17.719  0.00  0.00    +0.000 C 
BRANCH  21  22
ATOM     22  O   UNL     1       8.605   8.146  18.436  0.00  0.00    +0.000 OA
BRANCH  22  27
ATOM     23  C   UNL     1       8.207  11.772  17.766  0.00  0.00    +0.000 A 
ATOM     24  C   UNL     1       9.026  12.269  18.781  0.00  0.00    +0.000 A 
ATOM     25  C   UNL     1       9.696  11.395  19.636  0.00  0.00    +0.000 A 
ATOM     26  C   UNL     1       9.548  10.017  19.471  0.00  0.00    +0.000 A 
ATOM     27  C   UNL     1       8.722   9.511  18.466  0.00  0.00    +0.000 A 
ATOM     28  C   UNL     1       8.075  10.392  17.597  0.00  0.00    +0.000 A 
BRANCH  23  30
ATOM     29  C   UNL     1       7.375  13.975  17.586  0.00  0.00    +0.000 C 
ATOM     30  O   UNL     1       7.612  12.713  16.969  0.00  0.00    +0.000 OA
ENDBRANCH  23  30
ENDBRANCH  22  27
ENDBRANCH  21  22
ENDBRANCH  20  21
ENDBRANCH   1  20
TORSDOF 6
ENDMDL
MODEL 5
REMARK VINA RESULT:      -7.3      3.443      7.275
REMARK  Name = 
REMARK  8 active torsions:
REMARK  status: ('A' for Active; 'I' for Inactive)
REMARK    1  A    between atoms: C_1  and  O_2
REMARK    2  A    between atoms: O_2  and  C_3
REMARK    3  A    between atoms: C_7  and  O_8
REMARK    4  A    between atoms: O_8  and  C_9
REMARK    5  A    between atoms: C_9  and  C_10
REMARK    6  A    between atoms: C_10  and  N_11
REMARK    7  A    between atoms: C_15  and  C_16
REMARK    8  A    between atoms: C_22  and  C_23
REMARK                            x       y       z     vdW  Elec       q    Type
REMARK                         _______ _______ _______ _____ _____    ______ ____
ROOT
ATOM      1  N   UNL     1       4.328   4.232  17.650  0.00  0.00    +0.000 N 
ATOM      2  C   UNL     1       4.305   2.842  17.691  0.00  0.00    +0.000 A 
ATOM      3  C   UNL     1       2.997   2.425  17.728  0.00  0.00    +0.000 A 
ATOM      4  C   UNL     1       2.199   3.579  17.662  0.00  0.00    +0.000 A 
ATOM      5  C   UNL     1       3.029   4.686  17.569  0.00  0.00    +0.000 A 
ENDROOT
BRANCH   5   6
ATOM      6  C   UNL     1       2.653   6.050  17.630  0.00  0.00    +0.000 C 
ATOM      7  C   UNL     1       2.226   6.728  18.711  0.00  0.00    +0.000 C 
ATOM      8  C   UNL     1       2.000   8.213  18.534  0.00  0.00    +0.000 C 
ATOM      9  N   UNL     1       2.135   8.913  17.451  0.00  0.00    +0.000 NA
ATOM     10  N   UNL     1       1.620   8.802  19.687  0.00  0.00    +0.000 N 
ATOM     11  O   UNL     1       1.210  10.119  19.669  0.00  0.00    +0.000 OA
ATOM     12  C   UNL     1       0.714  10.294  20.963  0.00  0.00    +0.000 C 
ATOM     13  C   UNL     1       0.015  11.596  21.141  0.00  0.00    +0.000 C 
ATOM     14  C   UNL     1       0.838   9.260  21.804  0.00  0.00    +0.000 C 
ATOM     15  C   UNL     1       1.378   8.243  20.890  0.00  0.00    +0.000 C 
ATOM     16  N   UNL     1       1.555   6.988  21.141  0.00  0.00    +0.000 NA
ATOM     17  C   UNL     1       1.891   6.134  20.088  0.00  0.00    +0.000 C 
ATOM     18  O   UNL     1       1.797   4.919  20.228  0.00  0.00    +0.000 OA
ATOM     19  H   UNL     1       2.384   8.372  16.626  0.00  0.00    +0.000 HD
ENDBRANCH   5   6
BRANCH   1  20
ATOM     20  C   UNL     1       5.610   4.916  17.764  0.00  0.00    +0.000 C 
BRANCH  20  21
ATOM     21  C   UNL     1       6.773   4.541  16.856  0.00  0.00    +0.000 C 
BRANCH  21  22
ATOM     22  O   UNL     1       6.872   5.479  15.778  0.00  0.00    +0.000 OA
BRANCH  22  27
ATOM     23  C   UNL     1       6.088   3.551  12.708  0.00  0.00    +0.000 A 
ATOM     24  C   UNL     1       7.011   4.141  11.843  0.00  0.00    +0.000 A 
ATOM     25  C   UNL     1       7.872   5.135  12.304  0.00  0.00    +0.000 A 
ATOM     26  C   UNL     1       7.811   5.539  13.639  0.00  0.00    +0.000 A 
ATOM     27  C   UNL     1       6.884   4.963  14.509  0.00  0.00    +0.000 A 
ATOM     28  C   UNL     1       6.042   3.949  14.046  0.00  0.00    +0.000 A 
BRANCH  23  30
ATOM     29  C   UNL     1       5.993   1.612  11.363  0.00  0.00    +0.000 C 
ATOM     30  O   UNL     1       5.305   2.570  12.162  0.00  0.00    +0.000 OA
ENDBRANCH  23  30
ENDBRANCH  22  27
ENDBRANCH  21  22
ENDBRANCH  20  21
ENDBRANCH   1  20
TORSDOF 6
ENDMDL
MODEL 6
REMARK VINA RESULT:      -7.3      2.582      6.803
REMARK  Name = 
REMARK  8 active torsions:
REMARK  status: ('A' for Active; 'I' for Inactive)
REMARK    1  A    between atoms: C_1  and  O_2
REMARK    2  A    between atoms: O_2  and  C_3
REMARK    3  A    between atoms: C_7  and  O_8
REMARK    4  A    between atoms: O_8  and  C_9
REMARK    5  A    between atoms: C_9  and  C_10
REMARK    6  A    between atoms: C_10  and  N_11
REMARK    7  A    between atoms: C_15  and  C_16
REMARK    8  A    between atoms: C_22  and  C_23
REMARK                            x       y       z     vdW  Elec       q    Type
REMARK                         _______ _______ _______ _____ _____    ______ ____
ROOT
ATOM      1  N   UNL     1       6.678   6.045  16.671  0.00  0.00    +0.000 N 
ATOM      2  C   UNL     1       7.328   4.996  16.029  0.00  0.00    +0.000 A 
ATOM      3  C   UNL     1       6.461   4.425  15.131  0.00  0.00    +0.000 A 
ATOM      4  C   UNL     1       5.268   5.164  15.188  0.00  0.00    +0.000 A 
ATOM      5  C   UNL     1       5.428   6.189  16.108  0.00  0.00    +0.000 A 
ENDROOT
BRANCH   5   6
ATOM      6  C   UNL     1       4.433   7.078  16.586  0.00  0.00    +0.000 C 
ATOM      7  C   UNL     1       3.745   6.984  17.738  0.00  0.00    +0.000 C 
ATOM      8  C   UNL     1       2.819   8.132  18.071  0.00  0.00    +0.000 C 
ATOM      9  N   UNL     1       2.578   9.189  17.359  0.00  0.00    +0.000 NA
ATOM     10  N   UNL     1       2.216   7.960  19.266  0.00  0.00    +0.000 N 
ATOM     11  O   UNL     1       1.214   8.828  19.648  0.00  0.00    +0.000 OA
ATOM     12  C   UNL     1       0.715   8.216  20.800  0.00  0.00    +0.000 C 
ATOM     13  C   UNL     1      -0.529   8.862  21.301  0.00  0.00    +0.000 C 
ATOM     14  C   UNL     1       1.341   7.110  21.219  0.00  0.00    +0.000 C 
ATOM     15  C   UNL     1       2.296   6.918  20.118  0.00  0.00    +0.000 C 
ATOM     16  N   UNL     1       3.067   5.900  19.927  0.00  0.00    +0.000 NA
ATOM     17  C   UNL     1       3.763   5.801  18.720  0.00  0.00    +0.000 C 
ATOM     18  O   UNL     1       4.278   4.737  18.391  0.00  0.00    +0.000 OA
ATOM     19  H   UNL     1       3.047   9.208  16.457  0.00  0.00    +0.000 HD
ENDBRANCH   5   6
BRANCH   1  20
ATOM     20  C   UNL     1       7.344   6.709  17.784  0.00  0.00    +0.000 C 
BRANCH  20  21
ATOM     21  C   UNL     1       7.803   8.156  17.662  0.00  0.00    +0.000 C 
BRANCH  21  22
ATOM     22  O   UNL     1       8.697   8.475  18.735  0.00  0.00    +0.000 OA
BRANCH  22  27
ATOM     23  C   UNL     1       9.374  12.080  18.187  0.00  0.00    +0.000 A 
ATOM     24  C   UNL     1       9.516  12.475  19.518  0.00  0.00    +0.000 A 
ATOM     25  C   UNL     1       9.406  11.541  20.546  0.00  0.00    +0.000 A 
ATOM     26  C   UNL     1       9.156  10.202  20.241  0.00  0.00    +0.000 A 
ATOM     27  C   UNL     1       9.001   9.799  18.913  0.00  0.00    +0.000 A 
ATOM     28  C   UNL     1       9.138  10.736  17.887  0.00  0.00    +0.000 A 
BRANCH  23  30
ATOM     29  C   UNL     1      10.322  14.177  17.658  0.00  0.00    +0.000 C 
ATOM     30  O   UNL     1       9.521  13.070  17.254  0.00  0.00    +0.000 OA
ENDBRANCH  23  30
ENDBRANCH  22  27
ENDBRANCH  21  22
ENDBRANCH  20  21
ENDBRANCH   1  20
TORSDOF 6
ENDMDL
MODEL 7
REMARK VINA RESULT:      -7.3      2.649      6.544
REMARK  Name = 
REMARK  8 active torsions:
REMARK  status: ('A' for Active; 'I' for Inactive)
REMARK    1  A    between atoms: C_1  and  O_2
REMARK    2  A    between atoms: O_2  and  C_3
REMARK    3  A    between atoms: C_7  and  O_8
REMARK    4  A    between atoms: O_8  and  C_9
REMARK    5  A    between atoms: C_9  and  C_10
REMARK    6  A    between atoms: C_10  and  N_11
REMARK    7  A    between atoms: C_15  and  C_16
REMARK    8  A    between atoms: C_22  and  C_23
REMARK                            x       y       z     vdW  Elec       q    Type
REMARK                         _______ _______ _______ _____ _____    ______ ____
ROOT
ATOM      1  N   UNL     1       6.503   5.891  16.737  0.00  0.00    +0.000 N 
ATOM      2  C   UNL     1       7.089   4.773  16.153  0.00  0.00    +0.000 A 
ATOM      3  C   UNL     1       6.176   4.189  15.309  0.00  0.00    +0.000 A 
ATOM      4  C   UNL     1       5.022   4.989  15.339  0.00  0.00    +0.000 A 
ATOM      5  C   UNL     1       5.250   6.061  16.188  0.00  0.00    +0.000 A 
ENDROOT
BRANCH   5   6
ATOM      6  C   UNL     1       4.310   7.027  16.625  0.00  0.00    +0.000 C 
ATOM      7  C   UNL     1       3.611   7.019  17.774  0.00  0.00    +0.000 C 
ATOM      8  C   UNL     1       2.756   8.234  18.057  0.00  0.00    +0.000 C 
ATOM      9  N   UNL     1       2.585   9.277  17.305  0.00  0.00    +0.000 NA
ATOM     10  N   UNL     1       2.136   8.144  19.252  0.00  0.00    +0.000 N 
ATOM     11  O   UNL     1       1.188   9.086  19.594  0.00  0.00    +0.000 OA
ATOM     12  C   UNL     1       0.645   8.550  20.764  0.00  0.00    +0.000 C 
ATOM     13  C   UNL     1      -0.559   9.289  21.231  0.00  0.00    +0.000 C 
ATOM     14  C   UNL     1       1.199   7.423  21.228  0.00  0.00    +0.000 C 
ATOM     15  C   UNL     1       2.147   7.131  20.143  0.00  0.00    +0.000 C 
ATOM     16  N   UNL     1       2.854   6.061  19.996  0.00  0.00    +0.000 NA
ATOM     17  C   UNL     1       3.549   5.874  18.799  0.00  0.00    +0.000 C 
ATOM     18  O   UNL     1       3.998   4.769  18.513  0.00  0.00    +0.000 OA
ATOM     19  H   UNL     1       3.060   9.233  16.406  0.00  0.00    +0.000 HD
ENDBRANCH   5   6
BRANCH   1  20
ATOM     20  C   UNL     1       7.224   6.590  17.792  0.00  0.00    +0.000 C 
BRANCH  20  21
ATOM     21  C   UNL     1       7.620   8.051  17.626  0.00  0.00    +0.000 C 
BRANCH  21  22
ATOM     22  O   UNL     1       8.664   8.382  18.550  0.00  0.00    +0.000 OA
BRANCH  22  27
ATOM     23  C   UNL     1       9.557  11.614  20.134  0.00  0.00    +0.000 A 
ATOM     24  C   UNL     1       9.326  12.456  19.046  0.00  0.00    +0.000 A 
ATOM     25  C   UNL     1       8.865  11.936  17.838  0.00  0.00    +0.000 A 
ATOM     26  C   UNL     1       8.631  10.565  17.719  0.00  0.00    +0.000 A 
ATOM     27  C   UNL     1       8.869   9.713  18.799  0.00  0.00    +0.000 A 
ATOM     28  C   UNL     1       9.306  10.245  20.014  0.00  0.00    +0.000 A 
BRANCH  23  30
ATOM     29  C   UNL     1       8.988  12.937  22.006  0.00  0.00    +0.000 C 
ATOM     30  O   UNL     1       9.987  12.227  21.280  0.00  0.00    +0.000 OA
ENDBRANCH  23  30
ENDBRANCH  22  27
ENDBRANCH  21  22
ENDBRANCH  20  21
ENDBRANCH   1  20
TORSDOF 6
ENDMDL
MODEL 8
REMARK VINA RESULT:      -7.2      0.942      1.394
REMARK  Name = 
REMARK  8 active torsions:
REMARK  status: ('A' for Active; 'I' for Inactive)
REMARK    1  A    between atoms: C_1  and  O_2
REMARK    2  A    between atoms: O_2  and  C_3
REMARK    3  A    between atoms: C_7  and  O_8
REMARK    4  A    between atoms: O_8  and  C_9
REMARK    5  A    between atoms: C_9  and  C_10
REMARK    6  A    between atoms: C_10  and  N_11
REMARK    7  A    between atoms: C_15  and  C_16
REMARK    8  A    between atoms: C_22  and  C_23
REMARK                            x       y       z     vdW  Elec       q    Type
REMARK                         _______ _______ _______ _____ _____    ______ ____
ROOT
ATOM      1  N   UNL     1       2.119   3.524  19.683  0.00  0.00    +0.000 N 
ATOM      2  C   UNL     1       1.536   2.263  19.750  0.00  0.00    +0.000 A 
ATOM      3  C   UNL     1       1.640   1.665  18.518  0.00  0.00    +0.000 A 
ATOM      4  C   UNL     1       2.339   2.557  17.689  0.00  0.00    +0.000 A 
ATOM      5  C   UNL     1       2.670   3.682  18.429  0.00  0.00    +0.000 A 
ENDROOT
BRANCH   5   6
ATOM      6  C   UNL     1       3.243   4.887  17.954  0.00  0.00    +0.000 C 
ATOM      7  C   UNL     1       4.499   5.324  18.155  0.00  0.00    +0.000 C 
ATOM      8  C   UNL     1       4.899   6.593  17.437  0.00  0.00    +0.000 C 
ATOM      9  N   UNL     1       4.163   7.338  16.672  0.00  0.00    +0.000 NA
ATOM     10  N   UNL     1       6.189   6.916  17.669  0.00  0.00    +0.000 N 
ATOM     11  O   UNL     1       6.671   8.131  17.229  0.00  0.00    +0.000 OA
ATOM     12  C   UNL     1       7.933   8.183  17.824  0.00  0.00    +0.000 C 
ATOM     13  C   UNL     1       8.590   9.509  17.665  0.00  0.00    +0.000 C 
ATOM     14  C   UNL     1       8.319   7.107  18.521  0.00  0.00    +0.000 C 
ATOM     15  C   UNL     1       7.089   6.304  18.465  0.00  0.00    +0.000 C 
ATOM     16  N   UNL     1       6.846   5.211  19.108  0.00  0.00    +0.000 NA
ATOM     17  C   UNL     1       5.548   4.695  19.086  0.00  0.00    +0.000 C 
ATOM     18  O   UNL     1       5.216   3.831  19.891  0.00  0.00    +0.000 OA
ATOM     19  H   UNL     1       3.195   7.035  16.592  0.00  0.00    +0.000 HD
ENDBRANCH   5   6
BRANCH   1  20
ATOM     20  C   UNL     1       1.994   4.416  20.829  0.00  0.00    +0.000 C 
BRANCH  20  21
ATOM     21  C   UNL     1       1.199   5.710  20.722  0.00  0.00    +0.000 C 
BRANCH  21  22
ATOM     22  O   UNL     1       2.051   6.770  20.272  0.00  0.00    +0.000 OA
BRANCH  22  27
ATOM     23  C   UNL     1       0.869  10.225  19.623  0.00  0.00    +0.000 A 
ATOM     24  C   UNL     1       0.481  10.565  20.920  0.00  0.00    +0.000 A 
ATOM     25  C   UNL     1       0.640   9.656  21.964  0.00  0.00    +0.000 A 
ATOM     26  C   UNL     1       1.195   8.400  21.710  0.00  0.00    +0.000 A 
ATOM     27  C   UNL     1       1.577   8.047  20.414  0.00  0.00    +0.000 A 
ATOM     28  C   UNL     1       1.438   8.972  19.378  0.00  0.00    +0.000 A 
BRANCH  23  30
ATOM     29  C   UNL     1      -0.626  11.734  18.593  0.00  0.00    +0.000 C 
ATOM     30  O   UNL     1       0.690  11.196  18.675  0.00  0.00    +0.000 OA
ENDBRANCH  23  30
ENDBRANCH  22  27
ENDBRANCH  21  22
ENDBRANCH  20  21
ENDBRANCH   1  20
TORSDOF 6
ENDMDL
MODEL 9
REMARK VINA RESULT:      -7.2      2.537      6.800
REMARK  Name = 
REMARK  8 active torsions:
REMARK  status: ('A' for Active; 'I' for Inactive)
REMARK    1  A    between atoms: C_1  and  O_2
REMARK    2  A    between atoms: O_2  and  C_3
REMARK    3  A    between atoms: C_7  and  O_8
REMARK    4  A    between atoms: O_8  and  C_9
REMARK    5  A    between atoms: C_9  and  C_10
REMARK    6  A    between atoms: C_10  and  N_11
REMARK    7  A    between atoms: C_15  and  C_16
REMARK    8  A    between atoms: C_22  and  C_23
REMARK                            x       y       z     vdW  Elec       q    Type
REMARK                         _______ _______ _______ _____ _____    ______ ____
ROOT
ATOM      1  N   UNL     1       6.564   5.437  17.005  0.00  0.00    +0.000 N 
ATOM      2  C   UNL     1       7.083   4.935  15.816  0.00  0.00    +0.000 A 
ATOM      3  C   UNL     1       6.142   4.120  15.236  0.00  0.00    +0.000 A 
ATOM      4  C   UNL     1       5.006   4.157  16.060  0.00  0.00    +0.000 A 
ATOM      5  C   UNL     1       5.260   5.008  17.126  0.00  0.00    +0.000 A 
ENDROOT
BRANCH   5   6
ATOM      6  C   UNL     1       4.450   5.221  18.268  0.00  0.00    +0.000 C 
ATOM      7  C   UNL     1       3.620   6.256  18.494  0.00  0.00    +0.000 C 
ATOM      8  C   UNL     1       2.775   6.187  19.746  0.00  0.00    +0.000 C 
ATOM      9  N   UNL     1       2.777   5.262  20.655  0.00  0.00    +0.000 NA
ATOM     10  N   UNL     1       1.948   7.248  19.851  0.00  0.00    +0.000 N 
ATOM     11  O   UNL     1       1.228   7.430  21.015  0.00  0.00    +0.000 OA
ATOM     12  C   UNL     1       0.676   8.699  20.826  0.00  0.00    +0.000 C 
ATOM     13  C   UNL     1       0.006   9.222  22.048  0.00  0.00    +0.000 C 
ATOM     14  C   UNL     1       0.909   9.292  19.649  0.00  0.00    +0.000 C 
ATOM     15  C   UNL     1       1.836   8.324  19.047  0.00  0.00    +0.000 C 
ATOM     16  N   UNL     1       2.504   8.466  17.951  0.00  0.00    +0.000 NA
ATOM     17  C   UNL     1       3.488   7.526  17.637  0.00  0.00    +0.000 C 
ATOM     18  O   UNL     1       4.317   7.769  16.767  0.00  0.00    +0.000 OA
ATOM     19  H   UNL     1       3.465   4.526  20.508  0.00  0.00    +0.000 HD
ENDBRANCH   5   6
BRANCH   1  20
ATOM     20  C   UNL     1       7.437   6.207  17.882  0.00  0.00    +0.000 C 
BRANCH  20  21
ATOM     21  C   UNL     1       7.737   7.671  17.590  0.00  0.00    +0.000 C 
BRANCH  21  22
ATOM     22  O   UNL     1       8.587   8.207  18.611  0.00  0.00    +0.000 OA
BRANCH  22  27
ATOM     23  C   UNL     1       9.956  11.606  19.184  0.00  0.00    +0.000 A 
ATOM     24  C   UNL     1       9.166  12.311  18.275  0.00  0.00    +0.000 A 
ATOM     25  C   UNL     1       8.198  11.649  17.522  0.00  0.00    +0.000 A 
ATOM     26  C   UNL     1       8.017  10.274  17.682  0.00  0.00    +0.000 A 
ATOM     27  C   UNL     1       8.810   9.559  18.581  0.00  0.00    +0.000 A 
ATOM     28  C   UNL     1       9.759  10.233  19.351  0.00  0.00    +0.000 A 
BRANCH  23  30
ATOM     29  C   UNL     1      10.375  13.598  20.381  0.00  0.00    +0.000 C 
ATOM     30  O   UNL     1      10.861  12.353  19.889  0.00  0.00    +0.000 OA
ENDBRANCH  23  30
ENDBRANCH  22  27
ENDBRANCH  21  22
ENDBRANCH  20  21
ENDBRANCH   1  20
TORSDOF 6
ENDMDL
