MODEL 1
REMARK VINA RESULT:      -7.9      0.000      0.000
REMARK  Name = 
REMARK  3 active torsions:
REMARK  status: ('A' for Active; 'I' for Inactive)
REMARK    1  A    between atoms: O_1  and  C_2
REMARK    2  A    between atoms: C_4  and  N_5
REMARK    3  A    between atoms: N_5  and  C_6
REMARK                            x       y       z     vdW  Elec       q    Type
REMARK                         _______ _______ _______ _____ _____    ______ ____
ROOT
ATOM      1  C   UNL     1       5.362   6.020  16.276  0.00  0.00    +0.000 A 
ATOM      2  C   UNL     1       4.643   4.859  16.578  0.00  0.00    +0.000 A 
ATOM      3  C   UNL     1       4.943   4.113  17.720  0.00  0.00    +0.000 A 
ATOM      4  C   UNL     1       6.032   4.499  18.501  0.00  0.00    +0.000 A 
ATOM      5  C   UNL     1       6.723   5.689  18.223  0.00  0.00    +0.000 A 
ATOM      6  C   UNL     1       7.743   6.133  19.075  0.00  0.00    +0.000 A 
ATOM      7  C   UNL     1       8.389   7.331  18.805  0.00  0.00    +0.000 A 
ATOM      8  C   UNL     1       8.021   8.023  17.670  0.00  0.00    +0.000 A 
ATOM      9  N   UNL     1       7.045   7.628  16.837  0.00  0.00    +0.000 NA
ATOM     10  C   UNL     1       6.391   6.476  17.102  0.00  0.00    +0.000 A 
ENDROOT
BRANCH   1  11
ATOM     11  O   UNL     1       5.020   6.736  15.158  0.00  0.00    +0.000 OA
ATOM     12  H   UNL     1       5.820   6.947  14.656  0.00  0.00    +0.000 HD
ENDBRANCH   1  11
BRANCH   3  13
ATOM     13  N   UNL     1       4.213   2.944  18.046  0.00  0.00    +0.000 N 
ATOM     14  H   UNL     1       4.837   2.153  18.199  0.00  0.00    +0.000 HD
BRANCH  13  15
ATOM     15  C   UNL     1       3.185   2.885  19.021  0.00  0.00    +0.000 A 
ATOM     16  C   UNL     1       3.530   2.683  20.358  0.00  0.00    +0.000 A 
ATOM     17  C   UNL     1       2.542   2.677  21.345  0.00  0.00    +0.000 A 
ATOM     18  C   UNL     1       1.210   2.903  21.005  0.00  0.00    +0.000 A 
ATOM     19  C   UNL     1       0.860   3.143  19.681  0.00  0.00    +0.000 A 
ATOM     20  C   UNL     1       1.847   3.145  18.697  0.00  0.00    +0.000 A 
ENDBRANCH  13  15
ENDBRANCH   3  13
TORSDOF 3
ENDMDL
MODEL 2
REMARK VINA RESULT:      -7.7      0.100      1.140
REMARK  Name = 
REMARK  3 active torsions:
REMARK  status: ('A' for Active; 'I' for Inactive)
REMARK    1  A    between atoms: O_1  and  C_2
REMARK    2  A    between atoms: C_4  and  N_5
REMARK    3  A    between atoms: N_5  and  C_6
REMARK                            x       y       z     vdW  Elec       q    Type
REMARK                         _______ _______ _______ _____ _____    ______ ____
ROOT
ATOM      1  C   UNL     1       5.427   5.991  16.287  0.00  0.00    +0.000 A 
ATOM      2  C   UNL     1       4.701   4.843  16.620  0.00  0.00    +0.000 A 
ATOM      3  C   UNL     1       4.978   4.140  17.795  0.00  0.00    +0.000 A 
ATOM      4  C   UNL     1       6.054   4.555  18.580  0.00  0.00    +0.000 A 
ATOM      5  C   UNL     1       6.752   5.733  18.270  0.00  0.00    +0.000 A 
ATOM      6  C   UNL     1       7.758   6.208  19.122  0.00  0.00    +0.000 A 
ATOM      7  C   UNL     1       8.411   7.393  18.818  0.00  0.00    +0.000 A 
ATOM      8  C   UNL     1       8.065   8.041  17.651  0.00  0.00    +0.000 A 
ATOM      9  N   UNL     1       7.103   7.617  16.816  0.00  0.00    +0.000 NA
ATOM     10  C   UNL     1       6.442   6.476  17.113  0.00  0.00    +0.000 A 
ENDROOT
BRANCH   1  11
ATOM     11  O   UNL     1       5.107   6.663  15.136  0.00  0.00    +0.000 OA
ATOM     12  H   UNL     1       4.955   6.025  14.424  0.00  0.00    +0.000 HD
ENDBRANCH   1  11
BRANCH   3  13
ATOM     13  N   UNL     1       4.240   2.987  18.153  0.00  0.00    +0.000 N 
ATOM     14  H   UNL     1       4.859   2.198  18.336  0.00  0.00    +0.000 HD
BRANCH  13  15
ATOM     15  C   UNL     1       3.204   2.963  19.121  0.00  0.00    +0.000 A 
ATOM     16  C   UNL     1       1.882   3.124  18.703  0.00  0.00    +0.000 A 
ATOM     17  C   UNL     1       0.839   3.049  19.628  0.00  0.00    +0.000 A 
ATOM     18  C   UNL     1       1.108   2.783  20.968  0.00  0.00    +0.000 A 
ATOM     19  C   UNL     1       2.419   2.583  21.390  0.00  0.00    +0.000 A 
ATOM     20  C   UNL     1       3.459   2.662  20.466  0.00  0.00    +0.000 A 
ENDBRANCH  13  15
ENDBRANCH   3  13
TORSDOF 3
ENDMDL
MODEL 3
REMARK VINA RESULT:      -7.6      2.099      3.104
REMARK  Name = 
REMARK  3 active torsions:
REMARK  status: ('A' for Active; 'I' for Inactive)
REMARK    1  A    between atoms: O_1  and  C_2
REMARK    2  A    between atoms: C_4  and  N_5
REMARK    3  A    between atoms: N_5  and  C_6
REMARK                            x       y       z     vdW  Elec       q    Type
REMARK                         _______ _______ _______ _____ _____    ______ ____
ROOT
ATOM      1  C   UNL     1       7.049   5.879  16.981  0.00  0.00    +0.000 A 
ATOM      2  C   UNL     1       6.470   5.458  18.183  0.00  0.00    +0.000 A 
ATOM      3  C   UNL     1       5.614   4.356  18.214  0.00  0.00    +0.000 A 
ATOM      4  C   UNL     1       5.276   3.741  17.008  0.00  0.00    +0.000 A 
ATOM      5  C   UNL     1       5.892   4.134  15.810  0.00  0.00    +0.000 A 
ATOM      6  C   UNL     1       5.636   3.441  14.619  0.00  0.00    +0.000 A 
ATOM      7  C   UNL     1       6.283   3.821  13.452  0.00  0.00    +0.000 A 
ATOM      8  C   UNL     1       7.132   4.906  13.507  0.00  0.00    +0.000 A 
ATOM      9  N   UNL     1       7.403   5.587  14.631  0.00  0.00    +0.000 NA
ATOM     10  C   UNL     1       6.798   5.213  15.780  0.00  0.00    +0.000 A 
ENDROOT
BRANCH   1  11
ATOM     11  O   UNL     1       7.902   6.951  16.999  0.00  0.00    +0.000 OA
ATOM     12  H   UNL     1       7.949   7.337  16.113  0.00  0.00    +0.000 HD
ENDBRANCH   1  11
BRANCH   3  13
ATOM     13  N   UNL     1       5.035   3.909  19.426  0.00  0.00    +0.000 N 
ATOM     14  H   UNL     1       5.514   4.310  20.231  0.00  0.00    +0.000 HD
BRANCH  13  15
ATOM     15  C   UNL     1       3.643   3.910  19.700  0.00  0.00    +0.000 A 
ATOM     16  C   UNL     1       2.956   2.696  19.722  0.00  0.00    +0.000 A 
ATOM     17  C   UNL     1       1.597   2.664  20.044  0.00  0.00    +0.000 A 
ATOM     18  C   UNL     1       0.927   3.839  20.377  0.00  0.00    +0.000 A 
ATOM     19  C   UNL     1       1.612   5.050  20.396  0.00  0.00    +0.000 A 
ATOM     20  C   UNL     1       2.966   5.080  20.070  0.00  0.00    +0.000 A 
ENDBRANCH  13  15
ENDBRANCH   3  13
TORSDOF 3
ENDMDL
MODEL 4
REMARK VINA RESULT:      -7.6      3.302      6.151
REMARK  Name = 
REMARK  3 active torsions:
REMARK  status: ('A' for Active; 'I' for Inactive)
REMARK    1  A    between atoms: O_1  and  C_2
REMARK    2  A    between atoms: C_4  and  N_5
REMARK    3  A    between atoms: N_5  and  C_6
REMARK                            x       y       z     vdW  Elec       q    Type
REMARK                         _______ _______ _______ _____ _____    ______ ____
ROOT
ATOM      1  C   UNL     1       5.322   4.462  18.528  0.00  0.00    +0.000 A 
ATOM      2  C   UNL     1       6.266   4.495  17.495  0.00  0.00    +0.000 A 
ATOM      3  C   UNL     1       6.239   5.512  16.539  0.00  0.00    +0.000 A 
ATOM      4  C   UNL     1       5.198   6.440  16.582  0.00  0.00    +0.000 A 
ATOM      5  C   UNL     1       4.280   6.433  17.644  0.00  0.00    +0.000 A 
ATOM      6  C   UNL     1       3.304   7.434  17.746  0.00  0.00    +0.000 A 
ATOM      7  C   UNL     1       2.429   7.432  18.822  0.00  0.00    +0.000 A 
ATOM      8  C   UNL     1       2.533   6.406  19.738  0.00  0.00    +0.000 A 
ATOM      9  N   UNL     1       3.459   5.436  19.673  0.00  0.00    +0.000 NA
ATOM     10  C   UNL     1       4.333   5.440  18.642  0.00  0.00    +0.000 A 
ENDROOT
BRANCH   1  11
ATOM     11  O   UNL     1       5.399   3.459  19.459  0.00  0.00    +0.000 OA
ATOM     12  H   UNL     1       4.667   2.840  19.324  0.00  0.00    +0.000 HD
ENDBRANCH   1  11
BRANCH   3  13
ATOM     13  N   UNL     1       7.197   5.567  15.498  0.00  0.00    +0.000 N 
ATOM     14  H   UNL     1       8.134   5.375  15.852  0.00  0.00    +0.000 HD
BRANCH  13  15
ATOM     15  C   UNL     1       7.061   4.918  14.245  0.00  0.00    +0.000 A 
ATOM     16  C   UNL     1       6.062   3.956  14.085  0.00  0.00    +0.000 A 
ATOM     17  C   UNL     1       5.871   3.342  12.846  0.00  0.00    +0.000 A 
ATOM     18  C   UNL     1       6.654   3.708  11.753  0.00  0.00    +0.000 A 
ATOM     19  C   UNL     1       7.627   4.693  11.892  0.00  0.00    +0.000 A 
ATOM     20  C   UNL     1       7.819   5.301  13.130  0.00  0.00    +0.000 A 
ENDBRANCH  13  15
ENDBRANCH   3  13
TORSDOF 3
ENDMDL
MODEL 5
REMARK VINA RESULT:      -7.6      3.324      6.178
REMARK  Name = 
REMARK  3 active torsions:
REMARK  status: ('A' for Active; 'I' for Inactive)
REMARK    1  A    between atoms: O_1  and  C_2
REMARK    2  A    between atoms: C_4  and  N_5
REMARK    3  A    between atoms: N_5  and  C_6
REMARK                            x       y       z     vdW  Elec       q    Type
REMARK                         _______ _______ _______ _____ _____    ______ ____
ROOT
ATOM      1  C   UNL     1       5.336   4.426  18.518  0.00  0.00    +0.000 A 
ATOM      2  C   UNL     1       6.274   4.454  17.481  0.00  0.00    +0.000 A 
ATOM      3  C   UNL     1       6.241   5.463  16.517  0.00  0.00    +0.000 A 
ATOM      4  C   UNL     1       5.199   6.390  16.559  0.00  0.00    +0.000 A 
ATOM      5  C   UNL     1       4.286   6.389  17.625  0.00  0.00    +0.000 A 
ATOM      6  C   UNL     1       3.309   7.389  17.724  0.00  0.00    +0.000 A 
ATOM      7  C   UNL     1       2.440   7.394  18.805  0.00  0.00    +0.000 A 
ATOM      8  C   UNL     1       2.550   6.376  19.728  0.00  0.00    +0.000 A 
ATOM      9  N   UNL     1       3.477   5.407  19.666  0.00  0.00    +0.000 NA
ATOM     10  C   UNL     1       4.345   5.404  18.631  0.00  0.00    +0.000 A 
ENDROOT
BRANCH   1  11
ATOM     11  O   UNL     1       5.418   3.431  19.457  0.00  0.00    +0.000 OA
ATOM     12  H   UNL     1       4.629   3.453  20.017  0.00  0.00    +0.000 HD
ENDBRANCH   1  11
BRANCH   3  13
ATOM     13  N   UNL     1       7.194   5.512  15.471  0.00  0.00    +0.000 N 
ATOM     14  H   UNL     1       8.116   5.231  15.802  0.00  0.00    +0.000 HD
BRANCH  13  15
ATOM     15  C   UNL     1       7.002   4.952  14.183  0.00  0.00    +0.000 A 
ATOM     16  C   UNL     1       7.828   5.362  13.135  0.00  0.00    +0.000 A 
ATOM     17  C   UNL     1       7.697   4.785  11.870  0.00  0.00    +0.000 A 
ATOM     18  C   UNL     1       6.763   3.775  11.654  0.00  0.00    +0.000 A 
ATOM     19  C   UNL     1       5.960   3.332  12.700  0.00  0.00    +0.000 A 
ATOM     20  C   UNL     1       6.090   3.911  13.960  0.00  0.00    +0.000 A 
ENDBRANCH  13  15
ENDBRANCH   3  13
TORSDOF 3
ENDMDL
MODEL 6
REMARK VINA RESULT:      -7.5      2.067      3.062
REMARK  Name = 
REMARK  3 active torsions:
REMARK  status: ('A' for Active; 'I' for Inactive)
REMARK    1  A    between atoms: O_1  and  C_2
REMARK    2  A    between atoms: C_4  and  N_5
REMARK    3  A    between atoms: N_5  and  C_6
REMARK                            x       y       z     vdW  Elec       q    Type
REMARK                         _______ _______ _______ _____ _____    ______ ____
ROOT
ATOM      1  C   UNL     1       7.069   5.608  17.288  0.00  0.00    +0.000 A 
ATOM      2  C   UNL     1       6.445   5.061  18.414  0.00  0.00    +0.000 A 
ATOM      3  C   UNL     1       5.557   3.991  18.287  0.00  0.00    +0.000 A 
ATOM      4  C   UNL     1       5.236   3.540  17.006  0.00  0.00    +0.000 A 
ATOM      5  C   UNL     1       5.898   4.058  15.881  0.00  0.00    +0.000 A 
ATOM      6  C   UNL     1       5.656   3.525  14.608  0.00  0.00    +0.000 A 
ATOM      7  C   UNL     1       6.347   4.024  13.513  0.00  0.00    +0.000 A 
ATOM      8  C   UNL     1       7.225   5.067  13.723  0.00  0.00    +0.000 A 
ATOM      9  N   UNL     1       7.483   5.596  14.930  0.00  0.00    +0.000 NA
ATOM     10  C   UNL     1       6.835   5.103  16.008  0.00  0.00    +0.000 A 
ENDROOT
BRANCH   1  11
ATOM     11  O   UNL     1       7.952   6.642  17.460  0.00  0.00    +0.000 OA
ATOM     12  H   UNL     1       8.127   7.059  16.604  0.00  0.00    +0.000 HD
ENDBRANCH   1  11
BRANCH   3  13
ATOM     13  N   UNL     1       4.930   3.418  19.419  0.00  0.00    +0.000 N 
ATOM     14  H   UNL     1       5.483   3.573  20.262  0.00  0.00    +0.000 HD
BRANCH  13  15
ATOM     15  C   UNL     1       3.563   3.591  19.755  0.00  0.00    +0.000 A 
ATOM     16  C   UNL     1       3.103   4.866  20.087  0.00  0.00    +0.000 A 
ATOM     17  C   UNL     1       1.751   5.074  20.367  0.00  0.00    +0.000 A 
ATOM     18  C   UNL     1       0.847   4.017  20.287  0.00  0.00    +0.000 A 
ATOM     19  C   UNL     1       1.289   2.749  19.920  0.00  0.00    +0.000 A 
ATOM     20  C   UNL     1       2.639   2.543  19.644  0.00  0.00    +0.000 A 
ENDBRANCH  13  15
ENDBRANCH   3  13
TORSDOF 3
ENDMDL
MODEL 7
REMARK VINA RESULT:      -7.5      2.200      3.231
REMARK  Name = 
REMARK  3 active torsions:
REMARK  status: ('A' for Active; 'I' for Inactive)
REMARK    1  A    between atoms: O_1  and  C_2
REMARK    2  A    between atoms: C_4  and  N_5
REMARK    3  A    between atoms: N_5  and  C_6
REMARK                            x       y       z     vdW  Elec       q    Type
REMARK                         _______ _______ _______ _____ _____    ______ ____
ROOT
ATOM      1  C   UNL     1       6.955   5.024  18.303  0.00  0.00    +0.000 A 
ATOM      2  C   UNL     1       5.927   5.270  19.220  0.00  0.00    +0.000 A 
ATOM      3  C   UNL     1       4.624   5.510  18.781  0.00  0.00    +0.000 A 
ATOM      4  C   UNL     1       4.388   5.590  17.408  0.00  0.00    +0.000 A 
ATOM      5  C   UNL     1       5.409   5.298  16.490  0.00  0.00    +0.000 A 
ATOM      6  C   UNL     1       5.141   5.268  15.115  0.00  0.00    +0.000 A 
ATOM      7  C   UNL     1       6.154   4.941  14.226  0.00  0.00    +0.000 A 
ATOM      8  C   UNL     1       7.410   4.694  14.738  0.00  0.00    +0.000 A 
ATOM      9  N   UNL     1       7.699   4.708  16.049  0.00  0.00    +0.000 NA
ATOM     10  C   UNL     1       6.716   5.003  16.928  0.00  0.00    +0.000 A 
ENDROOT
BRANCH   1  11
ATOM     11  O   UNL     1       8.216   4.770  18.778  0.00  0.00    +0.000 OA
ATOM     12  H   UNL     1       8.177   4.041  19.414  0.00  0.00    +0.000 HD
ENDBRANCH   1  11
BRANCH   3  13
ATOM     13  N   UNL     1       3.571   5.745  19.698  0.00  0.00    +0.000 N 
ATOM     14  H   UNL     1       3.053   6.587  19.453  0.00  0.00    +0.000 HD
BRANCH  13  15
ATOM     15  C   UNL     1       2.637   4.763  20.117  0.00  0.00    +0.000 A 
ATOM     16  C   UNL     1       1.691   4.294  19.205  0.00  0.00    +0.000 A 
ATOM     17  C   UNL     1       0.797   3.288  19.576  0.00  0.00    +0.000 A 
ATOM     18  C   UNL     1       0.864   2.724  20.848  0.00  0.00    +0.000 A 
ATOM     19  C   UNL     1       1.828   3.158  21.753  0.00  0.00    +0.000 A 
ATOM     20  C   UNL     1       2.717   4.164  21.382  0.00  0.00    +0.000 A 
ENDBRANCH  13  15
ENDBRANCH   3  13
TORSDOF 3
ENDMDL
MODEL 8
REMARK VINA RESULT:      -7.5      5.669      6.585
REMARK  Name = 
REMARK  3 active torsions:
REMARK  status: ('A' for Active; 'I' for Inactive)
REMARK    1  A    between atoms: O_1  and  C_2
REMARK    2  A    between atoms: C_4  and  N_5
REMARK    3  A    between atoms: N_5  and  C_6
REMARK                            x       y       z     vdW  Elec       q    Type
REMARK                         _______ _______ _______ _____ _____    ______ ____
ROOT
ATOM      1  C   UNL     1       0.882   9.887  19.263  0.00  0.00    +0.000 A 
ATOM      2  C   UNL     1       1.639   8.722  19.103  0.00  0.00    +0.000 A 
ATOM      3  C   UNL     1       1.819   7.837  20.168  0.00  0.00    +0.000 A 
ATOM      4  C   UNL     1       1.305   8.186  21.418  0.00  0.00    +0.000 A 
ATOM      5  C   UNL     1       0.507   9.331  21.566  0.00  0.00    +0.000 A 
ATOM      6  C   UNL     1      -0.100   9.618  22.796  0.00  0.00    +0.000 A 
ATOM      7  C   UNL     1      -0.916  10.735  22.913  0.00  0.00    +0.000 A 
ATOM      8  C   UNL     1      -1.062  11.548  21.810  0.00  0.00    +0.000 A 
ATOM      9  N   UNL     1      -0.499  11.299  20.617  0.00  0.00    +0.000 NA
ATOM     10  C   UNL     1       0.278  10.201  20.482  0.00  0.00    +0.000 A 
ENDROOT
BRANCH   1  11
ATOM     11  O   UNL     1       0.711  10.716  18.185  0.00  0.00    +0.000 OA
ATOM     12  H   UNL     1       0.884  10.222  17.371  0.00  0.00    +0.000 HD
ENDBRANCH   1  11
BRANCH   3  13
ATOM     13  N   UNL     1       2.569   6.646  20.016  0.00  0.00    +0.000 N 
ATOM     14  H   UNL     1       3.183   6.495  20.815  0.00  0.00    +0.000 HD
BRANCH  13  15
ATOM     15  C   UNL     1       2.020   5.393  19.643  0.00  0.00    +0.000 A 
ATOM     16  C   UNL     1       2.128   4.974  18.316  0.00  0.00    +0.000 A 
ATOM     17  C   UNL     1       1.647   3.720  17.934  0.00  0.00    +0.000 A 
ATOM     18  C   UNL     1       1.083   2.867  18.881  0.00  0.00    +0.000 A 
ATOM     19  C   UNL     1       1.005   3.259  20.213  0.00  0.00    +0.000 A 
ATOM     20  C   UNL     1       1.483   4.512  20.591  0.00  0.00    +0.000 A 
ENDBRANCH  13  15
ENDBRANCH   3  13
TORSDOF 3
ENDMDL
MODEL 9
REMARK VINA RESULT:      -7.4      5.292      6.000
REMARK  Name = 
REMARK  3 active torsions:
REMARK  status: ('A' for Active; 'I' for Inactive)
REMARK    1  A    between atoms: O_1  and  C_2
REMARK    2  A    between atoms: C_4  and  N_5
REMARK    3  A    between atoms: N_5  and  C_6
REMARK                            x       y       z     vdW  Elec       q    Type
REMARK                         _______ _______ _______ _____ _____    ______ ____
ROOT
ATOM      1  C   UNL     1       1.499   9.472  18.579  0.00  0.00    +0.000 A 
ATOM      2  C   UNL     1       2.162   8.247  18.706  0.00  0.00    +0.000 A 
ATOM      3  C   UNL     1       2.096   7.521  19.897  0.00  0.00    +0.000 A 
ATOM      4  C   UNL     1       1.431   8.086  20.985  0.00  0.00    +0.000 A 
ATOM      5  C   UNL     1       0.728   9.293  20.843  0.00  0.00    +0.000 A 
ATOM      6  C   UNL     1      -0.031   9.801  21.906  0.00  0.00    +0.000 A 
ATOM      7  C   UNL     1      -0.750  10.975  21.735  0.00  0.00    +0.000 A 
ATOM      8  C   UNL     1      -0.652  11.623  20.521  0.00  0.00    +0.000 A 
ATOM      9  N   UNL     1       0.062  11.161  19.482  0.00  0.00    +0.000 NA
ATOM     10  C   UNL     1       0.747  10.005  19.628  0.00  0.00    +0.000 A 
ENDROOT
BRANCH   1  11
ATOM     11  O   UNL     1       1.571  10.141  17.385  0.00  0.00    +0.000 OA
ATOM     12  H   UNL     1       1.952  11.018  17.532  0.00  0.00    +0.000 HD
ENDBRANCH   1  11
BRANCH   3  13
ATOM     13  N   UNL     1       2.749   6.272  20.033  0.00  0.00    +0.000 N 
ATOM     14  H   UNL     1       3.188   6.186  20.949  0.00  0.00    +0.000 HD
BRANCH  13  15
ATOM     15  C   UNL     1       2.166   5.021  19.709  0.00  0.00    +0.000 A 
ATOM     16  C   UNL     1       1.574   4.265  20.722  0.00  0.00    +0.000 A 
ATOM     17  C   UNL     1       0.944   3.056  20.420  0.00  0.00    +0.000 A 
ATOM     18  C   UNL     1       0.875   2.612  19.101  0.00  0.00    +0.000 A 
ATOM     19  C   UNL     1       1.428   3.376  18.078  0.00  0.00    +0.000 A 
ATOM     20  C   UNL     1       2.060   4.580  18.383  0.00  0.00    +0.000 A 
ENDBRANCH  13  15
ENDBRANCH   3  13
TORSDOF 3
ENDMDL
