MODEL 1
REMARK VINA RESULT:      -8.1      0.000      0.000
REMARK  Name = 
REMARK  9 active torsions:
REMARK  status: ('A' for Active; 'I' for Inactive)
REMARK    1  A    between atoms: C_2  and  C_3
REMARK    2  A    between atoms: C_2  and  C_20
REMARK    3  A    between atoms: N_5  and  C_6
REMARK    4  A    between atoms: C_6  and  C_7
REMARK    5  A    between atoms: N_9  and  C_10
REMARK    6  A    between atoms: C_10  and  C_11
REMARK    7  A    between atoms: C_15  and  C_16
REMARK    8  A    between atoms: C_23  and  C_24
REMARK    9  A    between atoms: C_29  and  C_30
REMARK                            x       y       z     vdW  Elec       q    Type
REMARK                         _______ _______ _______ _____ _____    ______ ____
ROOT
ATOM      1  C   UNL     1       2.131   6.615  20.025  0.00  0.00    +0.000 C 
ATOM      2  O   UNL     1       1.547   5.720  20.632  0.00  0.00    +0.000 OA
ATOM      3  N   UNL     1       1.981   7.935  20.354  0.00  0.00    +0.000 N 
ATOM      4  H   UNL     1       2.296   8.657  19.724  0.00  0.00    +0.000 HD
ENDROOT
BRANCH   1   6
ATOM      5  C   UNL     1       2.263   5.856  17.810  0.00  0.00    +0.000 C 
ATOM      6  C   UNL     1       2.997   6.318  18.846  0.00  0.00    +0.000 C 
BRANCH   6   7
ATOM      7  C   UNL     1       4.532   6.484  18.884  0.00  0.00    +0.000 C 
ATOM      8  C   UNL     1       5.139   7.058  17.598  0.00  0.00    +0.000 C 
ATOM      9  C   UNL     1       4.969   6.274  16.296  0.00  0.00    +0.000 C 
ATOM     10  C   UNL     1       5.485   4.817  16.179  0.00  0.00    +0.000 C 
ATOM     11  C   UNL     1       5.191   4.360  14.739  0.00  0.00    +0.000 C 
ATOM     12  C   UNL     1       5.133   3.689  17.212  0.00  0.00    +0.000 C 
ATOM     13  C   UNL     1       4.029   2.676  16.852  0.00  0.00    +0.000 C 
ATOM     14  C   UNL     1       3.542   2.228  18.207  0.00  0.00    +0.000 C 
ATOM     15  O   UNL     1       2.787   1.288  18.402  0.00  0.00    +0.000 OA
ATOM     16  C   UNL     1       4.017   3.132  19.268  0.00  0.00    +0.000 C 
ATOM     17  C   UNL     1       3.503   3.121  20.660  0.00  0.00    +0.000 C 
ATOM     18  C   UNL     1       4.826   4.012  18.655  0.00  0.00    +0.000 C 
ATOM     19  C   UNL     1       5.333   5.241  19.310  0.00  0.00    +0.000 C 
ENDBRANCH   6   7
ENDBRANCH   1   6
BRANCH   3  20
ATOM     20  C   UNL     1       1.001   8.313  21.350  0.00  0.00    +0.000 C 
BRANCH  20  21
ATOM     21  C   UNL     1       0.473   9.670  21.056  0.00  0.00    +0.000 A 
ATOM     22  C   UNL     1       0.550  10.416  19.898  0.00  0.00    +0.000 A 
ATOM     23  N   UNL     1      -0.245  11.497  20.144  0.00  0.00    +0.000 N 
ATOM     24  N   UNL     1      -0.714  11.474  21.406  0.00  0.00    +0.000 NA
ATOM     25  N   UNL     1      -0.276  10.357  21.977  0.00  0.00    +0.000 NA
BRANCH  23  26
ATOM     26  C   UNL     1      -0.806  12.417  19.171  0.00  0.00    +0.000 C 
BRANCH  26  27
ATOM     27  C   UNL     1      -2.023  11.875  18.469  0.00  0.00    +0.000 A 
ATOM     28  C   UNL     1      -3.291  11.994  19.058  0.00  0.00    +0.000 A 
ATOM     29  C   UNL     1      -4.429  11.562  18.379  0.00  0.00    +0.000 A 
ATOM     30  C   UNL     1      -4.316  11.007  17.105  0.00  0.00    +0.000 A 
ATOM     31  C   UNL     1      -3.062  10.870  16.501  0.00  0.00    +0.000 A 
ATOM     32  C   UNL     1      -2.934  10.296  15.121  0.00  0.00    +0.000 C 
ATOM     33  C   UNL     1      -1.920  11.305  17.189  0.00  0.00    +0.000 A 
ENDBRANCH  26  27
ENDBRANCH  23  26
ENDBRANCH  20  21
ENDBRANCH   3  20
TORSDOF 6
ENDMDL
MODEL 2
REMARK VINA RESULT:      -7.9      3.050      9.938
REMARK  Name = 
REMARK  9 active torsions:
REMARK  status: ('A' for Active; 'I' for Inactive)
REMARK    1  A    between atoms: C_2  and  C_3
REMARK    2  A    between atoms: C_2  and  C_20
REMARK    3  A    between atoms: N_5  and  C_6
REMARK    4  A    between atoms: C_6  and  C_7
REMARK    5  A    between atoms: N_9  and  C_10
REMARK    6  A    between atoms: C_10  and  C_11
REMARK    7  A    between atoms: C_15  and  C_16
REMARK    8  A    between atoms: C_23  and  C_24
REMARK    9  A    between atoms: C_29  and  C_30
REMARK                            x       y       z     vdW  Elec       q    Type
REMARK                         _______ _______ _______ _____ _____    ______ ____
ROOT
ATOM      1  C   UNL     1       0.107  10.210  18.731  0.00  0.00    +0.000 C 
ATOM      2  O   UNL     1      -0.581   9.950  17.746  0.00  0.00    +0.000 OA
ATOM      3  N   UNL     1       1.414   9.818  18.831  0.00  0.00    +0.000 N 
ATOM      4  H   UNL     1       1.892   9.856  19.717  0.00  0.00    +0.000 HD
ENDROOT
BRANCH   1   6
ATOM      5  C   UNL     1      -1.688  11.422  19.630  0.00  0.00    +0.000 C 
ATOM      6  C   UNL     1      -0.465  10.922  19.912  0.00  0.00    +0.000 C 
BRANCH   6   7
ATOM      7  C   UNL     1       0.310  11.081  21.238  0.00  0.00    +0.000 C 
ATOM      8  C   UNL     1      -0.561  10.985  22.496  0.00  0.00    +0.000 C 
ATOM      9  C   UNL     1      -1.677  12.012  22.694  0.00  0.00    +0.000 C 
ATOM     10  C   UNL     1      -1.356  13.527  22.736  0.00  0.00    +0.000 C 
ATOM     11  C   UNL     1      -2.690  14.253  22.990  0.00  0.00    +0.000 C 
ATOM     12  C   UNL     1      -0.514  14.264  21.635  0.00  0.00    +0.000 C 
ATOM     13  C   UNL     1      -1.256  15.077  20.557  0.00  0.00    +0.000 C 
ATOM     14  C   UNL     1      -0.281  15.063  19.408  0.00  0.00    +0.000 C 
ATOM     15  O   UNL     1      -0.380  15.743  18.398  0.00  0.00    +0.000 OA
ATOM     16  C   UNL     1       0.765  14.047  19.611  0.00  0.00    +0.000 C 
ATOM     17  C   UNL     1       1.710  13.604  18.555  0.00  0.00    +0.000 C 
ATOM     18  C   UNL     1       0.539  13.537  20.833  0.00  0.00    +0.000 C 
ATOM     19  C   UNL     1       1.214  12.321  21.344  0.00  0.00    +0.000 C 
ENDBRANCH   6   7
ENDBRANCH   1   6
BRANCH   3  20
ATOM     20  C   UNL     1       1.975   8.949  17.818  0.00  0.00    +0.000 C 
BRANCH  20  21
ATOM     21  C   UNL     1       2.250   7.607  18.393  0.00  0.00    +0.000 A 
ATOM     22  C   UNL     1       2.671   6.449  17.772  0.00  0.00    +0.000 A 
ATOM     23  N   UNL     1       2.918   5.589  18.802  0.00  0.00    +0.000 N 
ATOM     24  N   UNL     1       2.585   6.143  19.984  0.00  0.00    +0.000 NA
ATOM     25  N   UNL     1       2.170   7.382  19.744  0.00  0.00    +0.000 NA
BRANCH  23  26
ATOM     26  C   UNL     1       3.702   4.368  18.761  0.00  0.00    +0.000 C 
BRANCH  26  27
ATOM     27  C   UNL     1       4.954   4.490  17.931  0.00  0.00    +0.000 A 
ATOM     28  C   UNL     1       6.173   4.828  18.535  0.00  0.00    +0.000 A 
ATOM     29  C   UNL     1       7.347   4.868  17.785  0.00  0.00    +0.000 A 
ATOM     30  C   UNL     1       7.319   4.570  16.423  0.00  0.00    +0.000 A 
ATOM     31  C   UNL     1       6.113   4.237  15.797  0.00  0.00    +0.000 A 
ATOM     32  C   UNL     1       6.078   3.891  14.337  0.00  0.00    +0.000 C 
ATOM     33  C   UNL     1       4.935   4.200  16.556  0.00  0.00    +0.000 A 
ENDBRANCH  26  27
ENDBRANCH  23  26
ENDBRANCH  20  21
ENDBRANCH   3  20
TORSDOF 6
ENDMDL
MODEL 3
REMARK VINA RESULT:      -7.9      4.492     10.645
REMARK  Name = 
REMARK  9 active torsions:
REMARK  status: ('A' for Active; 'I' for Inactive)
REMARK    1  A    between atoms: C_2  and  C_3
REMARK    2  A    between atoms: C_2  and  C_20
REMARK    3  A    between atoms: N_5  and  C_6
REMARK    4  A    between atoms: C_6  and  C_7
REMARK    5  A    between atoms: N_9  and  C_10
REMARK    6  A    between atoms: C_10  and  C_11
REMARK    7  A    between atoms: C_15  and  C_16
REMARK    8  A    between atoms: C_23  and  C_24
REMARK    9  A    between atoms: C_29  and  C_30
REMARK                            x       y       z     vdW  Elec       q    Type
REMARK                         _______ _______ _______ _____ _____    ______ ____
ROOT
ATOM      1  C   UNL     1      -5.058  12.698  20.723  0.00  0.00    +0.000 C 
ATOM      2  O   UNL     1      -5.837  11.760  20.881  0.00  0.00    +0.000 OA
ATOM      3  N   UNL     1      -4.288  12.823  19.599  0.00  0.00    +0.000 N 
ATOM      4  H   UNL     1      -3.515  13.471  19.579  0.00  0.00    +0.000 HD
ENDROOT
BRANCH   1   6
ATOM      5  C   UNL     1      -4.217  14.813  21.291  0.00  0.00    +0.000 C 
ATOM      6  C   UNL     1      -4.858  13.730  21.784  0.00  0.00    +0.000 C 
BRANCH   6   7
ATOM      7  C   UNL     1      -5.299  13.508  23.246  0.00  0.00    +0.000 C 
ATOM      8  C   UNL     1      -5.931  14.737  23.911  0.00  0.00    +0.000 C 
ATOM      9  C   UNL     1      -5.088  16.005  24.056  0.00  0.00    +0.000 C 
ATOM     10  C   UNL     1      -3.745  15.975  24.829  0.00  0.00    +0.000 C 
ATOM     11  C   UNL     1      -3.197  17.413  24.815  0.00  0.00    +0.000 C 
ATOM     12  C   UNL     1      -2.606  14.933  24.544  0.00  0.00    +0.000 C 
ATOM     13  C   UNL     1      -1.400  15.373  23.692  0.00  0.00    +0.000 C 
ATOM     14  C   UNL     1      -0.915  14.068  23.114  0.00  0.00    +0.000 C 
ATOM     15  O   UNL     1       0.139  13.917  22.515  0.00  0.00    +0.000 OA
ATOM     16  C   UNL     1      -1.923  13.007  23.277  0.00  0.00    +0.000 C 
ATOM     17  C   UNL     1      -1.864  11.692  22.592  0.00  0.00    +0.000 C 
ATOM     18  C   UNL     1      -2.914  13.561  23.995  0.00  0.00    +0.000 C 
ATOM     19  C   UNL     1      -4.235  12.917  24.188  0.00  0.00    +0.000 C 
ENDBRANCH   6   7
ENDBRANCH   1   6
BRANCH   3  20
ATOM     20  C   UNL     1      -4.276  11.755  18.623  0.00  0.00    +0.000 C 
BRANCH  20  21
ATOM     21  C   UNL     1      -2.876  11.373  18.303  0.00  0.00    +0.000 A 
ATOM     22  C   UNL     1      -1.694  12.020  18.600  0.00  0.00    +0.000 A 
ATOM     23  N   UNL     1      -0.726  11.139  18.215  0.00  0.00    +0.000 N 
ATOM     24  N   UNL     1      -1.267  10.052  17.632  0.00  0.00    +0.000 NA
ATOM     25  N   UNL     1      -2.587  10.187  17.677  0.00  0.00    +0.000 NA
BRANCH  23  26
ATOM     26  C   UNL     1       0.672  11.141  18.607  0.00  0.00    +0.000 C 
BRANCH  26  27
ATOM     27  C   UNL     1       1.118   9.846  19.235  0.00  0.00    +0.000 A 
ATOM     28  C   UNL     1       0.765   9.543  20.558  0.00  0.00    +0.000 A 
ATOM     29  C   UNL     1       1.111   8.314  21.118  0.00  0.00    +0.000 A 
ATOM     30  C   UNL     1       1.812   7.374  20.365  0.00  0.00    +0.000 A 
ATOM     31  C   UNL     1       2.182   7.657  19.046  0.00  0.00    +0.000 A 
ATOM     32  C   UNL     1       2.917   6.640  18.222  0.00  0.00    +0.000 C 
ATOM     33  C   UNL     1       1.833   8.895  18.488  0.00  0.00    +0.000 A 
ENDBRANCH  26  27
ENDBRANCH  23  26
ENDBRANCH  20  21
ENDBRANCH   3  20
TORSDOF 6
ENDMDL
MODEL 4
REMARK VINA RESULT:      -7.9      0.742      1.570
REMARK  Name = 
REMARK  9 active torsions:
REMARK  status: ('A' for Active; 'I' for Inactive)
REMARK    1  A    between atoms: C_2  and  C_3
REMARK    2  A    between atoms: C_2  and  C_20
REMARK    3  A    between atoms: N_5  and  C_6
REMARK    4  A    between atoms: C_6  and  C_7
REMARK    5  A    between atoms: N_9  and  C_10
REMARK    6  A    between atoms: C_10  and  C_11
REMARK    7  A    between atoms: C_15  and  C_16
REMARK    8  A    between atoms: C_23  and  C_24
REMARK    9  A    between atoms: C_29  and  C_30
REMARK                            x       y       z     vdW  Elec       q    Type
REMARK                         _______ _______ _______ _____ _____    ______ ____
ROOT
ATOM      1  C   UNL     1       2.185   6.534  20.042  0.00  0.00    +0.000 C 
ATOM      2  O   UNL     1       1.591   5.638  20.640  0.00  0.00    +0.000 OA
ATOM      3  N   UNL     1       2.056   7.851  20.389  0.00  0.00    +0.000 N 
ATOM      4  H   UNL     1       2.379   8.576  19.767  0.00  0.00    +0.000 HD
ENDROOT
BRANCH   1   6
ATOM      5  C   UNL     1       2.300   5.765  17.830  0.00  0.00    +0.000 C 
ATOM      6  C   UNL     1       3.041   6.239  18.855  0.00  0.00    +0.000 C 
BRANCH   6   7
ATOM      7  C   UNL     1       4.574   6.420  18.875  0.00  0.00    +0.000 C 
ATOM      8  C   UNL     1       5.159   7.012  17.587  0.00  0.00    +0.000 C 
ATOM      9  C   UNL     1       4.980   6.239  16.279  0.00  0.00    +0.000 C 
ATOM     10  C   UNL     1       5.509   4.789  16.142  0.00  0.00    +0.000 C 
ATOM     11  C   UNL     1       5.201   4.343  14.701  0.00  0.00    +0.000 C 
ATOM     12  C   UNL     1       5.182   3.647  17.169  0.00  0.00    +0.000 C 
ATOM     13  C   UNL     1       4.083   2.627  16.813  0.00  0.00    +0.000 C 
ATOM     14  C   UNL     1       3.619   2.161  18.169  0.00  0.00    +0.000 C 
ATOM     15  O   UNL     1       2.875   1.211  18.365  0.00  0.00    +0.000 OA
ATOM     16  C   UNL     1       4.098   3.059  19.233  0.00  0.00    +0.000 C 
ATOM     17  C   UNL     1       3.602   3.030  20.631  0.00  0.00    +0.000 C 
ATOM     18  C   UNL     1       4.890   3.953  18.618  0.00  0.00    +0.000 C 
ATOM     19  C   UNL     1       5.393   5.181  19.278  0.00  0.00    +0.000 C 
ENDBRANCH   6   7
ENDBRANCH   1   6
BRANCH   3  20
ATOM     20  C   UNL     1       1.087   8.230  21.395  0.00  0.00    +0.000 C 
BRANCH  20  21
ATOM     21  C   UNL     1       0.777   9.678  21.283  0.00  0.00    +0.000 A 
ATOM     22  C   UNL     1       0.706  10.483  20.164  0.00  0.00    +0.000 A 
ATOM     23  N   UNL     1       0.224  11.668  20.636  0.00  0.00    +0.000 N 
ATOM     24  N   UNL     1       0.088  11.636  21.976  0.00  0.00    +0.000 NA
ATOM     25  N   UNL     1       0.428  10.419  22.384  0.00  0.00    +0.000 NA
BRANCH  23  26
ATOM     26  C   UNL     1      -0.373  12.745  19.866  0.00  0.00    +0.000 C 
BRANCH  26  27
ATOM     27  C   UNL     1      -1.761  12.430  19.373  0.00  0.00    +0.000 A 
ATOM     28  C   UNL     1      -1.944  11.797  18.134  0.00  0.00    +0.000 A 
ATOM     29  C   UNL     1      -3.221  11.435  17.708  0.00  0.00    +0.000 A 
ATOM     30  C   UNL     1      -4.329  11.699  18.512  0.00  0.00    +0.000 A 
ATOM     31  C   UNL     1      -4.171  12.336  19.747  0.00  0.00    +0.000 A 
ATOM     32  C   UNL     1      -5.356  12.602  20.629  0.00  0.00    +0.000 C 
ATOM     33  C   UNL     1      -2.885  12.699  20.171  0.00  0.00    +0.000 A 
ENDBRANCH  26  27
ENDBRANCH  23  26
ENDBRANCH  20  21
ENDBRANCH   3  20
TORSDOF 6
ENDMDL
MODEL 5
REMARK VINA RESULT:      -7.9      7.277     10.721
REMARK  Name = 
REMARK  9 active torsions:
REMARK  status: ('A' for Active; 'I' for Inactive)
REMARK    1  A    between atoms: C_2  and  C_3
REMARK    2  A    between atoms: C_2  and  C_20
REMARK    3  A    between atoms: N_5  and  C_6
REMARK    4  A    between atoms: C_6  and  C_7
REMARK    5  A    between atoms: N_9  and  C_10
REMARK    6  A    between atoms: C_10  and  C_11
REMARK    7  A    between atoms: C_15  and  C_16
REMARK    8  A    between atoms: C_23  and  C_24
REMARK    9  A    between atoms: C_29  and  C_30
REMARK                            x       y       z     vdW  Elec       q    Type
REMARK                         _______ _______ _______ _____ _____    ______ ____
ROOT
ATOM      1  C   UNL     1       9.358  10.646  18.220  0.00  0.00    +0.000 C 
ATOM      2  O   UNL     1      10.037  10.694  17.195  0.00  0.00    +0.000 OA
ATOM      3  N   UNL     1       8.498   9.613  18.474  0.00  0.00    +0.000 N 
ATOM      4  H   UNL     1       7.807   9.693  19.205  0.00  0.00    +0.000 HD
ENDROOT
BRANCH   1   6
ATOM      5  C   UNL     1       8.512  12.724  18.900  0.00  0.00    +0.000 C 
ATOM      6  C   UNL     1       9.389  11.749  19.225  0.00  0.00    +0.000 C 
BRANCH   6   7
ATOM      7  C   UNL     1      10.358  11.746  20.427  0.00  0.00    +0.000 C 
ATOM      8  C   UNL     1       9.728  12.200  21.750  0.00  0.00    +0.000 C 
ATOM      9  C   UNL     1       9.162  13.617  21.843  0.00  0.00    +0.000 C 
ATOM     10  C   UNL     1      10.066  14.847  21.571  0.00  0.00    +0.000 C 
ATOM     11  C   UNL     1       9.192  16.094  21.794  0.00  0.00    +0.000 C 
ATOM     12  C   UNL     1      10.952  15.001  20.284  0.00  0.00    +0.000 C 
ATOM     13  C   UNL     1      10.441  15.895  19.138  0.00  0.00    +0.000 C 
ATOM     14  C   UNL     1      11.138  15.314  17.935  0.00  0.00    +0.000 C 
ATOM     15  O   UNL     1      11.165  15.828  16.826  0.00  0.00    +0.000 OA
ATOM     16  C   UNL     1      11.707  13.990  18.237  0.00  0.00    +0.000 C 
ATOM     17  C   UNL     1      12.219  13.051  17.209  0.00  0.00    +0.000 C 
ATOM     18  C   UNL     1      11.488  13.796  19.548  0.00  0.00    +0.000 C 
ATOM     19  C   UNL     1      11.688  12.491  20.221  0.00  0.00    +0.000 C 
ENDBRANCH   6   7
ENDBRANCH   1   6
BRANCH   3  20
ATOM     20  C   UNL     1       8.263   8.615  17.453  0.00  0.00    +0.000 C 
BRANCH  20  21
ATOM     21  C   UNL     1       7.543   7.452  18.033  0.00  0.00    +0.000 A 
ATOM     22  C   UNL     1       6.280   6.969  17.760  0.00  0.00    +0.000 A 
ATOM     23  N   UNL     1       6.213   5.797  18.456  0.00  0.00    +0.000 N 
ATOM     24  N   UNL     1       7.327   5.607  19.189  0.00  0.00    +0.000 NA
ATOM     25  N   UNL     1       8.150   6.619  18.939  0.00  0.00    +0.000 NA
BRANCH  23  26
ATOM     26  C   UNL     1       5.269   4.711  18.264  0.00  0.00    +0.000 C 
BRANCH  26  27
ATOM     27  C   UNL     1       4.057   4.808  19.153  0.00  0.00    +0.000 A 
ATOM     28  C   UNL     1       3.298   5.987  19.188  0.00  0.00    +0.000 A 
ATOM     29  C   UNL     1       2.134   6.056  19.951  0.00  0.00    +0.000 A 
ATOM     30  C   UNL     1       1.713   4.950  20.687  0.00  0.00    +0.000 A 
ATOM     31  C   UNL     1       2.457   3.766  20.674  0.00  0.00    +0.000 A 
ATOM     32  C   UNL     1       1.998   2.563  21.446  0.00  0.00    +0.000 C 
ATOM     33  C   UNL     1       3.629   3.702  19.906  0.00  0.00    +0.000 A 
ENDBRANCH  26  27
ENDBRANCH  23  26
ENDBRANCH  20  21
ENDBRANCH   3  20
TORSDOF 6
ENDMDL
MODEL 6
REMARK VINA RESULT:      -7.8      1.015      1.517
REMARK  Name = 
REMARK  9 active torsions:
REMARK  status: ('A' for Active; 'I' for Inactive)
REMARK    1  A    between atoms: C_2  and  C_3
REMARK    2  A    between atoms: C_2  and  C_20
REMARK    3  A    between atoms: N_5  and  C_6
REMARK    4  A    between atoms: C_6  and  C_7
REMARK    5  A    between atoms: N_9  and  C_10
REMARK    6  A    between atoms: C_10  and  C_11
REMARK    7  A    between atoms: C_15  and  C_16
REMARK    8  A    between atoms: C_23  and  C_24
REMARK    9  A    between atoms: C_29  and  C_30
REMARK                            x       y       z     vdW  Elec       q    Type
REMARK                         _______ _______ _______ _____ _____    ______ ____
ROOT
ATOM      1  C   UNL     1       2.069   6.760  20.276  0.00  0.00    +0.000 C 
ATOM      2  O   UNL     1       1.336   5.958  20.850  0.00  0.00    +0.000 OA
ATOM      3  N   UNL     1       2.064   8.095  20.575  0.00  0.00    +0.000 N 
ATOM      4  H   UNL     1       2.511   8.758  19.961  0.00  0.00    +0.000 HD
ENDROOT
BRANCH   1   6
ATOM      5  C   UNL     1       2.329   6.365  17.979  0.00  0.00    +0.000 C 
ATOM      6  C   UNL     1       2.972   6.331  19.166  0.00  0.00    +0.000 C 
BRANCH   6   7
ATOM      7  C   UNL     1       4.424   5.867  19.414  0.00  0.00    +0.000 C 
ATOM      8  C   UNL     1       5.400   6.209  18.282  0.00  0.00    +0.000 C 
ATOM      9  C   UNL     1       5.145   5.621  16.893  0.00  0.00    +0.000 C 
ATOM     10  C   UNL     1       5.065   4.087  16.689  0.00  0.00    +0.000 C 
ATOM     11  C   UNL     1       4.846   3.854  15.183  0.00  0.00    +0.000 C 
ATOM     12  C   UNL     1       4.144   3.147  17.545  0.00  0.00    +0.000 C 
ATOM     13  C   UNL     1       2.804   2.679  16.945  0.00  0.00    +0.000 C 
ATOM     14  C   UNL     1       1.976   2.400  18.173  0.00  0.00    +0.000 C 
ATOM     15  O   UNL     1       0.894   1.832  18.172  0.00  0.00    +0.000 OA
ATOM     16  C   UNL     1       2.592   2.987  19.374  0.00  0.00    +0.000 C 
ATOM     17  C   UNL     1       1.903   3.117  20.682  0.00  0.00    +0.000 C 
ATOM     18  C   UNL     1       3.765   3.497  18.964  0.00  0.00    +0.000 C 
ATOM     19  C   UNL     1       4.601   4.389  19.803  0.00  0.00    +0.000 C 
ENDBRANCH   6   7
ENDBRANCH   1   6
BRANCH   3  20
ATOM     20  C   UNL     1       1.072   8.614  21.492  0.00  0.00    +0.000 C 
BRANCH  20  21
ATOM     21  C   UNL     1       0.570   9.926  21.010  0.00  0.00    +0.000 A 
ATOM     22  C   UNL     1      -0.573  10.227  20.297  0.00  0.00    +0.000 A 
ATOM     23  N   UNL     1      -0.606  11.591  20.282  0.00  0.00    +0.000 N 
ATOM     24  N   UNL     1       0.491  12.108  20.867  0.00  0.00    +0.000 NA
ATOM     25  N   UNL     1       1.222  11.094  21.315  0.00  0.00    +0.000 NA
BRANCH  23  26
ATOM     26  C   UNL     1      -1.746  12.440  19.983  0.00  0.00    +0.000 C 
BRANCH  26  27
ATOM     27  C   UNL     1      -2.556  11.961  18.807  0.00  0.00    +0.000 A 
ATOM     28  C   UNL     1      -1.916  11.548  17.628  0.00  0.00    +0.000 A 
ATOM     29  C   UNL     1      -2.656  11.033  16.565  0.00  0.00    +0.000 A 
ATOM     30  C   UNL     1      -4.042  10.923  16.665  0.00  0.00    +0.000 A 
ATOM     31  C   UNL     1      -4.703  11.334  17.827  0.00  0.00    +0.000 A 
ATOM     32  C   UNL     1      -6.192  11.196  17.952  0.00  0.00    +0.000 C 
ATOM     33  C   UNL     1      -3.954  11.853  18.893  0.00  0.00    +0.000 A 
ENDBRANCH  26  27
ENDBRANCH  23  26
ENDBRANCH  20  21
ENDBRANCH   3  20
TORSDOF 6
ENDMDL
MODEL 7
REMARK VINA RESULT:      -7.8      4.057     10.748
REMARK  Name = 
REMARK  9 active torsions:
REMARK  status: ('A' for Active; 'I' for Inactive)
REMARK    1  A    between atoms: C_2  and  C_3
REMARK    2  A    between atoms: C_2  and  C_20
REMARK    3  A    between atoms: N_5  and  C_6
REMARK    4  A    between atoms: C_6  and  C_7
REMARK    5  A    between atoms: N_9  and  C_10
REMARK    6  A    between atoms: C_10  and  C_11
REMARK    7  A    between atoms: C_15  and  C_16
REMARK    8  A    between atoms: C_23  and  C_24
REMARK    9  A    between atoms: C_29  and  C_30
REMARK                            x       y       z     vdW  Elec       q    Type
REMARK                         _______ _______ _______ _____ _____    ______ ____
ROOT
ATOM      1  C   UNL     1      -1.236  12.266  19.815  0.00  0.00    +0.000 C 
ATOM      2  O   UNL     1      -1.489  12.578  18.652  0.00  0.00    +0.000 OA
ATOM      3  N   UNL     1      -0.089  11.603  20.157  0.00  0.00    +0.000 N 
ATOM      4  H   UNL     1       0.002  11.177  21.066  0.00  0.00    +0.000 HD
ENDROOT
BRANCH   1   6
ATOM      5  C   UNL     1      -3.420  12.858  20.432  0.00  0.00    +0.000 C 
ATOM      6  C   UNL     1      -2.201  12.540  20.921  0.00  0.00    +0.000 C 
BRANCH   6   7
ATOM      7  C   UNL     1      -1.787  12.504  22.407  0.00  0.00    +0.000 C 
ATOM      8  C   UNL     1      -2.925  12.150  23.373  0.00  0.00    +0.000 C 
ATOM      9  C   UNL     1      -4.143  13.072  23.439  0.00  0.00    +0.000 C 
ATOM     10  C   UNL     1      -3.978  14.571  23.796  0.00  0.00    +0.000 C 
ATOM     11  C   UNL     1      -5.393  15.178  23.813  0.00  0.00    +0.000 C 
ATOM     12  C   UNL     1      -2.964  15.527  23.074  0.00  0.00    +0.000 C 
ATOM     13  C   UNL     1      -3.493  16.478  21.983  0.00  0.00    +0.000 C 
ATOM     14  C   UNL     1      -2.271  16.709  21.131  0.00  0.00    +0.000 C 
ATOM     15  O   UNL     1      -2.184  17.549  20.248  0.00  0.00    +0.000 OA
ATOM     16  C   UNL     1      -1.219  15.725  21.432  0.00  0.00    +0.000 C 
ATOM     17  C   UNL     1      -0.011  15.517  20.594  0.00  0.00    +0.000 C 
ATOM     18  C   UNL     1      -1.687  15.001  22.462  0.00  0.00    +0.000 C 
ATOM     19  C   UNL     1      -1.050  13.748  22.931  0.00  0.00    +0.000 C 
ENDBRANCH   6   7
ENDBRANCH   1   6
BRANCH   3  20
ATOM     20  C   UNL     1       0.793  11.124  19.115  0.00  0.00    +0.000 C 
BRANCH  20  21
ATOM     21  C   UNL     1       1.180   9.715  19.383  0.00  0.00    +0.000 A 
ATOM     22  C   UNL     1       1.765   8.785  18.547  0.00  0.00    +0.000 A 
ATOM     23  N   UNL     1       2.042   7.730  19.366  0.00  0.00    +0.000 N 
ATOM     24  N   UNL     1       1.578   7.949  20.611  0.00  0.00    +0.000 NA
ATOM     25  N   UNL     1       1.044   9.164  20.632  0.00  0.00    +0.000 NA
BRANCH  23  26
ATOM     26  C   UNL     1       2.959   6.633  19.109  0.00  0.00    +0.000 C 
BRANCH  26  27
ATOM     27  C   UNL     1       2.299   5.280  19.154  0.00  0.00    +0.000 A 
ATOM     28  C   UNL     1       1.886   4.654  17.969  0.00  0.00    +0.000 A 
ATOM     29  C   UNL     1       1.343   3.370  17.999  0.00  0.00    +0.000 A 
ATOM     30  C   UNL     1       1.208   2.695  19.211  0.00  0.00    +0.000 A 
ATOM     31  C   UNL     1       1.607   3.302  20.407  0.00  0.00    +0.000 A 
ATOM     32  C   UNL     1       1.487   2.572  21.713  0.00  0.00    +0.000 C 
ATOM     33  C   UNL     1       2.150   4.594  20.371  0.00  0.00    +0.000 A 
ENDBRANCH  26  27
ENDBRANCH  23  26
ENDBRANCH  20  21
ENDBRANCH   3  20
TORSDOF 6
ENDMDL
MODEL 8
REMARK VINA RESULT:      -7.8      3.102     10.035
REMARK  Name = 
REMARK  9 active torsions:
REMARK  status: ('A' for Active; 'I' for Inactive)
REMARK    1  A    between atoms: C_2  and  C_3
REMARK    2  A    between atoms: C_2  and  C_20
REMARK    3  A    between atoms: N_5  and  C_6
REMARK    4  A    between atoms: C_6  and  C_7
REMARK    5  A    between atoms: N_9  and  C_10
REMARK    6  A    between atoms: C_10  and  C_11
REMARK    7  A    between atoms: C_15  and  C_16
REMARK    8  A    between atoms: C_23  and  C_24
REMARK    9  A    between atoms: C_29  and  C_30
REMARK                            x       y       z     vdW  Elec       q    Type
REMARK                         _______ _______ _______ _____ _____    ______ ____
ROOT
ATOM      1  C   UNL     1       0.004  10.398  18.725  0.00  0.00    +0.000 C 
ATOM      2  O   UNL     1      -0.658  10.005  17.766  0.00  0.00    +0.000 OA
ATOM      3  N   UNL     1       1.342  10.139  18.841  0.00  0.00    +0.000 N 
ATOM      4  H   UNL     1       1.817  10.284  19.719  0.00  0.00    +0.000 HD
ENDROOT
BRANCH   1   6
ATOM      5  C   UNL     1      -1.829  11.642  19.494  0.00  0.00    +0.000 C 
ATOM      6  C   UNL     1      -0.631  11.134  19.859  0.00  0.00    +0.000 C 
BRANCH   6   7
ATOM      7  C   UNL     1       0.063  11.304  21.227  0.00  0.00    +0.000 C 
ATOM      8  C   UNL     1      -0.884  11.235  22.431  0.00  0.00    +0.000 C 
ATOM      9  C   UNL     1      -1.999  12.275  22.545  0.00  0.00    +0.000 C 
ATOM     10  C   UNL     1      -1.666  13.788  22.586  0.00  0.00    +0.000 C 
ATOM     11  C   UNL     1      -3.004  14.530  22.747  0.00  0.00    +0.000 C 
ATOM     12  C   UNL     1      -0.749  14.501  21.529  0.00  0.00    +0.000 C 
ATOM     13  C   UNL     1      -1.416  15.305  20.396  0.00  0.00    +0.000 C 
ATOM     14  C   UNL     1      -0.372  15.265  19.309  0.00  0.00    +0.000 C 
ATOM     15  O   UNL     1      -0.403  15.932  18.286  0.00  0.00    +0.000 OA
ATOM     16  C   UNL     1       0.649  14.242  19.590  0.00  0.00    +0.000 C 
ATOM     17  C   UNL     1       1.651  13.775  18.600  0.00  0.00    +0.000 C 
ATOM     18  C   UNL     1       0.343  13.752  20.803  0.00  0.00    +0.000 C 
ATOM     19  C   UNL     1       0.973  12.537  21.371  0.00  0.00    +0.000 C 
ENDBRANCH   6   7
ENDBRANCH   1   6
BRANCH   3  20
ATOM     20  C   UNL     1       1.981   9.258  17.887  0.00  0.00    +0.000 C 
BRANCH  20  21
ATOM     21  C   UNL     1       2.111   7.894  18.460  0.00  0.00    +0.000 A 
ATOM     22  C   UNL     1       2.399   6.697  17.836  0.00  0.00    +0.000 A 
ATOM     23  N   UNL     1       2.556   5.814  18.864  0.00  0.00    +0.000 N 
ATOM     24  N   UNL     1       2.294   6.400  20.048  0.00  0.00    +0.000 NA
ATOM     25  N   UNL     1       2.016   7.677  19.811  0.00  0.00    +0.000 NA
BRANCH  23  26
ATOM     26  C   UNL     1       3.201   4.514  18.817  0.00  0.00    +0.000 C 
BRANCH  26  27
ATOM     27  C   UNL     1       4.591   4.558  18.239  0.00  0.00    +0.000 A 
ATOM     28  C   UNL     1       4.836   4.064  16.949  0.00  0.00    +0.000 A 
ATOM     29  C   UNL     1       6.104   4.171  16.380  0.00  0.00    +0.000 A 
ATOM     30  C   UNL     1       7.142   4.771  17.091  0.00  0.00    +0.000 A 
ATOM     31  C   UNL     1       6.924   5.264  18.382  0.00  0.00    +0.000 A 
ATOM     32  C   UNL     1       8.030   5.932  19.144  0.00  0.00    +0.000 C 
ATOM     33  C   UNL     1       5.647   5.152  18.950  0.00  0.00    +0.000 A 
ENDBRANCH  26  27
ENDBRANCH  23  26
ENDBRANCH  20  21
ENDBRANCH   3  20
TORSDOF 6
ENDMDL
MODEL 9
REMARK VINA RESULT:      -7.6      3.020      9.867
REMARK  Name = 
REMARK  9 active torsions:
REMARK  status: ('A' for Active; 'I' for Inactive)
REMARK    1  A    between atoms: C_2  and  C_3
REMARK    2  A    between atoms: C_2  and  C_20
REMARK    3  A    between atoms: N_5  and  C_6
REMARK    4  A    between atoms: C_6  and  C_7
REMARK    5  A    between atoms: N_9  and  C_10
REMARK    6  A    between atoms: C_10  and  C_11
REMARK    7  A    between atoms: C_15  and  C_16
REMARK    8  A    between atoms: C_23  and  C_24
REMARK    9  A    between atoms: C_29  and  C_30
REMARK                            x       y       z     vdW  Elec       q    Type
REMARK                         _______ _______ _______ _____ _____    ______ ____
ROOT
ATOM      1  C   UNL     1       0.205   9.845  20.958  0.00  0.00    +0.000 C 
ATOM      2  O   UNL     1      -0.377   9.545  21.998  0.00  0.00    +0.000 OA
ATOM      3  N   UNL     1       1.024   8.967  20.302  0.00  0.00    +0.000 N 
ATOM      4  H   UNL     1       1.647   9.292  19.579  0.00  0.00    +0.000 HD
ENDROOT
BRANCH   1   6
ATOM      5  C   UNL     1       1.115  12.002  20.803  0.00  0.00    +0.000 C 
ATOM      6  C   UNL     1       0.101  11.217  20.377  0.00  0.00    +0.000 C 
BRANCH   6   7
ATOM      7  C   UNL     1      -1.067  11.640  19.460  0.00  0.00    +0.000 C 
ATOM      8  C   UNL     1      -0.651  12.493  18.255  0.00  0.00    +0.000 C 
ATOM      9  C   UNL     1       0.015  13.845  18.512  0.00  0.00    +0.000 C 
ATOM     10  C   UNL     1      -0.709  14.936  19.342  0.00  0.00    +0.000 C 
ATOM     11  C   UNL     1       0.220  16.163  19.361  0.00  0.00    +0.000 C 
ATOM     12  C   UNL     1      -1.327  14.675  20.761  0.00  0.00    +0.000 C 
ATOM     13  C   UNL     1      -0.536  15.121  22.006  0.00  0.00    +0.000 C 
ATOM     14  C   UNL     1      -1.052  14.190  23.073  0.00  0.00    +0.000 C 
ATOM     15  O   UNL     1      -0.829  14.305  24.269  0.00  0.00    +0.000 OA
ATOM     16  C   UNL     1      -1.784  13.058  22.481  0.00  0.00    +0.000 C 
ATOM     17  C   UNL     1      -2.183  11.843  23.234  0.00  0.00    +0.000 C 
ATOM     18  C   UNL     1      -1.827  13.307  21.162  0.00  0.00    +0.000 C 
ATOM     19  C   UNL     1      -2.265  12.307  20.160  0.00  0.00    +0.000 C 
ENDBRANCH   6   7
ENDBRANCH   1   6
BRANCH   3  20
ATOM     20  C   UNL     1       1.335   7.693  20.914  0.00  0.00    +0.000 C 
BRANCH  20  21
ATOM     21  C   UNL     1       1.947   6.782  19.912  0.00  0.00    +0.000 A 
ATOM     22  C   UNL     1       2.639   7.079  18.755  0.00  0.00    +0.000 A 
ATOM     23  N   UNL     1       3.107   5.871  18.329  0.00  0.00    +0.000 N 
ATOM     24  N   UNL     1       2.661   4.874  19.116  0.00  0.00    +0.000 NA
ATOM     25  N   UNL     1       1.944   5.422  20.090  0.00  0.00    +0.000 NA
BRANCH  23  26
ATOM     26  C   UNL     1       4.174   5.627  17.373  0.00  0.00    +0.000 C 
BRANCH  26  27
ATOM     27  C   UNL     1       5.537   6.007  17.890  0.00  0.00    +0.000 A 
ATOM     28  C   UNL     1       6.248   5.129  18.721  0.00  0.00    +0.000 A 
ATOM     29  C   UNL     1       7.540   5.443  19.140  0.00  0.00    +0.000 A 
ATOM     30  C   UNL     1       8.137   6.635  18.735  0.00  0.00    +0.000 A 
ATOM     31  C   UNL     1       7.445   7.530  17.913  0.00  0.00    +0.000 A 
ATOM     32  C   UNL     1       8.090   8.805  17.453  0.00  0.00    +0.000 C 
ATOM     33  C   UNL     1       6.145   7.211  17.495  0.00  0.00    +0.000 A 
ENDBRANCH  26  27
ENDBRANCH  23  26
ENDBRANCH  20  21
ENDBRANCH   3  20
TORSDOF 6
ENDMDL
