MODEL 1
REMARK VINA RESULT:      -6.6      0.000      0.000
REMARK  Name = 
REMARK  10 active torsions:
REMARK  status: ('A' for Active; 'I' for Inactive)
REMARK    1  A    between atoms: C_1  and  C_2
REMARK    2  A    between atoms: C_2  and  O_3
REMARK    3  A    between atoms: O_3  and  C_4
REMARK    4  A    between atoms: C_4  and  C_6
REMARK    5  A    between atoms: C_7  and  S_8
REMARK    6  A    between atoms: S_8  and  N_11
REMARK    7  A    between atoms: N_11  and  C_12
REMARK    8  A    between atoms: C_19  and  C_20
REMARK    9  A    between atoms: N_26  and  C_27
REMARK   10  A    between atoms: C_33  and  C_34
REMARK                            x       y       z     vdW  Elec       q    Type
REMARK                         _______ _______ _______ _____ _____    ______ ____
ROOT
ATOM      1  C   UNL     1      -1.607  12.972  21.625  0.00  0.00    +0.000 A 
ATOM      2  C   UNL     1      -2.220  12.414  20.451  0.00  0.00    +0.000 A 
ATOM      3  C   UNL     1      -3.605  12.638  20.527  0.00  0.00    +0.000 A 
ATOM      4  N   UNL     1      -3.845  13.391  21.709  0.00  0.00    +0.000 N 
ATOM      5  C   UNL     1      -2.623  13.610  22.346  0.00  0.00    +0.000 A 
ATOM      6  C   UNL     1      -2.424  14.435  23.592  0.00  0.00    +0.000 C 
ENDROOT
BRANCH   3   7
ATOM      7  C   UNL     1      -4.701  12.184  19.609  0.00  0.00    +0.000 A 
ATOM      8  C   UNL     1      -5.844  11.527  20.095  0.00  0.00    +0.000 A 
ATOM      9  C   UNL     1      -6.965  11.326  19.277  0.00  0.00    +0.000 A 
ATOM     10  C   UNL     1      -6.917  11.660  17.928  0.00  0.00    +0.000 A 
ATOM     11  C   UNL     1      -5.754  12.210  17.406  0.00  0.00    +0.000 A 
ATOM     12  C   UNL     1      -4.676  12.500  18.249  0.00  0.00    +0.000 A 
ENDBRANCH   3   7
BRANCH   4  13
ATOM     13  C   UNL     1      -5.122  13.858  22.209  0.00  0.00    +0.000 A 
ATOM     14  C   UNL     1      -5.793  13.177  23.240  0.00  0.00    +0.000 A 
ATOM     15  C   UNL     1      -7.045  13.609  23.694  0.00  0.00    +0.000 A 
ATOM     16  C   UNL     1      -7.684  14.675  23.068  0.00  0.00    +0.000 A 
ATOM     17  C   UNL     1      -7.043  15.344  22.029  0.00  0.00    +0.000 A 
ATOM     18  C   UNL     1      -5.753  14.970  21.638  0.00  0.00    +0.000 A 
ENDBRANCH   4  13
BRANCH   2  19
ATOM     19  S   UNL     1      -1.329  11.595  19.162  0.00  0.00    +0.000 S 
ATOM     20  O   UNL     1      -1.956  10.299  19.046  0.00  0.00    +0.000 OA
ATOM     21  O   UNL     1      -1.322  12.489  18.031  0.00  0.00    +0.000 OA
BRANCH  19  22
ATOM     22  N   UNL     1       0.287  11.428  19.673  0.00  0.00    +0.000 N 
ATOM     23  H   UNL     1       0.805  12.227  19.302  0.00  0.00    +0.000 HD
BRANCH  22  24
ATOM     24  C   UNL     1       0.921  10.190  19.316  0.00  0.00    +0.000 A 
ATOM     25  C   UNL     1       1.422   9.985  18.029  0.00  0.00    +0.000 A 
ATOM     26  C   UNL     1       2.101   8.800  17.719  0.00  0.00    +0.000 A 
ATOM     27  C   UNL     1       2.262   7.818  18.695  0.00  0.00    +0.000 A 
ATOM     28 CL   UNL     1       3.141   6.383  18.334  0.00  0.00    +0.000 Cl
ATOM     29  C   UNL     1       1.727   8.003  19.970  0.00  0.00    +0.000 A 
ATOM     30  C   UNL     1       1.046   9.187  20.278  0.00  0.00    +0.000 A 
ENDBRANCH  22  24
ENDBRANCH  19  22
ENDBRANCH   2  19
BRANCH   1  31
ATOM     31  C   UNL     1      -0.216  12.884  22.093  0.00  0.00    +0.000 C 
ATOM     32  O   UNL     1       0.637  13.717  21.818  0.00  0.00    +0.000 OA
BRANCH  31  33
ATOM     33  O   UNL     1       0.072  11.679  22.667  0.00  0.00    +0.000 OA
BRANCH  33  35
ATOM     34  C   UNL     1      -0.622   9.426  23.262  0.00  0.00    +0.000 C 
ATOM     35  C   UNL     1      -1.058  10.858  23.004  0.00  0.00    +0.000 C 
ENDBRANCH  33  35
ENDBRANCH  31  33
ENDBRANCH   1  31
TORSDOF 8
ENDMDL
MODEL 2
REMARK VINA RESULT:      -6.5      3.159      4.095
REMARK  Name = 
REMARK  10 active torsions:
REMARK  status: ('A' for Active; 'I' for Inactive)
REMARK    1  A    between atoms: C_1  and  C_2
REMARK    2  A    between atoms: C_2  and  O_3
REMARK    3  A    between atoms: O_3  and  C_4
REMARK    4  A    between atoms: C_4  and  C_6
REMARK    5  A    between atoms: C_7  and  S_8
REMARK    6  A    between atoms: S_8  and  N_11
REMARK    7  A    between atoms: N_11  and  C_12
REMARK    8  A    between atoms: C_19  and  C_20
REMARK    9  A    between atoms: N_26  and  C_27
REMARK   10  A    between atoms: C_33  and  C_34
REMARK                            x       y       z     vdW  Elec       q    Type
REMARK                         _______ _______ _______ _____ _____    ______ ____
ROOT
ATOM      1  C   UNL     1      -1.753  12.730  21.232  0.00  0.00    +0.000 A 
ATOM      2  C   UNL     1      -1.488  12.052  19.993  0.00  0.00    +0.000 A 
ATOM      3  C   UNL     1      -2.706  11.883  19.312  0.00  0.00    +0.000 A 
ATOM      4  N   UNL     1      -3.714  12.513  20.092  0.00  0.00    +0.000 N 
ATOM      5  C   UNL     1      -3.117  13.046  21.235  0.00  0.00    +0.000 A 
ATOM      6  C   UNL     1      -3.821  13.864  22.287  0.00  0.00    +0.000 C 
ENDROOT
BRANCH   3   7
ATOM      7  C   UNL     1      -2.993  11.167  18.026  0.00  0.00    +0.000 A 
ATOM      8  C   UNL     1      -3.733  11.773  16.996  0.00  0.00    +0.000 A 
ATOM      9  C   UNL     1      -3.790  11.203  15.715  0.00  0.00    +0.000 A 
ATOM     10  C   UNL     1      -3.219   9.957  15.478  0.00  0.00    +0.000 A 
ATOM     11  C   UNL     1      -2.578   9.294  16.515  0.00  0.00    +0.000 A 
ATOM     12  C   UNL     1      -2.438   9.913  17.762  0.00  0.00    +0.000 A 
ENDBRANCH   3   7
BRANCH   4  13
ATOM     13  C   UNL     1      -5.130  12.598  19.794  0.00  0.00    +0.000 A 
ATOM     14  C   UNL     1      -5.689  13.766  19.247  0.00  0.00    +0.000 A 
ATOM     15  C   UNL     1      -7.063  13.858  18.996  0.00  0.00    +0.000 A 
ATOM     16  C   UNL     1      -7.911  12.818  19.368  0.00  0.00    +0.000 A 
ATOM     17  C   UNL     1      -7.374  11.665  19.933  0.00  0.00    +0.000 A 
ATOM     18  C   UNL     1      -5.991  11.536  20.098  0.00  0.00    +0.000 A 
ENDBRANCH   4  13
BRANCH   2  19
ATOM     19  S   UNL     1       0.121  11.541  19.467  0.00  0.00    +0.000 S 
ATOM     20  O   UNL     1       0.238  10.173  19.915  0.00  0.00    +0.000 OA
ATOM     21  O   UNL     1       0.213  11.843  18.061  0.00  0.00    +0.000 OA
BRANCH  19  22
ATOM     22  N   UNL     1       1.263  12.524  20.262  0.00  0.00    +0.000 N 
ATOM     23  H   UNL     1       0.858  12.793  21.160  0.00  0.00    +0.000 HD
BRANCH  22  24
ATOM     24  C   UNL     1       1.702  13.676  19.527  0.00  0.00    +0.000 A 
ATOM     25  C   UNL     1       2.905  13.661  18.818  0.00  0.00    +0.000 A 
ATOM     26  C   UNL     1       3.283  14.769  18.049  0.00  0.00    +0.000 A 
ATOM     27  C   UNL     1       2.461  15.893  18.004  0.00  0.00    +0.000 A 
ATOM     28 CL   UNL     1       2.894  17.236  17.018  0.00  0.00    +0.000 Cl
ATOM     29  C   UNL     1       1.278  15.927  18.743  0.00  0.00    +0.000 A 
ATOM     30  C   UNL     1       0.903  14.821  19.515  0.00  0.00    +0.000 A 
ENDBRANCH  22  24
ENDBRANCH  19  22
ENDBRANCH   2  19
BRANCH   1  31
ATOM     31  C   UNL     1      -0.854  13.018  22.359  0.00  0.00    +0.000 C 
ATOM     32  O   UNL     1      -0.501  14.149  22.661  0.00  0.00    +0.000 OA
BRANCH  31  33
ATOM     33  O   UNL     1      -0.285  11.892  22.881  0.00  0.00    +0.000 OA
BRANCH  33  35
ATOM     34  C   UNL     1      -0.507   9.480  23.100  0.00  0.00    +0.000 C 
ATOM     35  C   UNL     1      -1.192  10.831  23.222  0.00  0.00    +0.000 C 
ENDBRANCH  33  35
ENDBRANCH  31  33
ENDBRANCH   1  31
TORSDOF 8
ENDMDL
MODEL 3
REMARK VINA RESULT:      -6.5      2.222      4.617
REMARK  Name = 
REMARK  10 active torsions:
REMARK  status: ('A' for Active; 'I' for Inactive)
REMARK    1  A    between atoms: C_1  and  C_2
REMARK    2  A    between atoms: C_2  and  O_3
REMARK    3  A    between atoms: O_3  and  C_4
REMARK    4  A    between atoms: C_4  and  C_6
REMARK    5  A    between atoms: C_7  and  S_8
REMARK    6  A    between atoms: S_8  and  N_11
REMARK    7  A    between atoms: N_11  and  C_12
REMARK    8  A    between atoms: C_19  and  C_20
REMARK    9  A    between atoms: N_26  and  C_27
REMARK   10  A    between atoms: C_33  and  C_34
REMARK                            x       y       z     vdW  Elec       q    Type
REMARK                         _______ _______ _______ _____ _____    ______ ____
ROOT
ATOM      1  C   UNL     1      -4.307  11.884  19.169  0.00  0.00    +0.000 A 
ATOM      2  C   UNL     1      -2.881  11.978  19.021  0.00  0.00    +0.000 A 
ATOM      3  C   UNL     1      -2.401  12.922  19.945  0.00  0.00    +0.000 A 
ATOM      4  N   UNL     1      -3.515  13.363  20.711  0.00  0.00    +0.000 N 
ATOM      5  C   UNL     1      -4.655  12.703  20.249  0.00  0.00    +0.000 A 
ATOM      6  C   UNL     1      -6.035  12.826  20.843  0.00  0.00    +0.000 C 
ENDROOT
BRANCH   3   7
ATOM      7  C   UNL     1      -1.012  13.450  20.141  0.00  0.00    +0.000 A 
ATOM      8  C   UNL     1      -0.478  14.446  19.305  0.00  0.00    +0.000 A 
ATOM      9  C   UNL     1       0.714  15.106  19.637  0.00  0.00    +0.000 A 
ATOM     10  C   UNL     1       1.459  14.695  20.737  0.00  0.00    +0.000 A 
ATOM     11  C   UNL     1       1.001  13.638  21.512  0.00  0.00    +0.000 A 
ATOM     12  C   UNL     1      -0.238  13.052  21.233  0.00  0.00    +0.000 A 
ENDBRANCH   3   7
BRANCH   4  13
ATOM     13  C   UNL     1      -3.513  14.336  21.785  0.00  0.00    +0.000 A 
ATOM     14  C   UNL     1      -3.374  13.938  23.127  0.00  0.00    +0.000 A 
ATOM     15  C   UNL     1      -3.411  14.877  24.164  0.00  0.00    +0.000 A 
ATOM     16  C   UNL     1      -3.672  16.215  23.884  0.00  0.00    +0.000 A 
ATOM     17  C   UNL     1      -3.835  16.621  22.562  0.00  0.00    +0.000 A 
ATOM     18  C   UNL     1      -3.707  15.697  21.520  0.00  0.00    +0.000 A 
ENDBRANCH   4  13
BRANCH   2  19
ATOM     19  S   UNL     1      -1.942  11.039  17.853  0.00  0.00    +0.000 S 
ATOM     20  O   UNL     1      -2.256   9.662  18.150  0.00  0.00    +0.000 OA
ATOM     21  O   UNL     1      -2.244  11.577  16.550  0.00  0.00    +0.000 OA
BRANCH  19  22
ATOM     22  N   UNL     1      -0.292  11.347  18.146  0.00  0.00    +0.000 N 
ATOM     23  H   UNL     1       0.103  11.724  17.283  0.00  0.00    +0.000 HD
BRANCH  22  24
ATOM     24  C   UNL     1       0.470  10.225  18.616  0.00  0.00    +0.000 A 
ATOM     25  C   UNL     1       0.426   9.838  19.957  0.00  0.00    +0.000 A 
ATOM     26  C   UNL     1       1.120   8.698  20.384  0.00  0.00    +0.000 A 
ATOM     27  C   UNL     1       1.866   7.959  19.469  0.00  0.00    +0.000 A 
ATOM     28 CL   UNL     1       2.676   6.527  19.977  0.00  0.00    +0.000 Cl
ATOM     29  C   UNL     1       1.945   8.365  18.137  0.00  0.00    +0.000 A 
ATOM     30  C   UNL     1       1.254   9.507  17.712  0.00  0.00    +0.000 A 
ENDBRANCH  22  24
ENDBRANCH  19  22
ENDBRANCH   2  19
BRANCH   1  31
ATOM     31  C   UNL     1      -5.292  11.155  18.357  0.00  0.00    +0.000 C 
ATOM     32  O   UNL     1      -5.864  11.650  17.395  0.00  0.00    +0.000 OA
BRANCH  31  33
ATOM     33  O   UNL     1      -5.662   9.967  18.918  0.00  0.00    +0.000 OA
BRANCH  33  35
ATOM     34  C   UNL     1      -7.324   8.676  20.137  0.00  0.00    +0.000 C 
ATOM     35  C   UNL     1      -7.072   9.785  19.129  0.00  0.00    +0.000 C 
ENDBRANCH  33  35
ENDBRANCH  31  33
ENDBRANCH   1  31
TORSDOF 8
ENDMDL
MODEL 4
REMARK VINA RESULT:      -6.5      0.338      1.206
REMARK  Name = 
REMARK  10 active torsions:
REMARK  status: ('A' for Active; 'I' for Inactive)
REMARK    1  A    between atoms: C_1  and  C_2
REMARK    2  A    between atoms: C_2  and  O_3
REMARK    3  A    between atoms: O_3  and  C_4
REMARK    4  A    between atoms: C_4  and  C_6
REMARK    5  A    between atoms: C_7  and  S_8
REMARK    6  A    between atoms: S_8  and  N_11
REMARK    7  A    between atoms: N_11  and  C_12
REMARK    8  A    between atoms: C_19  and  C_20
REMARK    9  A    between atoms: N_26  and  C_27
REMARK   10  A    between atoms: C_33  and  C_34
REMARK                            x       y       z     vdW  Elec       q    Type
REMARK                         _______ _______ _______ _____ _____    ______ ____
ROOT
ATOM      1  C   UNL     1      -1.428  12.880  21.466  0.00  0.00    +0.000 A 
ATOM      2  C   UNL     1      -2.119  12.343  20.327  0.00  0.00    +0.000 A 
ATOM      3  C   UNL     1      -3.486  12.640  20.458  0.00  0.00    +0.000 A 
ATOM      4  N   UNL     1      -3.635  13.417  21.639  0.00  0.00    +0.000 N 
ATOM      5  C   UNL     1      -2.378  13.578  22.221  0.00  0.00    +0.000 A 
ATOM      6  C   UNL     1      -2.082  14.405  23.447  0.00  0.00    +0.000 C 
ENDROOT
BRANCH   3   7
ATOM      7  C   UNL     1      -4.642  12.235  19.593  0.00  0.00    +0.000 A 
ATOM      8  C   UNL     1      -4.559  12.272  18.190  0.00  0.00    +0.000 A 
ATOM      9  C   UNL     1      -5.542  11.667  17.392  0.00  0.00    +0.000 A 
ATOM     10  C   UNL     1      -6.685  11.131  17.975  0.00  0.00    +0.000 A 
ATOM     11  C   UNL     1      -6.834  11.186  19.354  0.00  0.00    +0.000 A 
ATOM     12  C   UNL     1      -5.805  11.700  20.150  0.00  0.00    +0.000 A 
ENDBRANCH   3   7
BRANCH   4  13
ATOM     13  C   UNL     1      -4.864  13.956  22.186  0.00  0.00    +0.000 A 
ATOM     14  C   UNL     1      -5.363  15.202  21.765  0.00  0.00    +0.000 A 
ATOM     15  C   UNL     1      -6.530  15.737  22.323  0.00  0.00    +0.000 A 
ATOM     16  C   UNL     1      -7.168  15.078  23.370  0.00  0.00    +0.000 A 
ATOM     17  C   UNL     1      -6.672  13.856  23.815  0.00  0.00    +0.000 A 
ATOM     18  C   UNL     1      -5.560  13.277  23.195  0.00  0.00    +0.000 A 
ENDBRANCH   4  13
BRANCH   2  19
ATOM     19  S   UNL     1      -1.328  11.464  19.012  0.00  0.00    +0.000 S 
ATOM     20  O   UNL     1      -1.920  10.147  19.041  0.00  0.00    +0.000 OA
ATOM     21  O   UNL     1      -1.458  12.280  17.831  0.00  0.00    +0.000 OA
BRANCH  19  22
ATOM     22  N   UNL     1       0.334  11.375  19.373  0.00  0.00    +0.000 N 
ATOM     23  H   UNL     1       0.801  12.103  18.829  0.00  0.00    +0.000 HD
BRANCH  22  24
ATOM     24  C   UNL     1       0.945  10.094  19.153  0.00  0.00    +0.000 A 
ATOM     25  C   UNL     1       1.436   9.740  17.895  0.00  0.00    +0.000 A 
ATOM     26  C   UNL     1       2.093   8.515  17.715  0.00  0.00    +0.000 A 
ATOM     27  C   UNL     1       2.240   7.644  18.793  0.00  0.00    +0.000 A 
ATOM     28 CL   UNL     1       3.093   6.163  18.590  0.00  0.00    +0.000 Cl
ATOM     29  C   UNL     1       1.715   7.977  20.041  0.00  0.00    +0.000 A 
ATOM     30  C   UNL     1       1.055   9.200  20.219  0.00  0.00    +0.000 A 
ENDBRANCH  22  24
ENDBRANCH  19  22
ENDBRANCH   2  19
BRANCH   1  31
ATOM     31  C   UNL     1      -0.025  12.724  21.877  0.00  0.00    +0.000 C 
ATOM     32  O   UNL     1       0.845  13.543  21.613  0.00  0.00    +0.000 OA
BRANCH  31  33
ATOM     33  O   UNL     1       0.243  11.482  22.375  0.00  0.00    +0.000 OA
BRANCH  33  35
ATOM     34  C   UNL     1      -0.528   9.365  23.290  0.00  0.00    +0.000 C 
ATOM     35  C   UNL     1      -0.839  10.835  23.065  0.00  0.00    +0.000 C 
ENDBRANCH  33  35
ENDBRANCH  31  33
ENDBRANCH   1  31
TORSDOF 8
ENDMDL
MODEL 5
REMARK VINA RESULT:      -6.5      3.880      7.393
REMARK  Name = 
REMARK  10 active torsions:
REMARK  status: ('A' for Active; 'I' for Inactive)
REMARK    1  A    between atoms: C_1  and  C_2
REMARK    2  A    between atoms: C_2  and  O_3
REMARK    3  A    between atoms: O_3  and  C_4
REMARK    4  A    between atoms: C_4  and  C_6
REMARK    5  A    between atoms: C_7  and  S_8
REMARK    6  A    between atoms: S_8  and  N_11
REMARK    7  A    between atoms: N_11  and  C_12
REMARK    8  A    between atoms: C_19  and  C_20
REMARK    9  A    between atoms: N_26  and  C_27
REMARK   10  A    between atoms: C_33  and  C_34
REMARK                            x       y       z     vdW  Elec       q    Type
REMARK                         _______ _______ _______ _____ _____    ______ ____
ROOT
ATOM      1  C   UNL     1      -5.575  12.445  20.396  0.00  0.00    +0.000 A 
ATOM      2  C   UNL     1      -4.231  12.773  20.782  0.00  0.00    +0.000 A 
ATOM      3  C   UNL     1      -3.354  12.261  19.811  0.00  0.00    +0.000 A 
ATOM      4  N   UNL     1      -4.153  11.676  18.790  0.00  0.00    +0.000 N 
ATOM      5  C   UNL     1      -5.495  11.822  19.145  0.00  0.00    +0.000 A 
ATOM      6  C   UNL     1      -6.672  11.410  18.297  0.00  0.00    +0.000 C 
ENDROOT
BRANCH   3   7
ATOM      7  C   UNL     1      -1.855  12.254  19.781  0.00  0.00    +0.000 A 
ATOM      8  C   UNL     1      -1.108  11.349  20.555  0.00  0.00    +0.000 A 
ATOM      9  C   UNL     1       0.269  11.181  20.342  0.00  0.00    +0.000 A 
ATOM     10  C   UNL     1       0.944  12.003  19.448  0.00  0.00    +0.000 A 
ATOM     11  C   UNL     1       0.240  12.979  18.756  0.00  0.00    +0.000 A 
ATOM     12  C   UNL     1      -1.149  13.073  18.898  0.00  0.00    +0.000 A 
ENDBRANCH   3   7
BRANCH   4  13
ATOM     13  C   UNL     1      -3.694  11.021  17.582  0.00  0.00    +0.000 A 
ATOM     14  C   UNL     1      -2.827   9.915  17.638  0.00  0.00    +0.000 A 
ATOM     15  C   UNL     1      -2.355   9.309  16.468  0.00  0.00    +0.000 A 
ATOM     16  C   UNL     1      -2.673   9.850  15.226  0.00  0.00    +0.000 A 
ATOM     17  C   UNL     1      -3.510  10.960  15.154  0.00  0.00    +0.000 A 
ATOM     18  C   UNL     1      -4.056  11.509  16.319  0.00  0.00    +0.000 A 
ENDBRANCH   4  13
BRANCH   2  19
ATOM     19  S   UNL     1      -3.811  13.671  22.246  0.00  0.00    +0.000 S 
ATOM     20  O   UNL     1      -4.742  14.775  22.280  0.00  0.00    +0.000 OA
ATOM     21  O   UNL     1      -3.794  12.717  23.327  0.00  0.00    +0.000 OA
BRANCH  19  22
ATOM     22  N   UNL     1      -2.218  14.245  22.065  0.00  0.00    +0.000 N 
ATOM     23  H   UNL     1      -1.601  13.431  22.067  0.00  0.00    +0.000 HD
BRANCH  22  24
ATOM     24  C   UNL     1      -1.797  15.214  23.038  0.00  0.00    +0.000 A 
ATOM     25  C   UNL     1      -1.504  14.834  24.349  0.00  0.00    +0.000 A 
ATOM     26  C   UNL     1      -1.027  15.779  25.266  0.00  0.00    +0.000 A 
ATOM     27  C   UNL     1      -0.860  17.105  24.869  0.00  0.00    +0.000 A 
ATOM     28 CL   UNL     1      -0.224  18.259  25.977  0.00  0.00    +0.000 Cl
ATOM     29  C   UNL     1      -1.191  17.496  23.572  0.00  0.00    +0.000 A 
ATOM     30  C   UNL     1      -1.671  16.550  22.657  0.00  0.00    +0.000 A 
ENDBRANCH  22  24
ENDBRANCH  19  22
ENDBRANCH   2  19
BRANCH   1  31
ATOM     31  C   UNL     1      -6.836  12.625  21.129  0.00  0.00    +0.000 C 
ATOM     32  O   UNL     1      -7.621  13.535  20.899  0.00  0.00    +0.000 OA
BRANCH  31  33
ATOM     33  O   UNL     1      -6.928  11.818  22.227  0.00  0.00    +0.000 OA
BRANCH  33  35
ATOM     34  C   UNL     1      -7.257  13.098  24.269  0.00  0.00    +0.000 C 
ATOM     35  C   UNL     1      -7.896  12.209  23.214  0.00  0.00    +0.000 C 
ENDBRANCH  33  35
ENDBRANCH  31  33
ENDBRANCH   1  31
TORSDOF 8
ENDMDL
MODEL 6
REMARK VINA RESULT:      -6.4      0.284      1.201
REMARK  Name = 
REMARK  10 active torsions:
REMARK  status: ('A' for Active; 'I' for Inactive)
REMARK    1  A    between atoms: C_1  and  C_2
REMARK    2  A    between atoms: C_2  and  O_3
REMARK    3  A    between atoms: O_3  and  C_4
REMARK    4  A    between atoms: C_4  and  C_6
REMARK    5  A    between atoms: C_7  and  S_8
REMARK    6  A    between atoms: S_8  and  N_11
REMARK    7  A    between atoms: N_11  and  C_12
REMARK    8  A    between atoms: C_19  and  C_20
REMARK    9  A    between atoms: N_26  and  C_27
REMARK   10  A    between atoms: C_33  and  C_34
REMARK                            x       y       z     vdW  Elec       q    Type
REMARK                         _______ _______ _______ _____ _____    ______ ____
ROOT
ATOM      1  C   UNL     1      -1.785  12.886  21.661  0.00  0.00    +0.000 A 
ATOM      2  C   UNL     1      -2.365  12.372  20.451  0.00  0.00    +0.000 A 
ATOM      3  C   UNL     1      -3.749  12.611  20.487  0.00  0.00    +0.000 A 
ATOM      4  N   UNL     1      -4.019  13.331  21.683  0.00  0.00    +0.000 N 
ATOM      5  C   UNL     1      -2.817  13.515  22.367  0.00  0.00    +0.000 A 
ATOM      6  C   UNL     1      -2.651  14.299  23.644  0.00  0.00    +0.000 C 
ENDROOT
BRANCH   3   7
ATOM      7  C   UNL     1      -4.817  12.201  19.519  0.00  0.00    +0.000 A 
ATOM      8  C   UNL     1      -5.761  11.209  19.841  0.00  0.00    +0.000 A 
ATOM      9  C   UNL     1      -6.895  11.004  19.041  0.00  0.00    +0.000 A 
ATOM     10  C   UNL     1      -7.039  11.691  17.841  0.00  0.00    +0.000 A 
ATOM     11  C   UNL     1      -6.059  12.595  17.453  0.00  0.00    +0.000 A 
ATOM     12  C   UNL     1      -4.983  12.869  18.304  0.00  0.00    +0.000 A 
ENDBRANCH   3   7
BRANCH   4  13
ATOM     13  C   UNL     1      -5.307  13.800  22.154  0.00  0.00    +0.000 A 
ATOM     14  C   UNL     1      -5.836  15.029  21.722  0.00  0.00    +0.000 A 
ATOM     15  C   UNL     1      -7.063  15.497  22.209  0.00  0.00    +0.000 A 
ATOM     16  C   UNL     1      -7.738  14.785  23.196  0.00  0.00    +0.000 A 
ATOM     17  C   UNL     1      -7.215  13.578  23.650  0.00  0.00    +0.000 A 
ATOM     18  C   UNL     1      -6.037  13.066  23.098  0.00  0.00    +0.000 A 
ENDBRANCH   4  13
BRANCH   2  19
ATOM     19  S   UNL     1      -1.440  11.580  19.168  0.00  0.00    +0.000 S 
ATOM     20  O   UNL     1      -1.983  10.244  19.093  0.00  0.00    +0.000 OA
ATOM     21  O   UNL     1      -1.507  12.444  18.016  0.00  0.00    +0.000 OA
BRANCH  19  22
ATOM     22  N   UNL     1       0.190  11.531  19.658  0.00  0.00    +0.000 N 
ATOM     23  H   UNL     1       0.655  12.342  19.246  0.00  0.00    +0.000 HD
BRANCH  22  24
ATOM     24  C   UNL     1       0.892  10.318  19.342  0.00  0.00    +0.000 A 
ATOM     25  C   UNL     1       1.045   9.309  20.294  0.00  0.00    +0.000 A 
ATOM     26  C   UNL     1       1.669   8.103  19.948  0.00  0.00    +0.000 A 
ATOM     27  C   UNL     1       2.152   7.921  18.653  0.00  0.00    +0.000 A 
ATOM     28 CL   UNL     1       2.872   6.422  18.207  0.00  0.00    +0.000 Cl
ATOM     29  C   UNL     1       2.036   8.943  17.711  0.00  0.00    +0.000 A 
ATOM     30  C   UNL     1       1.415  10.149  18.060  0.00  0.00    +0.000 A 
ENDBRANCH  22  24
ENDBRANCH  19  22
ENDBRANCH   2  19
BRANCH   1  31
ATOM     31  C   UNL     1      -0.412  12.765  22.174  0.00  0.00    +0.000 C 
ATOM     32  O   UNL     1       0.552  13.289  21.633  0.00  0.00    +0.000 OA
BRANCH  31  33
ATOM     33  O   UNL     1      -0.300  11.835  23.167  0.00  0.00    +0.000 OA
BRANCH  33  35
ATOM     34  C   UNL     1      -0.114   9.426  23.441  0.00  0.00    +0.000 C 
ATOM     35  C   UNL     1      -0.959  10.581  22.930  0.00  0.00    +0.000 C 
ENDBRANCH  33  35
ENDBRANCH  31  33
ENDBRANCH   1  31
TORSDOF 8
ENDMDL
MODEL 7
REMARK VINA RESULT:      -6.4      7.614     10.881
REMARK  Name = 
REMARK  10 active torsions:
REMARK  status: ('A' for Active; 'I' for Inactive)
REMARK    1  A    between atoms: C_1  and  C_2
REMARK    2  A    between atoms: C_2  and  O_3
REMARK    3  A    between atoms: O_3  and  C_4
REMARK    4  A    between atoms: C_4  and  C_6
REMARK    5  A    between atoms: C_7  and  S_8
REMARK    6  A    between atoms: S_8  and  N_11
REMARK    7  A    between atoms: N_11  and  C_12
REMARK    8  A    between atoms: C_19  and  C_20
REMARK    9  A    between atoms: N_26  and  C_27
REMARK   10  A    between atoms: C_33  and  C_34
REMARK                            x       y       z     vdW  Elec       q    Type
REMARK                         _______ _______ _______ _____ _____    ______ ____
ROOT
ATOM      1  C   UNL     1       8.509  13.877  19.874  0.00  0.00    +0.000 A 
ATOM      2  C   UNL     1       7.356  14.724  20.002  0.00  0.00    +0.000 A 
ATOM      3  C   UNL     1       6.812  14.542  21.284  0.00  0.00    +0.000 A 
ATOM      4  N   UNL     1       7.662  13.635  21.975  0.00  0.00    +0.000 N 
ATOM      5  C   UNL     1       8.700  13.266  21.118  0.00  0.00    +0.000 A 
ATOM      6  C   UNL     1       9.863  12.379  21.487  0.00  0.00    +0.000 C 
ENDROOT
BRANCH   3   7
ATOM      7  C   UNL     1       5.567  15.119  21.888  0.00  0.00    +0.000 A 
ATOM      8  C   UNL     1       5.592  16.320  22.618  0.00  0.00    +0.000 A 
ATOM      9  C   UNL     1       4.403  16.978  22.967  0.00  0.00    +0.000 A 
ATOM     10  C   UNL     1       3.173  16.384  22.709  0.00  0.00    +0.000 A 
ATOM     11  C   UNL     1       3.133  15.144  22.086  0.00  0.00    +0.000 A 
ATOM     12  C   UNL     1       4.318  14.541  21.651  0.00  0.00    +0.000 A 
ENDBRANCH   3   7
BRANCH   4  13
ATOM     13  C   UNL     1       7.507  13.144  23.330  0.00  0.00    +0.000 A 
ATOM     14  C   UNL     1       8.141  13.781  24.411  0.00  0.00    +0.000 A 
ATOM     15  C   UNL     1       8.019  13.281  25.713  0.00  0.00    +0.000 A 
ATOM     16  C   UNL     1       7.334  12.091  25.942  0.00  0.00    +0.000 A 
ATOM     17  C   UNL     1       6.722  11.436  24.878  0.00  0.00    +0.000 A 
ATOM     18  C   UNL     1       6.765  11.985  23.592  0.00  0.00    +0.000 A 
ENDBRANCH   4  13
BRANCH   2  19
ATOM     19  S   UNL     1       6.768  15.796  18.724  0.00  0.00    +0.000 S 
ATOM     20  O   UNL     1       6.012  16.814  19.415  0.00  0.00    +0.000 OA
ATOM     21  O   UNL     1       7.916  16.171  17.936  0.00  0.00    +0.000 OA
BRANCH  19  22
ATOM     22  N   UNL     1       5.746  14.885  17.710  0.00  0.00    +0.000 N 
ATOM     23  H   UNL     1       5.957  15.154  16.748  0.00  0.00    +0.000 HD
BRANCH  22  24
ATOM     24  C   UNL     1       4.342  15.004  17.984  0.00  0.00    +0.000 A 
ATOM     25  C   UNL     1       3.577  13.883  18.312  0.00  0.00    +0.000 A 
ATOM     26  C   UNL     1       2.224  14.027  18.645  0.00  0.00    +0.000 A 
ATOM     27  C   UNL     1       1.639  15.292  18.634  0.00  0.00    +0.000 A 
ATOM     28 CL   UNL     1      -0.009  15.481  19.095  0.00  0.00    +0.000 Cl
ATOM     29  C   UNL     1       2.391  16.409  18.268  0.00  0.00    +0.000 A 
ATOM     30  C   UNL     1       3.742  16.263  17.931  0.00  0.00    +0.000 A 
ENDBRANCH  22  24
ENDBRANCH  19  22
ENDBRANCH   2  19
BRANCH   1  31
ATOM     31  C   UNL     1       9.343  13.591  18.697  0.00  0.00    +0.000 C 
ATOM     32  O   UNL     1      10.246  14.327  18.322  0.00  0.00    +0.000 OA
BRANCH  31  33
ATOM     33  O   UNL     1       8.863  12.555  17.949  0.00  0.00    +0.000 OA
BRANCH  33  35
ATOM     34  C   UNL     1       8.911  10.189  18.512  0.00  0.00    +0.000 C 
ATOM     35  C   UNL     1       9.672  11.368  17.929  0.00  0.00    +0.000 C 
ENDBRANCH  33  35
ENDBRANCH  31  33
ENDBRANCH   1  31
TORSDOF 8
ENDMDL
MODEL 8
REMARK VINA RESULT:      -6.4      2.966      5.276
REMARK  Name = 
REMARK  10 active torsions:
REMARK  status: ('A' for Active; 'I' for Inactive)
REMARK    1  A    between atoms: C_1  and  C_2
REMARK    2  A    between atoms: C_2  and  O_3
REMARK    3  A    between atoms: O_3  and  C_4
REMARK    4  A    between atoms: C_4  and  C_6
REMARK    5  A    between atoms: C_7  and  S_8
REMARK    6  A    between atoms: S_8  and  N_11
REMARK    7  A    between atoms: N_11  and  C_12
REMARK    8  A    between atoms: C_19  and  C_20
REMARK    9  A    between atoms: N_26  and  C_27
REMARK   10  A    between atoms: C_33  and  C_34
REMARK                            x       y       z     vdW  Elec       q    Type
REMARK                         _______ _______ _______ _____ _____    ______ ____
ROOT
ATOM      1  C   UNL     1      -3.939  11.533  18.783  0.00  0.00    +0.000 A 
ATOM      2  C   UNL     1      -2.920  12.242  19.505  0.00  0.00    +0.000 A 
ATOM      3  C   UNL     1      -3.543  13.066  20.457  0.00  0.00    +0.000 A 
ATOM      4  N   UNL     1      -4.941  12.820  20.373  0.00  0.00    +0.000 N 
ATOM      5  C   UNL     1      -5.161  11.869  19.377  0.00  0.00    +0.000 A 
ATOM      6  C   UNL     1      -6.499  11.270  19.022  0.00  0.00    +0.000 C 
ENDROOT
BRANCH   3   7
ATOM      7  C   UNL     1      -2.942  14.066  21.399  0.00  0.00    +0.000 A 
ATOM      8  C   UNL     1      -2.599  13.720  22.718  0.00  0.00    +0.000 A 
ATOM      9  C   UNL     1      -1.820  14.577  23.510  0.00  0.00    +0.000 A 
ATOM     10  C   UNL     1      -1.483  15.844  23.048  0.00  0.00    +0.000 A 
ATOM     11  C   UNL     1      -1.909  16.244  21.789  0.00  0.00    +0.000 A 
ATOM     12  C   UNL     1      -2.598  15.347  20.965  0.00  0.00    +0.000 A 
ENDBRANCH   3   7
BRANCH   4  13
ATOM     13  C   UNL     1      -5.990  13.438  21.159  0.00  0.00    +0.000 A 
ATOM     14  C   UNL     1      -6.614  14.625  20.735  0.00  0.00    +0.000 A 
ATOM     15  C   UNL     1      -7.600  15.240  21.516  0.00  0.00    +0.000 A 
ATOM     16  C   UNL     1      -7.916  14.727  22.770  0.00  0.00    +0.000 A 
ATOM     17  C   UNL     1      -7.290  13.566  23.214  0.00  0.00    +0.000 A 
ATOM     18  C   UNL     1      -6.372  12.901  22.395  0.00  0.00    +0.000 A 
ENDBRANCH   4  13
BRANCH   2  19
ATOM     19  S   UNL     1      -1.186  12.067  19.201  0.00  0.00    +0.000 S 
ATOM     20  O   UNL     1      -0.579  12.081  20.511  0.00  0.00    +0.000 OA
ATOM     21  O   UNL     1      -1.029  10.911  18.353  0.00  0.00    +0.000 OA
BRANCH  19  22
ATOM     22  N   UNL     1      -0.678  13.418  18.297  0.00  0.00    +0.000 N 
ATOM     23  H   UNL     1      -0.735  13.160  17.310  0.00  0.00    +0.000 HD
BRANCH  22  24
ATOM     24  C   UNL     1       0.626  13.922  18.624  0.00  0.00    +0.000 A 
ATOM     25  C   UNL     1       1.779  13.233  18.244  0.00  0.00    +0.000 A 
ATOM     26  C   UNL     1       3.043  13.775  18.508  0.00  0.00    +0.000 A 
ATOM     27  C   UNL     1       3.148  14.999  19.166  0.00  0.00    +0.000 A 
ATOM     28 CL   UNL     1       4.697  15.695  19.446  0.00  0.00    +0.000 Cl
ATOM     29  C   UNL     1       1.999  15.671  19.583  0.00  0.00    +0.000 A 
ATOM     30  C   UNL     1       0.735  15.126  19.321  0.00  0.00    +0.000 A 
ENDBRANCH  22  24
ENDBRANCH  19  22
ENDBRANCH   2  19
BRANCH   1  31
ATOM     31  C   UNL     1      -3.826  10.663  17.603  0.00  0.00    +0.000 C 
ATOM     32  O   UNL     1      -3.613   9.461  17.676  0.00  0.00    +0.000 OA
BRANCH  31  33
ATOM     33  O   UNL     1      -3.758  11.365  16.434  0.00  0.00    +0.000 OA
BRANCH  33  35
ATOM     34  C   UNL     1      -3.621  10.130  14.344  0.00  0.00    +0.000 C 
ATOM     35  C   UNL     1      -2.855  10.848  15.443  0.00  0.00    +0.000 C 
ENDBRANCH  33  35
ENDBRANCH  31  33
ENDBRANCH   1  31
TORSDOF 8
ENDMDL
MODEL 9
REMARK VINA RESULT:      -6.3      2.163      4.703
REMARK  Name = 
REMARK  10 active torsions:
REMARK  status: ('A' for Active; 'I' for Inactive)
REMARK    1  A    between atoms: C_1  and  C_2
REMARK    2  A    between atoms: C_2  and  O_3
REMARK    3  A    between atoms: O_3  and  C_4
REMARK    4  A    between atoms: C_4  and  C_6
REMARK    5  A    between atoms: C_7  and  S_8
REMARK    6  A    between atoms: S_8  and  N_11
REMARK    7  A    between atoms: N_11  and  C_12
REMARK    8  A    between atoms: C_19  and  C_20
REMARK    9  A    between atoms: N_26  and  C_27
REMARK   10  A    between atoms: C_33  and  C_34
REMARK                            x       y       z     vdW  Elec       q    Type
REMARK                         _______ _______ _______ _____ _____    ______ ____
ROOT
ATOM      1  C   UNL     1      -3.958  12.200  19.295  0.00  0.00    +0.000 A 
ATOM      2  C   UNL     1      -2.537  12.136  19.092  0.00  0.00    +0.000 A 
ATOM      3  C   UNL     1      -1.924  13.058  19.957  0.00  0.00    +0.000 A 
ATOM      4  N   UNL     1      -2.954  13.644  20.743  0.00  0.00    +0.000 N 
ATOM      5  C   UNL     1      -4.174  13.093  20.351  0.00  0.00    +0.000 A 
ATOM      6  C   UNL     1      -5.509  13.384  20.988  0.00  0.00    +0.000 C 
ENDROOT
BRANCH   3   7
ATOM      7  C   UNL     1      -0.480  13.442  20.081  0.00  0.00    +0.000 A 
ATOM      8  C   UNL     1       0.344  12.895  21.080  0.00  0.00    +0.000 A 
ATOM      9  C   UNL     1       1.736  13.066  21.042  0.00  0.00    +0.000 A 
ATOM     10  C   UNL     1       2.314  13.891  20.084  0.00  0.00    +0.000 A 
ATOM     11  C   UNL     1       1.502  14.529  19.156  0.00  0.00    +0.000 A 
ATOM     12  C   UNL     1       0.126  14.274  19.137  0.00  0.00    +0.000 A 
ENDBRANCH   3   7
BRANCH   4  13
ATOM     13  C   UNL     1      -2.806  14.652  21.774  0.00  0.00    +0.000 A 
ATOM     14  C   UNL     1      -2.606  14.293  23.119  0.00  0.00    +0.000 A 
ATOM     15  C   UNL     1      -2.503  15.269  24.117  0.00  0.00    +0.000 A 
ATOM     16  C   UNL     1      -2.682  16.612  23.800  0.00  0.00    +0.000 A 
ATOM     17  C   UNL     1      -2.905  16.981  22.477  0.00  0.00    +0.000 A 
ATOM     18  C   UNL     1      -2.916  16.014  21.467  0.00  0.00    +0.000 A 
ENDBRANCH   4  13
BRANCH   2  19
ATOM     19  S   UNL     1      -1.749  11.058  17.933  0.00  0.00    +0.000 S 
ATOM     20  O   UNL     1      -2.133   9.729  18.345  0.00  0.00    +0.000 OA
ATOM     21  O   UNL     1      -2.107  11.530  16.618  0.00  0.00    +0.000 OA
BRANCH  19  22
ATOM     22  N   UNL     1      -0.065  11.264  18.092  0.00  0.00    +0.000 N 
ATOM     23  H   UNL     1       0.289  11.569  17.184  0.00  0.00    +0.000 HD
BRANCH  22  24
ATOM     24  C   UNL     1       0.653  10.116  18.569  0.00  0.00    +0.000 A 
ATOM     25  C   UNL     1       0.574   9.724  19.906  0.00  0.00    +0.000 A 
ATOM     26  C   UNL     1       1.224   8.561  20.339  0.00  0.00    +0.000 A 
ATOM     27  C   UNL     1       1.964   7.804  19.432  0.00  0.00    +0.000 A 
ATOM     28 CL   UNL     1       2.720   6.345  19.946  0.00  0.00    +0.000 Cl
ATOM     29  C   UNL     1       2.079   8.215  18.104  0.00  0.00    +0.000 A 
ATOM     30  C   UNL     1       1.431   9.380  17.674  0.00  0.00    +0.000 A 
ENDBRANCH  22  24
ENDBRANCH  19  22
ENDBRANCH   2  19
BRANCH   1  31
ATOM     31  C   UNL     1      -5.046  11.549  18.550  0.00  0.00    +0.000 C 
ATOM     32  O   UNL     1      -5.663  12.101  17.649  0.00  0.00    +0.000 OA
BRANCH  31  33
ATOM     33  O   UNL     1      -5.439  10.369  19.113  0.00  0.00    +0.000 OA
BRANCH  33  35
ATOM     34  C   UNL     1      -7.506  10.437  20.392  0.00  0.00    +0.000 C 
ATOM     35  C   UNL     1      -6.847  10.091  19.067  0.00  0.00    +0.000 C 
ENDBRANCH  33  35
ENDBRANCH  31  33
ENDBRANCH   1  31
TORSDOF 8
ENDMDL
