MODEL 1
REMARK VINA RESULT:      -8.1      0.000      0.000
REMARK  Name = 
REMARK  4 active torsions:
REMARK  status: ('A' for Active; 'I' for Inactive)
REMARK    1  A    between atoms: N_1  and  S_2
REMARK    2  A    between atoms: S_2  and  C_5
REMARK    3  A    between atoms: N_9  and  C_10
REMARK    4  A    between atoms: N_13  and  C_14
REMARK                            x       y       z     vdW  Elec       q    Type
REMARK                         _______ _______ _______ _____ _____    ______ ____
ROOT
ATOM      1  C   UNL     1       5.556   5.199  16.573  0.00  0.00    +0.000 A 
ATOM      2  C   UNL     1       4.546   4.287  16.859  0.00  0.00    +0.000 A 
ATOM      3  C   UNL     1       3.414   4.733  17.536  0.00  0.00    +0.000 A 
ATOM      4  C   UNL     1       3.316   6.077  17.895  0.00  0.00    +0.000 A 
ATOM      5  N   UNL     1       2.228   6.476  18.688  0.00  0.00    +0.000 N 
ATOM      6  N   UNL     1       4.284   6.965  17.577  0.00  0.00    +0.000 NA
ATOM      7  C   UNL     1       5.380   6.518  16.921  0.00  0.00    +0.000 A 
ATOM      8  H   UNL     1       1.359   6.150  18.277  0.00  0.00    +0.000 HD
ENDROOT
BRANCH   5   9
ATOM      9  C   UNL     1       2.216   7.902  19.020  0.00  0.00    +0.000 C 
ATOM     10  C   UNL     1       1.468   8.731  17.985  0.00  0.00    +0.000 C 
ATOM     11  C   UNL     1       1.249  10.039  18.736  0.00  0.00    +0.000 C 
ATOM     12  N   UNL     1       0.963   9.601  20.106  0.00  0.00    +0.000 N 
ATOM     13  C   UNL     1       1.414   8.214  20.301  0.00  0.00    +0.000 C 
BRANCH  12  14
ATOM     14  C   UNL     1       0.117  10.267  20.958  0.00  0.00    +0.000 A 
ATOM     15  C   UNL     1      -0.109   9.816  22.272  0.00  0.00    +0.000 A 
ATOM     16  C   UNL     1      -0.942  10.505  23.159  0.00  0.00    +0.000 A 
ATOM     17  C   UNL     1      -1.580  11.663  22.743  0.00  0.00    +0.000 A 
ATOM     18  F   UNL     1      -2.366  12.319  23.607  0.00  0.00    +0.000 F 
ATOM     19  C   UNL     1      -1.401  12.126  21.445  0.00  0.00    +0.000 A 
ATOM     20 CL   UNL     1      -2.182  13.564  20.910  0.00  0.00    +0.000 Cl
ATOM     21  C   UNL     1      -0.570  11.427  20.562  0.00  0.00    +0.000 A 
ENDBRANCH  12  14
ENDBRANCH   5   9
BRANCH   1  22
ATOM     22  S   UNL     1       7.022   4.690  15.759  0.00  0.00    +0.000 S 
ATOM     23  O   UNL     1       7.945   4.146  16.731  0.00  0.00    +0.000 OA
ATOM     24  O   UNL     1       7.409   5.702  14.807  0.00  0.00    +0.000 OA
BRANCH  22  25
ATOM     25  N   UNL     1       6.476   3.388  14.851  0.00  0.00    +0.000 NA
ATOM     26  H   UNL     1       6.501   2.536  15.412  0.00  0.00    +0.000 HD
ATOM     27  H   UNL     1       6.995   3.317  13.976  0.00  0.00    +0.000 HD
ENDBRANCH  22  25
ENDBRANCH   1  22
TORSDOF 4
ENDMDL
MODEL 2
REMARK VINA RESULT:      -7.5      0.829      1.016
REMARK  Name = 
REMARK  4 active torsions:
REMARK  status: ('A' for Active; 'I' for Inactive)
REMARK    1  A    between atoms: N_1  and  S_2
REMARK    2  A    between atoms: S_2  and  C_5
REMARK    3  A    between atoms: N_9  and  C_10
REMARK    4  A    between atoms: N_13  and  C_14
REMARK                            x       y       z     vdW  Elec       q    Type
REMARK                         _______ _______ _______ _____ _____    ______ ____
ROOT
ATOM      1  C   UNL     1       5.538   5.091  16.749  0.00  0.00    +0.000 A 
ATOM      2  C   UNL     1       4.529   4.193  17.081  0.00  0.00    +0.000 A 
ATOM      3  C   UNL     1       3.407   4.667  17.754  0.00  0.00    +0.000 A 
ATOM      4  C   UNL     1       3.316   6.024  18.063  0.00  0.00    +0.000 A 
ATOM      5  N   UNL     1       2.238   6.455  18.853  0.00  0.00    +0.000 N 
ATOM      6  N   UNL     1       4.281   6.897  17.700  0.00  0.00    +0.000 NA
ATOM      7  C   UNL     1       5.368   6.423  17.048  0.00  0.00    +0.000 A 
ATOM      8  H   UNL     1       1.363   6.117  18.465  0.00  0.00    +0.000 HD
ENDROOT
BRANCH   5   9
ATOM      9  C   UNL     1       2.233   7.893  19.131  0.00  0.00    +0.000 C 
ATOM     10  C   UNL     1       1.603   8.698  18.002  0.00  0.00    +0.000 C 
ATOM     11  C   UNL     1       1.351  10.039  18.682  0.00  0.00    +0.000 C 
ATOM     12  N   UNL     1       0.931   9.661  20.035  0.00  0.00    +0.000 N 
ATOM     13  C   UNL     1       1.327   8.272  20.321  0.00  0.00    +0.000 C 
BRANCH  12  14
ATOM     14  C   UNL     1       0.029  10.378  20.782  0.00  0.00    +0.000 A 
ATOM     15  C   UNL     1       0.002  10.290  22.187  0.00  0.00    +0.000 A 
ATOM     16  C   UNL     1      -0.890  11.040  22.959  0.00  0.00    +0.000 A 
ATOM     17  C   UNL     1      -1.787  11.894  22.336  0.00  0.00    +0.000 A 
ATOM     18  F   UNL     1      -2.628  12.616  23.089  0.00  0.00    +0.000 F 
ATOM     19  C   UNL     1      -1.806  11.990  20.950  0.00  0.00    +0.000 A 
ATOM     20 CL   UNL     1      -2.911  13.047  20.158  0.00  0.00    +0.000 Cl
ATOM     21  C   UNL     1      -0.915  11.231  20.185  0.00  0.00    +0.000 A 
ENDBRANCH  12  14
ENDBRANCH   5   9
BRANCH   1  22
ATOM     22  S   UNL     1       6.993   4.548  15.937  0.00  0.00    +0.000 S 
ATOM     23  O   UNL     1       6.629   3.714  14.811  0.00  0.00    +0.000 OA
ATOM     24  O   UNL     1       7.958   4.134  16.925  0.00  0.00    +0.000 OA
BRANCH  22  25
ATOM     25  N   UNL     1       7.580   5.980  15.289  0.00  0.00    +0.000 NA
ATOM     26  H   UNL     1       7.010   6.261  14.491  0.00  0.00    +0.000 HD
ATOM     27  H   UNL     1       8.574   5.897  15.074  0.00  0.00    +0.000 HD
ENDBRANCH  22  25
ENDBRANCH   1  22
TORSDOF 4
ENDMDL
MODEL 3
REMARK VINA RESULT:      -7.5      3.966      4.586
REMARK  Name = 
REMARK  4 active torsions:
REMARK  status: ('A' for Active; 'I' for Inactive)
REMARK    1  A    between atoms: N_1  and  S_2
REMARK    2  A    between atoms: S_2  and  C_5
REMARK    3  A    between atoms: N_9  and  C_10
REMARK    4  A    between atoms: N_13  and  C_14
REMARK                            x       y       z     vdW  Elec       q    Type
REMARK                         _______ _______ _______ _____ _____    ______ ____
ROOT
ATOM      1  C   UNL     1       3.278   4.490  19.118  0.00  0.00    +0.000 A 
ATOM      2  C   UNL     1       4.069   4.944  18.069  0.00  0.00    +0.000 A 
ATOM      3  C   UNL     1       3.911   6.256  17.630  0.00  0.00    +0.000 A 
ATOM      4  C   UNL     1       2.979   7.080  18.260  0.00  0.00    +0.000 A 
ATOM      5  N   UNL     1       2.746   8.355  17.719  0.00  0.00    +0.000 N 
ATOM      6  N   UNL     1       2.243   6.644  19.306  0.00  0.00    +0.000 NA
ATOM      7  C   UNL     1       2.406   5.366  19.721  0.00  0.00    +0.000 A 
ATOM      8  H   UNL     1       3.626   8.844  17.586  0.00  0.00    +0.000 HD
ENDROOT
BRANCH   5   9
ATOM      9  C   UNL     1       1.747   9.143  18.443  0.00  0.00    +0.000 C 
ATOM     10  C   UNL     1       1.962  10.641  18.280  0.00  0.00    +0.000 C 
ATOM     11  C   UNL     1       0.623  11.199  18.750  0.00  0.00    +0.000 C 
ATOM     12  N   UNL     1      -0.350  10.236  18.225  0.00  0.00    +0.000 N 
ATOM     13  C   UNL     1       0.322   8.974  17.875  0.00  0.00    +0.000 C 
BRANCH  12  14
ATOM     14  C   UNL     1      -1.617  10.576  17.822  0.00  0.00    +0.000 A 
ATOM     15  C   UNL     1      -2.480  11.317  18.652  0.00  0.00    +0.000 A 
ATOM     16  C   UNL     1      -3.760  11.697  18.239  0.00  0.00    +0.000 A 
ATOM     17  C   UNL     1      -4.212  11.333  16.980  0.00  0.00    +0.000 A 
ATOM     18  F   UNL     1      -5.436  11.715  16.593  0.00  0.00    +0.000 F 
ATOM     19  C   UNL     1      -3.398  10.582  16.141  0.00  0.00    +0.000 A 
ATOM     20 CL   UNL     1      -3.939  10.123  14.572  0.00  0.00    +0.000 Cl
ATOM     21  C   UNL     1      -2.121  10.200  16.565  0.00  0.00    +0.000 A 
ENDBRANCH  12  14
ENDBRANCH   5   9
BRANCH   1  22
ATOM     22  S   UNL     1       3.403   2.838  19.688  0.00  0.00    +0.000 S 
ATOM     23  O   UNL     1       2.808   1.949  18.713  0.00  0.00    +0.000 OA
ATOM     24  O   UNL     1       3.055   2.794  21.087  0.00  0.00    +0.000 OA
BRANCH  22  25
ATOM     25  N   UNL     1       5.058   2.573  19.615  0.00  0.00    +0.000 NA
ATOM     26  H   UNL     1       5.313   2.209  18.696  0.00  0.00    +0.000 HD
ATOM     27  H   UNL     1       5.363   1.982  20.388  0.00  0.00    +0.000 HD
ENDBRANCH  22  25
ENDBRANCH   1  22
TORSDOF 4
ENDMDL
MODEL 4
REMARK VINA RESULT:      -7.5      1.159      1.244
REMARK  Name = 
REMARK  4 active torsions:
REMARK  status: ('A' for Active; 'I' for Inactive)
REMARK    1  A    between atoms: N_1  and  S_2
REMARK    2  A    between atoms: S_2  and  C_5
REMARK    3  A    between atoms: N_9  and  C_10
REMARK    4  A    between atoms: N_13  and  C_14
REMARK                            x       y       z     vdW  Elec       q    Type
REMARK                         _______ _______ _______ _____ _____    ______ ____
ROOT
ATOM      1  C   UNL     1       5.308   5.377  16.869  0.00  0.00    +0.000 A 
ATOM      2  C   UNL     1       4.231   4.550  17.167  0.00  0.00    +0.000 A 
ATOM      3  C   UNL     1       3.101   5.109  17.757  0.00  0.00    +0.000 A 
ATOM      4  C   UNL     1       3.072   6.478  18.019  0.00  0.00    +0.000 A 
ATOM      5  N   UNL     1       1.977   6.996  18.729  0.00  0.00    +0.000 N 
ATOM      6  N   UNL     1       4.105   7.282  17.688  0.00  0.00    +0.000 NA
ATOM      7  C   UNL     1       5.199   6.726  17.117  0.00  0.00    +0.000 A 
ATOM      8  H   UNL     1       1.108   6.694  18.300  0.00  0.00    +0.000 HD
ENDROOT
BRANCH   5   9
ATOM      9  C   UNL     1       2.039   8.440  18.963  0.00  0.00    +0.000 C 
ATOM     10  C   UNL     1       1.169   9.222  17.988  0.00  0.00    +0.000 C 
ATOM     11  C   UNL     1       1.083  10.582  18.672  0.00  0.00    +0.000 C 
ATOM     12  N   UNL     1       0.985  10.241  20.095  0.00  0.00    +0.000 N 
ATOM     13  C   UNL     1       1.432   8.857  20.319  0.00  0.00    +0.000 C 
BRANCH  12  14
ATOM     14  C   UNL     1       0.280  10.984  21.010  0.00  0.00    +0.000 A 
ATOM     15  C   UNL     1      -0.530  10.374  21.986  0.00  0.00    +0.000 A 
ATOM     16  C   UNL     1      -1.225  11.120  22.943  0.00  0.00    +0.000 A 
ATOM     17  C   UNL     1      -1.132  12.503  22.936  0.00  0.00    +0.000 A 
ATOM     18  F   UNL     1      -1.794  13.204  23.866  0.00  0.00    +0.000 F 
ATOM     19  C   UNL     1      -0.361  13.142  21.973  0.00  0.00    +0.000 A 
ATOM     20 CL   UNL     1      -0.230  14.859  21.950  0.00  0.00    +0.000 Cl
ATOM     21  C   UNL     1       0.326  12.389  21.016  0.00  0.00    +0.000 A 
ENDBRANCH  12  14
ENDBRANCH   5   9
BRANCH   1  22
ATOM     22  S   UNL     1       6.773   4.726  16.163  0.00  0.00    +0.000 S 
ATOM     23  O   UNL     1       7.572   5.810  15.634  0.00  0.00    +0.000 OA
ATOM     24  O   UNL     1       6.442   3.559  15.382  0.00  0.00    +0.000 OA
BRANCH  22  25
ATOM     25  N   UNL     1       7.586   4.161  17.517  0.00  0.00    +0.000 NA
ATOM     26  H   UNL     1       7.126   3.324  17.877  0.00  0.00    +0.000 HD
ATOM     27  H   UNL     1       7.689   4.902  18.211  0.00  0.00    +0.000 HD
ENDBRANCH  22  25
ENDBRANCH   1  22
TORSDOF 4
ENDMDL
MODEL 5
REMARK VINA RESULT:      -7.4      3.660      4.337
REMARK  Name = 
REMARK  4 active torsions:
REMARK  status: ('A' for Active; 'I' for Inactive)
REMARK    1  A    between atoms: N_1  and  S_2
REMARK    2  A    between atoms: S_2  and  C_5
REMARK    3  A    between atoms: N_9  and  C_10
REMARK    4  A    between atoms: N_13  and  C_14
REMARK                            x       y       z     vdW  Elec       q    Type
REMARK                         _______ _______ _______ _____ _____    ______ ____
ROOT
ATOM      1  C   UNL     1       3.286   4.398  19.191  0.00  0.00    +0.000 A 
ATOM      2  C   UNL     1       4.046   4.793  18.095  0.00  0.00    +0.000 A 
ATOM      3  C   UNL     1       3.913   6.095  17.622  0.00  0.00    +0.000 A 
ATOM      4  C   UNL     1       3.038   6.971  18.265  0.00  0.00    +0.000 A 
ATOM      5  N   UNL     1       2.825   8.236  17.694  0.00  0.00    +0.000 N 
ATOM      6  N   UNL     1       2.334   6.593  19.354  0.00  0.00    +0.000 NA
ATOM      7  C   UNL     1       2.471   5.323  19.803  0.00  0.00    +0.000 A 
ATOM      8  H   UNL     1       3.713   8.689  17.508  0.00  0.00    +0.000 HD
ENDROOT
BRANCH   5   9
ATOM      9  C   UNL     1       1.885   9.080  18.435  0.00  0.00    +0.000 C 
ATOM     10  C   UNL     1       2.113  10.563  18.178  0.00  0.00    +0.000 C 
ATOM     11  C   UNL     1       0.815  11.171  18.699  0.00  0.00    +0.000 C 
ATOM     12  N   UNL     1      -0.204  10.200  18.287  0.00  0.00    +0.000 N 
ATOM     13  C   UNL     1       0.425   8.908  17.965  0.00  0.00    +0.000 C 
BRANCH  12  14
ATOM     14  C   UNL     1      -1.489  10.543  17.945  0.00  0.00    +0.000 A 
ATOM     15  C   UNL     1      -2.055  10.144  16.719  0.00  0.00    +0.000 A 
ATOM     16  C   UNL     1      -3.372  10.459  16.374  0.00  0.00    +0.000 A 
ATOM     17  C   UNL     1      -4.154  11.194  17.252  0.00  0.00    +0.000 A 
ATOM     18  F   UNL     1      -5.419  11.478  16.913  0.00  0.00    +0.000 F 
ATOM     19  C   UNL     1      -3.623  11.625  18.461  0.00  0.00    +0.000 A 
ATOM     20 CL   UNL     1      -4.580  12.536  19.566  0.00  0.00    +0.000 Cl
ATOM     21  C   UNL     1      -2.302  11.311  18.795  0.00  0.00    +0.000 A 
ENDBRANCH  12  14
ENDBRANCH   5   9
BRANCH   1  22
ATOM     22  S   UNL     1       3.380   2.761  19.807  0.00  0.00    +0.000 S 
ATOM     23  O   UNL     1       2.806   1.852  18.839  0.00  0.00    +0.000 OA
ATOM     24  O   UNL     1       2.992   2.757  21.197  0.00  0.00    +0.000 OA
BRANCH  22  25
ATOM     25  N   UNL     1       5.035   2.482  19.789  0.00  0.00    +0.000 NA
ATOM     26  H   UNL     1       5.464   2.874  20.628  0.00  0.00    +0.000 HD
ATOM     27  H   UNL     1       5.448   2.822  18.921  0.00  0.00    +0.000 HD
ENDBRANCH  22  25
ENDBRANCH   1  22
TORSDOF 4
ENDMDL
MODEL 6
REMARK VINA RESULT:      -7.3      1.184      1.312
REMARK  Name = 
REMARK  4 active torsions:
REMARK  status: ('A' for Active; 'I' for Inactive)
REMARK    1  A    between atoms: N_1  and  S_2
REMARK    2  A    between atoms: S_2  and  C_5
REMARK    3  A    between atoms: N_9  and  C_10
REMARK    4  A    between atoms: N_13  and  C_14
REMARK                            x       y       z     vdW  Elec       q    Type
REMARK                         _______ _______ _______ _____ _____    ______ ____
ROOT
ATOM      1  C   UNL     1       5.489   5.286  16.653  0.00  0.00    +0.000 A 
ATOM      2  C   UNL     1       4.503   4.414  17.101  0.00  0.00    +0.000 A 
ATOM      3  C   UNL     1       3.404   4.936  17.776  0.00  0.00    +0.000 A 
ATOM      4  C   UNL     1       3.311   6.314  17.971  0.00  0.00    +0.000 A 
ATOM      5  N   UNL     1       2.261   6.804  18.764  0.00  0.00    +0.000 N 
ATOM      6  N   UNL     1       4.252   7.159  17.497  0.00  0.00    +0.000 NA
ATOM      7  C   UNL     1       5.318   6.638  16.844  0.00  0.00    +0.000 A 
ATOM      8  H   UNL     1       1.375   6.427  18.442  0.00  0.00    +0.000 HD
ENDROOT
BRANCH   5   9
ATOM      9  C   UNL     1       2.252   8.260  18.918  0.00  0.00    +0.000 C 
ATOM     10  C   UNL     1       1.654   8.966  17.709  0.00  0.00    +0.000 C 
ATOM     11  C   UNL     1       1.387  10.360  18.266  0.00  0.00    +0.000 C 
ATOM     12  N   UNL     1       0.931  10.098  19.634  0.00  0.00    +0.000 N 
ATOM     13  C   UNL     1       1.316   8.739  20.048  0.00  0.00    +0.000 C 
BRANCH  12  14
ATOM     14  C   UNL     1       0.011  10.877  20.293  0.00  0.00    +0.000 A 
ATOM     15  C   UNL     1       0.282  11.418  21.565  0.00  0.00    +0.000 A 
ATOM     16  C   UNL     1      -0.634  12.239  22.230  0.00  0.00    +0.000 A 
ATOM     17  C   UNL     1      -1.853  12.529  21.637  0.00  0.00    +0.000 A 
ATOM     18  F   UNL     1      -2.716  13.327  22.281  0.00  0.00    +0.000 F 
ATOM     19  C   UNL     1      -2.165  11.994  20.393  0.00  0.00    +0.000 A 
ATOM     20 CL   UNL     1      -3.672  12.346  19.638  0.00  0.00    +0.000 Cl
ATOM     21  C   UNL     1      -1.246  11.169  19.737  0.00  0.00    +0.000 A 
ENDBRANCH  12  14
ENDBRANCH   5   9
BRANCH   1  22
ATOM     22  S   UNL     1       6.916   4.686  15.833  0.00  0.00    +0.000 S 
ATOM     23  O   UNL     1       7.635   5.797  15.248  0.00  0.00    +0.000 OA
ATOM     24  O   UNL     1       6.565   3.509  15.076  0.00  0.00    +0.000 OA
BRANCH  22  25
ATOM     25  N   UNL     1       7.850   4.147  17.118  0.00  0.00    +0.000 NA
ATOM     26  H   UNL     1       7.353   4.294  17.997  0.00  0.00    +0.000 HD
ATOM     27  H   UNL     1       8.776   4.575  17.095  0.00  0.00    +0.000 HD
ENDBRANCH  22  25
ENDBRANCH   1  22
TORSDOF 4
ENDMDL
MODEL 7
REMARK VINA RESULT:      -7.3      3.735      4.432
REMARK  Name = 
REMARK  4 active torsions:
REMARK  status: ('A' for Active; 'I' for Inactive)
REMARK    1  A    between atoms: N_1  and  S_2
REMARK    2  A    between atoms: S_2  and  C_5
REMARK    3  A    between atoms: N_9  and  C_10
REMARK    4  A    between atoms: N_13  and  C_14
REMARK                            x       y       z     vdW  Elec       q    Type
REMARK                         _______ _______ _______ _____ _____    ______ ____
ROOT
ATOM      1  C   UNL     1       3.653   4.874  18.706  0.00  0.00    +0.000 A 
ATOM      2  C   UNL     1       4.409   5.505  17.723  0.00  0.00    +0.000 A 
ATOM      3  C   UNL     1       4.126   6.830  17.409  0.00  0.00    +0.000 A 
ATOM      4  C   UNL     1       3.107   7.494  18.092  0.00  0.00    +0.000 A 
ATOM      5  N   UNL     1       2.755   8.785  17.669  0.00  0.00    +0.000 N 
ATOM      6  N   UNL     1       2.404   6.888  19.074  0.00  0.00    +0.000 NA
ATOM      7  C   UNL     1       2.688   5.597  19.369  0.00  0.00    +0.000 A 
ATOM      8  H   UNL     1       3.582   9.370  17.604  0.00  0.00    +0.000 HD
ENDROOT
BRANCH   5   9
ATOM      9  C   UNL     1       1.671   9.397  18.441  0.00  0.00    +0.000 C 
ATOM     10  C   UNL     1       1.787  10.913  18.501  0.00  0.00    +0.000 C 
ATOM     11  C   UNL     1       0.393  11.313  18.971  0.00  0.00    +0.000 C 
ATOM     12  N   UNL     1      -0.485  10.375  18.264  0.00  0.00    +0.000 N 
ATOM     13  C   UNL     1       0.288   9.221  17.778  0.00  0.00    +0.000 C 
BRANCH  12  14
ATOM     14  C   UNL     1      -1.754  10.689  17.844  0.00  0.00    +0.000 A 
ATOM     15  C   UNL     1      -2.641  11.416  18.661  0.00  0.00    +0.000 A 
ATOM     16  C   UNL     1      -3.924  11.770  18.231  0.00  0.00    +0.000 A 
ATOM     17  C   UNL     1      -4.352  11.393  16.968  0.00  0.00    +0.000 A 
ATOM     18  F   UNL     1      -5.579  11.749  16.564  0.00  0.00    +0.000 F 
ATOM     19  C   UNL     1      -3.513  10.655  16.142  0.00  0.00    +0.000 A 
ATOM     20 CL   UNL     1      -4.026  10.180  14.567  0.00  0.00    +0.000 Cl
ATOM     21  C   UNL     1      -2.235  10.299  16.583  0.00  0.00    +0.000 A 
ENDBRANCH  12  14
ENDBRANCH   5   9
BRANCH   1  22
ATOM     22  S   UNL     1       3.936   3.195  19.119  0.00  0.00    +0.000 S 
ATOM     23  O   UNL     1       5.250   3.063  19.710  0.00  0.00    +0.000 OA
ATOM     24  O   UNL     1       3.490   2.360  18.030  0.00  0.00    +0.000 OA
BRANCH  22  25
ATOM     25  N   UNL     1       2.836   2.958  20.363  0.00  0.00    +0.000 NA
ATOM     26  H   UNL     1       2.716   1.959  20.537  0.00  0.00    +0.000 HD
ATOM     27  H   UNL     1       1.962   3.447  20.169  0.00  0.00    +0.000 HD
ENDBRANCH  22  25
ENDBRANCH   1  22
TORSDOF 4
ENDMDL
MODEL 8
REMARK VINA RESULT:      -7.2      1.128      1.577
REMARK  Name = 
REMARK  4 active torsions:
REMARK  status: ('A' for Active; 'I' for Inactive)
REMARK    1  A    between atoms: N_1  and  S_2
REMARK    2  A    between atoms: S_2  and  C_5
REMARK    3  A    between atoms: N_9  and  C_10
REMARK    4  A    between atoms: N_13  and  C_14
REMARK                            x       y       z     vdW  Elec       q    Type
REMARK                         _______ _______ _______ _____ _____    ______ ____
ROOT
ATOM      1  C   UNL     1       5.568   5.268  16.936  0.00  0.00    +0.000 A 
ATOM      2  C   UNL     1       4.664   4.390  17.526  0.00  0.00    +0.000 A 
ATOM      3  C   UNL     1       3.559   4.914  18.191  0.00  0.00    +0.000 A 
ATOM      4  C   UNL     1       3.380   6.296  18.236  0.00  0.00    +0.000 A 
ATOM      5  N   UNL     1       2.331   6.804  19.020  0.00  0.00    +0.000 N 
ATOM      6  N   UNL     1       4.239   7.140  17.626  0.00  0.00    +0.000 NA
ATOM      7  C   UNL     1       5.311   6.618  16.984  0.00  0.00    +0.000 A 
ATOM      8  H   UNL     1       1.461   6.337  18.785  0.00  0.00    +0.000 HD
ENDROOT
BRANCH   5   9
ATOM      9  C   UNL     1       2.227   8.265  19.012  0.00  0.00    +0.000 C 
ATOM     10  C   UNL     1       1.728   8.802  17.677  0.00  0.00    +0.000 C 
ATOM     11  C   UNL     1       1.327  10.225  18.046  0.00  0.00    +0.000 C 
ATOM     12  N   UNL     1       0.739  10.077  19.381  0.00  0.00    +0.000 N 
ATOM     13  C   UNL     1       1.148   8.796  19.979  0.00  0.00    +0.000 C 
BRANCH  12  14
ATOM     14  C   UNL     1      -0.288  10.858  19.852  0.00  0.00    +0.000 A 
ATOM     15  C   UNL     1      -1.297  11.342  18.997  0.00  0.00    +0.000 A 
ATOM     16  C   UNL     1      -2.364  12.110  19.471  0.00  0.00    +0.000 A 
ATOM     17  C   UNL     1      -2.441  12.420  20.819  0.00  0.00    +0.000 A 
ATOM     18  F   UNL     1      -3.477  13.147  21.262  0.00  0.00    +0.000 F 
ATOM     19  C   UNL     1      -1.452  11.980  21.690  0.00  0.00    +0.000 A 
ATOM     20 CL   UNL     1      -1.531  12.353  23.370  0.00  0.00    +0.000 Cl
ATOM     21  C   UNL     1      -0.384  11.218  21.207  0.00  0.00    +0.000 A 
ENDBRANCH  12  14
ENDBRANCH   5   9
BRANCH   1  22
ATOM     22  S   UNL     1       6.998   4.671  16.119  0.00  0.00    +0.000 S 
ATOM     23  O   UNL     1       7.955   4.214  17.103  0.00  0.00    +0.000 OA
ATOM     24  O   UNL     1       7.353   5.585  15.061  0.00  0.00    +0.000 OA
BRANCH  22  25
ATOM     25  N   UNL     1       6.411   3.294  15.361  0.00  0.00    +0.000 NA
ATOM     26  H   UNL     1       5.630   2.909  15.892  0.00  0.00    +0.000 HD
ATOM     27  H   UNL     1       7.163   2.624  15.197  0.00  0.00    +0.000 HD
ENDBRANCH  22  25
ENDBRANCH   1  22
TORSDOF 4
ENDMDL
MODEL 9
REMARK VINA RESULT:      -7.2      3.848      4.541
REMARK  Name = 
REMARK  4 active torsions:
REMARK  status: ('A' for Active; 'I' for Inactive)
REMARK    1  A    between atoms: N_1  and  S_2
REMARK    2  A    between atoms: S_2  and  C_5
REMARK    3  A    between atoms: N_9  and  C_10
REMARK    4  A    between atoms: N_13  and  C_14
REMARK                            x       y       z     vdW  Elec       q    Type
REMARK                         _______ _______ _______ _____ _____    ______ ____
ROOT
ATOM      1  C   UNL     1       3.170   4.201  19.239  0.00  0.00    +0.000 A 
ATOM      2  C   UNL     1       3.938   4.557  18.135  0.00  0.00    +0.000 A 
ATOM      3  C   UNL     1       3.840   5.855  17.643  0.00  0.00    +0.000 A 
ATOM      4  C   UNL     1       2.992   6.764  18.273  0.00  0.00    +0.000 A 
ATOM      5  N   UNL     1       2.812   8.026  17.683  0.00  0.00    +0.000 N 
ATOM      6  N   UNL     1       2.281   6.424  19.370  0.00  0.00    +0.000 NA
ATOM      7  C   UNL     1       2.383   5.158  19.838  0.00  0.00    +0.000 A 
ATOM      8  H   UNL     1       3.713   8.452  17.488  0.00  0.00    +0.000 HD
ENDROOT
BRANCH   5   9
ATOM      9  C   UNL     1       1.899   8.908  18.412  0.00  0.00    +0.000 C 
ATOM     10  C   UNL     1       2.189  10.380  18.158  0.00  0.00    +0.000 C 
ATOM     11  C   UNL     1       0.911  11.040  18.663  0.00  0.00    +0.000 C 
ATOM     12  N   UNL     1      -0.141  10.110  18.240  0.00  0.00    +0.000 N 
ATOM     13  C   UNL     1       0.438   8.794  17.926  0.00  0.00    +0.000 C 
BRANCH  12  14
ATOM     14  C   UNL     1      -1.407  10.504  17.882  0.00  0.00    +0.000 A 
ATOM     15  C   UNL     1      -2.196  11.305  18.731  0.00  0.00    +0.000 A 
ATOM     16  C   UNL     1      -3.473  11.739  18.363  0.00  0.00    +0.000 A 
ATOM     17  C   UNL     1      -3.996  11.370  17.133  0.00  0.00    +0.000 A 
ATOM     18  F   UNL     1      -5.216  11.804  16.788  0.00  0.00    +0.000 F 
ATOM     19  C   UNL     1      -3.256  10.562  16.279  0.00  0.00    +0.000 A 
ATOM     20 CL   UNL     1      -3.886  10.096  14.745  0.00  0.00    +0.000 Cl
ATOM     21  C   UNL     1      -1.982  10.126  16.657  0.00  0.00    +0.000 A 
ENDBRANCH  12  14
ENDBRANCH   5   9
BRANCH   1  22
ATOM     22  S   UNL     1       3.220   2.572  19.881  0.00  0.00    +0.000 S 
ATOM     23  O   UNL     1       2.738   2.581  21.246  0.00  0.00    +0.000 OA
ATOM     24  O   UNL     1       4.469   1.955  19.507  0.00  0.00    +0.000 OA
BRANCH  22  25
ATOM     25  N   UNL     1       2.037   1.807  18.971  0.00  0.00    +0.000 NA
ATOM     26  H   UNL     1       1.662   1.009  19.484  0.00  0.00    +0.000 HD
ATOM     27  H   UNL     1       2.393   1.567  18.045  0.00  0.00    +0.000 HD
ENDBRANCH  22  25
ENDBRANCH   1  22
TORSDOF 4
ENDMDL
