MODEL 1
REMARK VINA RESULT:      -6.2      0.000      0.000
REMARK  Name = 
REMARK  12 active torsions:
REMARK  status: ('A' for Active; 'I' for Inactive)
REMARK    1  A    between atoms: C_1  and  C_2
REMARK    2  A    between atoms: C_5  and  S_6
REMARK    3  A    between atoms: S_6  and  N_9
REMARK    4  A    between atoms: N_9  and  C_10
REMARK    5  A    between atoms: C_11  and  C_12
REMARK    6  A    between atoms: N_14  and  C_15
REMARK    7  A    between atoms: C_15  and  C_16
REMARK    8  A    between atoms: C_16  and  C_17
REMARK    9  A    between atoms: C_16  and  C_18
REMARK   10  A    between atoms: C_16  and  C_19
REMARK   11  A    between atoms: C_20  and  C_21
REMARK   12  A    between atoms: N_23  and  C_24
REMARK                            x       y       z     vdW  Elec       q    Type
REMARK                         _______ _______ _______ _____ _____    ______ ____
ROOT
ATOM      1  C   UNL     1       0.450  11.510  20.166  0.00  0.00    +0.000 A 
ATOM      2  C   UNL     1       0.557  10.124  20.081  0.00  0.00    +0.000 A 
ATOM      3  C   UNL     1      -0.139   9.651  21.218  0.00  0.00    +0.000 A 
ATOM      4  C   UNL     1      -0.344   8.274  21.760  0.00  0.00    +0.000 C 
ATOM      5  N   UNL     1      -0.683  10.644  21.915  0.00  0.00    +0.000 NA
ATOM      6  N   UNL     1      -0.406  11.779  21.239  0.00  0.00    +0.000 N 
ENDROOT
BRANCH   6   7
ATOM      7  C   UNL     1      -1.114  12.957  21.617  0.00  0.00    +0.000 A 
ATOM      8  C   UNL     1      -2.097  13.454  20.733  0.00  0.00    +0.000 A 
ATOM      9  C   UNL     1      -2.775  14.642  21.003  0.00  0.00    +0.000 A 
ATOM     10  C   UNL     1      -2.490  15.346  22.167  0.00  0.00    +0.000 A 
ATOM     11  C   UNL     1      -1.522  14.865  23.048  0.00  0.00    +0.000 A 
ATOM     12  C   UNL     1      -0.825  13.680  22.775  0.00  0.00    +0.000 A 
ENDBRANCH   6   7
BRANCH   2  13
ATOM     13  C   UNL     1       1.336   9.396  19.092  0.00  0.00    +0.000 C 
ATOM     14  O   UNL     1       1.542   9.875  17.982  0.00  0.00    +0.000 OA
ATOM     15  N   UNL     1       1.760   8.150  19.484  0.00  0.00    +0.000 N 
ATOM     16  H   UNL     1       1.233   7.695  20.218  0.00  0.00    +0.000 HD
BRANCH  15  17
ATOM     17  C   UNL     1       2.619   7.304  18.670  0.00  0.00    +0.000 C 
BRANCH  17  18
ATOM     18  C   UNL     1       2.706   5.839  19.179  0.00  0.00    +0.000 C 
ATOM     19  C   UNL     1       1.885   5.645  20.467  0.00  0.00    +0.000 C 
ATOM     20  C   UNL     1       2.136   4.905  18.094  0.00  0.00    +0.000 C 
ATOM     21  C   UNL     1       4.164   5.422  19.441  0.00  0.00    +0.000 C 
ENDBRANCH  17  18
ENDBRANCH  15  17
ENDBRANCH   2  13
BRANCH   1  22
ATOM     22  N   UNL     1       1.076  12.382  19.270  0.00  0.00    +0.000 N 
ATOM     23  H   UNL     1       1.271  12.016  18.350  0.00  0.00    +0.000 HD
BRANCH  22  24
ATOM     24  S   UNL     1       2.230  13.440  19.791  0.00  0.00    +0.000 S 
ATOM     25  O   UNL     1       3.251  13.619  18.777  0.00  0.00    +0.000 OA
ATOM     26  O   UNL     1       2.610  13.127  21.152  0.00  0.00    +0.000 OA
BRANCH  24  31
ATOM     27  C   UNL     1      -0.982  18.617  20.114  0.00  0.00    +0.000 C 
ATOM     28  C   UNL     1      -0.182  17.347  20.026  0.00  0.00    +0.000 A 
ATOM     29  C   UNL     1      -0.354  16.461  18.954  0.00  0.00    +0.000 A 
ATOM     30  C   UNL     1       0.383  15.275  18.888  0.00  0.00    +0.000 A 
ATOM     31  C   UNL     1       1.307  14.975  19.897  0.00  0.00    +0.000 A 
ATOM     32  C   UNL     1       1.484  15.845  20.975  0.00  0.00    +0.000 A 
ATOM     33  C   UNL     1       0.737  17.028  21.036  0.00  0.00    +0.000 A 
ENDBRANCH  24  31
ENDBRANCH  22  24
ENDBRANCH   1  22
TORSDOF 7
ENDMDL
MODEL 2
REMARK VINA RESULT:      -6.1      2.463      4.261
REMARK  Name = 
REMARK  12 active torsions:
REMARK  status: ('A' for Active; 'I' for Inactive)
REMARK    1  A    between atoms: C_1  and  C_2
REMARK    2  A    between atoms: C_5  and  S_6
REMARK    3  A    between atoms: S_6  and  N_9
REMARK    4  A    between atoms: N_9  and  C_10
REMARK    5  A    between atoms: C_11  and  C_12
REMARK    6  A    between atoms: N_14  and  C_15
REMARK    7  A    between atoms: C_15  and  C_16
REMARK    8  A    between atoms: C_16  and  C_17
REMARK    9  A    between atoms: C_16  and  C_18
REMARK   10  A    between atoms: C_16  and  C_19
REMARK   11  A    between atoms: C_20  and  C_21
REMARK   12  A    between atoms: N_23  and  C_24
REMARK                            x       y       z     vdW  Elec       q    Type
REMARK                         _______ _______ _______ _____ _____    ______ ____
ROOT
ATOM      1  C   UNL     1       0.883   9.356  19.662  0.00  0.00    +0.000 A 
ATOM      2  C   UNL     1       1.715   8.267  19.415  0.00  0.00    +0.000 A 
ATOM      3  C   UNL     1       2.404   8.618  18.230  0.00  0.00    +0.000 A 
ATOM      4  C   UNL     1       3.387   7.870  17.390  0.00  0.00    +0.000 C 
ATOM      5  N   UNL     1       2.079   9.836  17.810  0.00  0.00    +0.000 NA
ATOM      6  N   UNL     1       1.216  10.335  18.720  0.00  0.00    +0.000 N 
ENDROOT
BRANCH   6   7
ATOM      7  C   UNL     1       0.932  11.731  18.660  0.00  0.00    +0.000 A 
ATOM      8  C   UNL     1       1.992  12.635  18.894  0.00  0.00    +0.000 A 
ATOM      9  C   UNL     1       1.771  14.011  18.924  0.00  0.00    +0.000 A 
ATOM     10  C   UNL     1       0.492  14.506  18.709  0.00  0.00    +0.000 A 
ATOM     11  C   UNL     1      -0.563  13.624  18.477  0.00  0.00    +0.000 A 
ATOM     12  C   UNL     1      -0.352  12.238  18.461  0.00  0.00    +0.000 A 
ENDBRANCH   6   7
BRANCH   2  13
ATOM     13  C   UNL     1       1.728   7.025  20.171  0.00  0.00    +0.000 C 
ATOM     14  O   UNL     1       0.959   6.857  21.111  0.00  0.00    +0.000 OA
ATOM     15  N   UNL     1       2.679   6.114  19.781  0.00  0.00    +0.000 N 
ATOM     16  H   UNL     1       3.490   6.474  19.296  0.00  0.00    +0.000 HD
BRANCH  15  17
ATOM     17  C   UNL     1       2.796   4.784  20.358  0.00  0.00    +0.000 C 
BRANCH  17  18
ATOM     18  C   UNL     1       2.157   3.671  19.481  0.00  0.00    +0.000 C 
ATOM     19  C   UNL     1       3.082   2.445  19.374  0.00  0.00    +0.000 C 
ATOM     20  C   UNL     1       0.835   3.226  20.135  0.00  0.00    +0.000 C 
ATOM     21  C   UNL     1       1.834   4.187  18.068  0.00  0.00    +0.000 C 
ENDBRANCH  17  18
ENDBRANCH  15  17
ENDBRANCH   2  13
BRANCH   1  22
ATOM     22  N   UNL     1      -0.043   9.389  20.710  0.00  0.00    +0.000 N 
ATOM     23  H   UNL     1      -0.984   9.662  20.469  0.00  0.00    +0.000 HD
BRANCH  22  24
ATOM     24  S   UNL     1       0.403   9.902  22.213  0.00  0.00    +0.000 S 
ATOM     25  O   UNL     1       1.800  10.291  22.223  0.00  0.00    +0.000 OA
ATOM     26  O   UNL     1      -0.100   8.990  23.218  0.00  0.00    +0.000 OA
BRANCH  24  31
ATOM     27  C   UNL     1      -2.934  14.958  22.931  0.00  0.00    +0.000 C 
ATOM     28  C   UNL     1      -2.119  13.709  22.742  0.00  0.00    +0.000 A 
ATOM     29  C   UNL     1      -2.598  12.466  23.176  0.00  0.00    +0.000 A 
ATOM     30  C   UNL     1      -1.826  11.311  23.012  0.00  0.00    +0.000 A 
ATOM     31  C   UNL     1      -0.569  11.399  22.400  0.00  0.00    +0.000 A 
ATOM     32  C   UNL     1      -0.076  12.632  21.970  0.00  0.00    +0.000 A 
ATOM     33  C   UNL     1      -0.852  13.784  22.144  0.00  0.00    +0.000 A 
ENDBRANCH  24  31
ENDBRANCH  22  24
ENDBRANCH   1  22
TORSDOF 7
ENDMDL
MODEL 3
REMARK VINA RESULT:      -6.1      3.223      7.769
REMARK  Name = 
REMARK  12 active torsions:
REMARK  status: ('A' for Active; 'I' for Inactive)
REMARK    1  A    between atoms: C_1  and  C_2
REMARK    2  A    between atoms: C_5  and  S_6
REMARK    3  A    between atoms: S_6  and  N_9
REMARK    4  A    between atoms: N_9  and  C_10
REMARK    5  A    between atoms: C_11  and  C_12
REMARK    6  A    between atoms: N_14  and  C_15
REMARK    7  A    between atoms: C_15  and  C_16
REMARK    8  A    between atoms: C_16  and  C_17
REMARK    9  A    between atoms: C_16  and  C_18
REMARK   10  A    between atoms: C_16  and  C_19
REMARK   11  A    between atoms: C_20  and  C_21
REMARK   12  A    between atoms: N_23  and  C_24
REMARK                            x       y       z     vdW  Elec       q    Type
REMARK                         _______ _______ _______ _____ _____    ______ ____
ROOT
ATOM      1  C   UNL     1      -2.896  12.174  20.780  0.00  0.00    +0.000 A 
ATOM      2  C   UNL     1      -3.775  12.759  21.688  0.00  0.00    +0.000 A 
ATOM      3  C   UNL     1      -4.847  13.219  20.887  0.00  0.00    +0.000 A 
ATOM      4  C   UNL     1      -6.079  13.994  21.220  0.00  0.00    +0.000 C 
ATOM      5  N   UNL     1      -4.682  12.899  19.607  0.00  0.00    +0.000 NA
ATOM      6  N   UNL     1      -3.539  12.185  19.538  0.00  0.00    +0.000 N 
ENDROOT
BRANCH   6   7
ATOM      7  C   UNL     1      -3.278  11.479  18.327  0.00  0.00    +0.000 A 
ATOM      8  C   UNL     1      -4.180  11.646  17.253  0.00  0.00    +0.000 A 
ATOM      9  C   UNL     1      -4.029  10.930  16.067  0.00  0.00    +0.000 A 
ATOM     10  C   UNL     1      -2.968  10.044  15.930  0.00  0.00    +0.000 A 
ATOM     11  C   UNL     1      -2.069   9.871  16.984  0.00  0.00    +0.000 A 
ATOM     12  C   UNL     1      -2.225  10.575  18.185  0.00  0.00    +0.000 A 
ENDBRANCH   6   7
BRANCH   2  13
ATOM     13  C   UNL     1      -3.526  12.939  23.109  0.00  0.00    +0.000 C 
ATOM     14  O   UNL     1      -3.439  11.971  23.856  0.00  0.00    +0.000 OA
ATOM     15  N   UNL     1      -3.450  14.245  23.527  0.00  0.00    +0.000 N 
ATOM     16  H   UNL     1      -3.910  14.939  22.955  0.00  0.00    +0.000 HD
BRANCH  15  17
ATOM     17  C   UNL     1      -3.125  14.630  24.892  0.00  0.00    +0.000 C 
BRANCH  17  18
ATOM     18  C   UNL     1      -2.099  15.794  24.979  0.00  0.00    +0.000 C 
ATOM     19  C   UNL     1      -2.808  17.158  25.069  0.00  0.00    +0.000 C 
ATOM     20  C   UNL     1      -1.245  15.606  26.247  0.00  0.00    +0.000 C 
ATOM     21  C   UNL     1      -1.150  15.796  23.768  0.00  0.00    +0.000 C 
ENDBRANCH  17  18
ENDBRANCH  15  17
ENDBRANCH   2  13
BRANCH   1  22
ATOM     22  N   UNL     1      -1.649  11.657  21.147  0.00  0.00    +0.000 N 
ATOM     23  H   UNL     1      -1.588  11.244  22.065  0.00  0.00    +0.000 HD
BRANCH  22  24
ATOM     24  S   UNL     1      -0.256  12.419  20.697  0.00  0.00    +0.000 S 
ATOM     25  O   UNL     1       0.522  12.785  21.865  0.00  0.00    +0.000 OA
ATOM     26  O   UNL     1      -0.538  13.407  19.678  0.00  0.00    +0.000 OA
BRANCH  24  31
ATOM     27  C   UNL     1       2.692   7.895  17.858  0.00  0.00    +0.000 C 
ATOM     28  C   UNL     1       1.977   9.011  18.566  0.00  0.00    +0.000 A 
ATOM     29  C   UNL     1       1.302   8.782  19.773  0.00  0.00    +0.000 A 
ATOM     30  C   UNL     1       0.626   9.823  20.417  0.00  0.00    +0.000 A 
ATOM     31  C   UNL     1       0.631  11.106  19.855  0.00  0.00    +0.000 A 
ATOM     32  C   UNL     1       1.292  11.347  18.648  0.00  0.00    +0.000 A 
ATOM     33  C   UNL     1       1.961  10.298  18.008  0.00  0.00    +0.000 A 
ENDBRANCH  24  31
ENDBRANCH  22  24
ENDBRANCH   1  22
TORSDOF 7
ENDMDL
MODEL 4
REMARK VINA RESULT:      -6.1      2.462      4.148
REMARK  Name = 
REMARK  12 active torsions:
REMARK  status: ('A' for Active; 'I' for Inactive)
REMARK    1  A    between atoms: C_1  and  C_2
REMARK    2  A    between atoms: C_5  and  S_6
REMARK    3  A    between atoms: S_6  and  N_9
REMARK    4  A    between atoms: N_9  and  C_10
REMARK    5  A    between atoms: C_11  and  C_12
REMARK    6  A    between atoms: N_14  and  C_15
REMARK    7  A    between atoms: C_15  and  C_16
REMARK    8  A    between atoms: C_16  and  C_17
REMARK    9  A    between atoms: C_16  and  C_18
REMARK   10  A    between atoms: C_16  and  C_19
REMARK   11  A    between atoms: C_20  and  C_21
REMARK   12  A    between atoms: N_23  and  C_24
REMARK                            x       y       z     vdW  Elec       q    Type
REMARK                         _______ _______ _______ _____ _____    ______ ____
ROOT
ATOM      1  C   UNL     1       0.956   9.183  19.595  0.00  0.00    +0.000 A 
ATOM      2  C   UNL     1       1.836   8.136  19.334  0.00  0.00    +0.000 A 
ATOM      3  C   UNL     1       2.517   8.538  18.161  0.00  0.00    +0.000 A 
ATOM      4  C   UNL     1       3.537   7.848  17.315  0.00  0.00    +0.000 C 
ATOM      5  N   UNL     1       2.143   9.748  17.761  0.00  0.00    +0.000 NA
ATOM      6  N   UNL     1       1.253  10.192  18.673  0.00  0.00    +0.000 N 
ENDROOT
BRANCH   6   7
ATOM      7  C   UNL     1       0.910  11.576  18.636  0.00  0.00    +0.000 A 
ATOM      8  C   UNL     1      -0.439  11.920  18.397  0.00  0.00    +0.000 A 
ATOM      9  C   UNL     1      -0.832  13.251  18.273  0.00  0.00    +0.000 A 
ATOM     10  C   UNL     1       0.113  14.261  18.399  0.00  0.00    +0.000 A 
ATOM     11  C   UNL     1       1.449  13.934  18.636  0.00  0.00    +0.000 A 
ATOM     12  C   UNL     1       1.854  12.597  18.745  0.00  0.00    +0.000 A 
ENDBRANCH   6   7
BRANCH   2  13
ATOM     13  C   UNL     1       1.897   6.881  20.068  0.00  0.00    +0.000 C 
ATOM     14  O   UNL     1       1.255   6.730  21.101  0.00  0.00    +0.000 OA
ATOM     15  N   UNL     1       2.746   5.939  19.543  0.00  0.00    +0.000 N 
ATOM     16  H   UNL     1       3.498   6.273  18.956  0.00  0.00    +0.000 HD
BRANCH  15  17
ATOM     17  C   UNL     1       2.882   4.595  20.083  0.00  0.00    +0.000 C 
BRANCH  17  18
ATOM     18  C   UNL     1       2.060   3.529  19.307  0.00  0.00    +0.000 C 
ATOM     19  C   UNL     1       2.849   2.216  19.156  0.00  0.00    +0.000 C 
ATOM     20  C   UNL     1       0.769   3.233  20.093  0.00  0.00    +0.000 C 
ATOM     21  C   UNL     1       1.656   4.040  17.912  0.00  0.00    +0.000 C 
ENDBRANCH  17  18
ENDBRANCH  15  17
ENDBRANCH   2  13
BRANCH   1  22
ATOM     22  N   UNL     1       0.022   9.157  20.635  0.00  0.00    +0.000 N 
ATOM     23  H   UNL     1      -0.946   9.270  20.373  0.00  0.00    +0.000 HD
BRANCH  22  24
ATOM     24  S   UNL     1       0.370   9.840  22.097  0.00  0.00    +0.000 S 
ATOM     25  O   UNL     1       1.792  10.100  22.211  0.00  0.00    +0.000 OA
ATOM     26  O   UNL     1      -0.323   9.131  23.152  0.00  0.00    +0.000 OA
BRANCH  24  31
ATOM     27  C   UNL     1      -2.362  15.275  21.620  0.00  0.00    +0.000 C 
ATOM     28  C   UNL     1      -1.689  13.937  21.751  0.00  0.00    +0.000 A 
ATOM     29  C   UNL     1      -0.301  13.844  21.924  0.00  0.00    +0.000 A 
ATOM     30  C   UNL     1       0.319  12.595  22.030  0.00  0.00    +0.000 A 
ATOM     31  C   UNL     1      -0.455  11.429  21.971  0.00  0.00    +0.000 A 
ATOM     32  C   UNL     1      -1.838  11.506  21.790  0.00  0.00    +0.000 A 
ATOM     33  C   UNL     1      -2.449  12.760  21.680  0.00  0.00    +0.000 A 
ENDBRANCH  24  31
ENDBRANCH  22  24
ENDBRANCH   1  22
TORSDOF 7
ENDMDL
MODEL 5
REMARK VINA RESULT:      -6.1      2.467      4.203
REMARK  Name = 
REMARK  12 active torsions:
REMARK  status: ('A' for Active; 'I' for Inactive)
REMARK    1  A    between atoms: C_1  and  C_2
REMARK    2  A    between atoms: C_5  and  S_6
REMARK    3  A    between atoms: S_6  and  N_9
REMARK    4  A    between atoms: N_9  and  C_10
REMARK    5  A    between atoms: C_11  and  C_12
REMARK    6  A    between atoms: N_14  and  C_15
REMARK    7  A    between atoms: C_15  and  C_16
REMARK    8  A    between atoms: C_16  and  C_17
REMARK    9  A    between atoms: C_16  and  C_18
REMARK   10  A    between atoms: C_16  and  C_19
REMARK   11  A    between atoms: C_20  and  C_21
REMARK   12  A    between atoms: N_23  and  C_24
REMARK                            x       y       z     vdW  Elec       q    Type
REMARK                         _______ _______ _______ _____ _____    ______ ____
ROOT
ATOM      1  C   UNL     1       0.871   9.328  19.671  0.00  0.00    +0.000 A 
ATOM      2  C   UNL     1       1.725   8.257  19.423  0.00  0.00    +0.000 A 
ATOM      3  C   UNL     1       2.392   8.613  18.228  0.00  0.00    +0.000 A 
ATOM      4  C   UNL     1       3.382   7.880  17.382  0.00  0.00    +0.000 C 
ATOM      5  N   UNL     1       2.033   9.819  17.801  0.00  0.00    +0.000 NA
ATOM      6  N   UNL     1       1.170  10.306  18.717  0.00  0.00    +0.000 N 
ENDROOT
BRANCH   6   7
ATOM      7  C   UNL     1       0.854  11.694  18.648  0.00  0.00    +0.000 A 
ATOM      8  C   UNL     1       1.897  12.625  18.853  0.00  0.00    +0.000 A 
ATOM      9  C   UNL     1       1.646  13.995  18.874  0.00  0.00    +0.000 A 
ATOM     10  C   UNL     1       0.351  14.459  18.678  0.00  0.00    +0.000 A 
ATOM     11  C   UNL     1      -0.688  13.551  18.474  0.00  0.00    +0.000 A 
ATOM     12  C   UNL     1      -0.445  12.171  18.468  0.00  0.00    +0.000 A 
ENDBRANCH   6   7
BRANCH   2  13
ATOM     13  C   UNL     1       1.775   7.022  20.190  0.00  0.00    +0.000 C 
ATOM     14  O   UNL     1       1.024   6.846  21.143  0.00  0.00    +0.000 OA
ATOM     15  N   UNL     1       2.740   6.127  19.794  0.00  0.00    +0.000 N 
ATOM     16  H   UNL     1       3.535   6.500  19.293  0.00  0.00    +0.000 HD
BRANCH  15  17
ATOM     17  C   UNL     1       2.893   4.805  20.380  0.00  0.00    +0.000 C 
BRANCH  17  18
ATOM     18  C   UNL     1       2.232   3.676  19.542  0.00  0.00    +0.000 C 
ATOM     19  C   UNL     1       0.833   3.326  20.082  0.00  0.00    +0.000 C 
ATOM     20  C   UNL     1       2.083   4.163  18.088  0.00  0.00    +0.000 C 
ATOM     21  C   UNL     1       3.102   2.407  19.527  0.00  0.00    +0.000 C 
ENDBRANCH  17  18
ENDBRANCH  15  17
ENDBRANCH   2  13
BRANCH   1  22
ATOM     22  N   UNL     1      -0.043   9.349  20.729  0.00  0.00    +0.000 N 
ATOM     23  H   UNL     1      -0.992   9.602  20.498  0.00  0.00    +0.000 HD
BRANCH  22  24
ATOM     24  S   UNL     1       0.410   9.880  22.224  0.00  0.00    +0.000 S 
ATOM     25  O   UNL     1       1.805  10.278  22.221  0.00  0.00    +0.000 OA
ATOM     26  O   UNL     1      -0.080   8.975  23.242  0.00  0.00    +0.000 OA
BRANCH  24  31
ATOM     27  C   UNL     1      -2.890  14.984  22.751  0.00  0.00    +0.000 C 
ATOM     28  C   UNL     1      -2.070  13.729  22.633  0.00  0.00    +0.000 A 
ATOM     29  C   UNL     1      -0.778  13.763  22.092  0.00  0.00    +0.000 A 
ATOM     30  C   UNL     1      -0.028  12.589  21.971  0.00  0.00    +0.000 A 
ATOM     31  C   UNL     1      -0.571  11.372  22.403  0.00  0.00    +0.000 A 
ATOM     32  C   UNL     1      -1.860  11.322  22.938  0.00  0.00    +0.000 A 
ATOM     33  C   UNL     1      -2.606  12.501  23.049  0.00  0.00    +0.000 A 
ENDBRANCH  24  31
ENDBRANCH  22  24
ENDBRANCH   1  22
TORSDOF 7
ENDMDL
MODEL 6
REMARK VINA RESULT:      -6.0      2.406      4.404
REMARK  Name = 
REMARK  12 active torsions:
REMARK  status: ('A' for Active; 'I' for Inactive)
REMARK    1  A    between atoms: C_1  and  C_2
REMARK    2  A    between atoms: C_5  and  S_6
REMARK    3  A    between atoms: S_6  and  N_9
REMARK    4  A    between atoms: N_9  and  C_10
REMARK    5  A    between atoms: C_11  and  C_12
REMARK    6  A    between atoms: N_14  and  C_15
REMARK    7  A    between atoms: C_15  and  C_16
REMARK    8  A    between atoms: C_16  and  C_17
REMARK    9  A    between atoms: C_16  and  C_18
REMARK   10  A    between atoms: C_16  and  C_19
REMARK   11  A    between atoms: C_20  and  C_21
REMARK   12  A    between atoms: N_23  and  C_24
REMARK                            x       y       z     vdW  Elec       q    Type
REMARK                         _______ _______ _______ _____ _____    ______ ____
ROOT
ATOM      1  C   UNL     1       0.898   9.683  19.606  0.00  0.00    +0.000 A 
ATOM      2  C   UNL     1       1.669   8.538  19.417  0.00  0.00    +0.000 A 
ATOM      3  C   UNL     1       2.403   8.804  18.237  0.00  0.00    +0.000 A 
ATOM      4  C   UNL     1       3.357   7.968  17.447  0.00  0.00    +0.000 C 
ATOM      5  N   UNL     1       2.161  10.023  17.767  0.00  0.00    +0.000 NA
ATOM      6  N   UNL     1       1.311  10.605  18.639  0.00  0.00    +0.000 N 
ENDROOT
BRANCH   6   7
ATOM      7  C   UNL     1       1.113  12.012  18.523  0.00  0.00    +0.000 A 
ATOM      8  C   UNL     1       2.250  12.850  18.582  0.00  0.00    +0.000 A 
ATOM      9  C   UNL     1       2.124  14.237  18.551  0.00  0.00    +0.000 A 
ATOM     10  C   UNL     1       0.863  14.811  18.447  0.00  0.00    +0.000 A 
ATOM     11  C   UNL     1      -0.267  13.995  18.387  0.00  0.00    +0.000 A 
ATOM     12  C   UNL     1      -0.149  12.599  18.435  0.00  0.00    +0.000 A 
ENDBRANCH   6   7
BRANCH   2  13
ATOM     13  C   UNL     1       1.590   7.325  20.216  0.00  0.00    +0.000 C 
ATOM     14  O   UNL     1       0.949   7.306  21.261  0.00  0.00    +0.000 OA
ATOM     15  N   UNL     1       2.313   6.261  19.735  0.00  0.00    +0.000 N 
ATOM     16  H   UNL     1       3.091   6.472  19.125  0.00  0.00    +0.000 HD
BRANCH  15  17
ATOM     17  C   UNL     1       2.295   4.941  20.345  0.00  0.00    +0.000 C 
BRANCH  17  18
ATOM     18  C   UNL     1       2.034   3.793  19.331  0.00  0.00    +0.000 C 
ATOM     19  C   UNL     1       3.240   2.840  19.245  0.00  0.00    +0.000 C 
ATOM     20  C   UNL     1       0.810   2.987  19.802  0.00  0.00    +0.000 C 
ATOM     21  C   UNL     1       1.723   4.345  17.929  0.00  0.00    +0.000 C 
ENDBRANCH  17  18
ENDBRANCH  15  17
ENDBRANCH   2  13
BRANCH   1  22
ATOM     22  N   UNL     1      -0.046   9.809  20.629  0.00  0.00    +0.000 N 
ATOM     23  H   UNL     1      -1.015   9.813  20.348  0.00  0.00    +0.000 HD
BRANCH  22  24
ATOM     24  S   UNL     1       0.244  10.784  21.928  0.00  0.00    +0.000 S 
ATOM     25  O   UNL     1       1.205  11.814  21.586  0.00  0.00    +0.000 OA
ATOM     26  O   UNL     1       0.437   9.982  23.117  0.00  0.00    +0.000 OA
BRANCH  24  31
ATOM     27  C   UNL     1      -5.182  13.492  22.601  0.00  0.00    +0.000 C 
ATOM     28  C   UNL     1      -3.839  12.837  22.436  0.00  0.00    +0.000 A 
ATOM     29  C   UNL     1      -3.204  12.802  21.187  0.00  0.00    +0.000 A 
ATOM     30  C   UNL     1      -1.962  12.177  21.039  0.00  0.00    +0.000 A 
ATOM     31  C   UNL     1      -1.344  11.589  22.151  0.00  0.00    +0.000 A 
ATOM     32  C   UNL     1      -1.968  11.610  23.400  0.00  0.00    +0.000 A 
ATOM     33  C   UNL     1      -3.215  12.232  23.538  0.00  0.00    +0.000 A 
ENDBRANCH  24  31
ENDBRANCH  22  24
ENDBRANCH   1  22
TORSDOF 7
ENDMDL
MODEL 7
REMARK VINA RESULT:      -6.0      3.796      6.282
REMARK  Name = 
REMARK  12 active torsions:
REMARK  status: ('A' for Active; 'I' for Inactive)
REMARK    1  A    between atoms: C_1  and  C_2
REMARK    2  A    between atoms: C_5  and  S_6
REMARK    3  A    between atoms: S_6  and  N_9
REMARK    4  A    between atoms: N_9  and  C_10
REMARK    5  A    between atoms: C_11  and  C_12
REMARK    6  A    between atoms: N_14  and  C_15
REMARK    7  A    between atoms: C_15  and  C_16
REMARK    8  A    between atoms: C_16  and  C_17
REMARK    9  A    between atoms: C_16  and  C_18
REMARK   10  A    between atoms: C_16  and  C_19
REMARK   11  A    between atoms: C_20  and  C_21
REMARK   12  A    between atoms: N_23  and  C_24
REMARK                            x       y       z     vdW  Elec       q    Type
REMARK                         _______ _______ _______ _____ _____    ______ ____
ROOT
ATOM      1  C   UNL     1      -2.465  12.732  20.144  0.00  0.00    +0.000 A 
ATOM      2  C   UNL     1      -1.533  12.093  19.329  0.00  0.00    +0.000 A 
ATOM      3  C   UNL     1      -2.308  11.212  18.539  0.00  0.00    +0.000 A 
ATOM      4  C   UNL     1      -1.925  10.192  17.517  0.00  0.00    +0.000 C 
ATOM      5  N   UNL     1      -3.607  11.332  18.792  0.00  0.00    +0.000 NA
ATOM      6  N   UNL     1      -3.727  12.317  19.707  0.00  0.00    +0.000 N 
ENDROOT
BRANCH   6   7
ATOM      7  C   UNL     1      -5.033  12.840  19.942  0.00  0.00    +0.000 A 
ATOM      8  C   UNL     1      -6.037  11.948  20.380  0.00  0.00    +0.000 A 
ATOM      9  C   UNL     1      -7.352  12.375  20.556  0.00  0.00    +0.000 A 
ATOM     10  C   UNL     1      -7.682  13.701  20.311  0.00  0.00    +0.000 A 
ATOM     11  C   UNL     1      -6.699  14.592  19.879  0.00  0.00    +0.000 A 
ATOM     12  C   UNL     1      -5.379  14.166  19.683  0.00  0.00    +0.000 A 
ENDBRANCH   6   7
BRANCH   2  13
ATOM     13  C   UNL     1      -0.090  12.248  19.415  0.00  0.00    +0.000 C 
ATOM     14  O   UNL     1       0.531  11.804  20.375  0.00  0.00    +0.000 OA
ATOM     15  N   UNL     1       0.484  12.954  18.386  0.00  0.00    +0.000 N 
ATOM     16  H   UNL     1      -0.112  13.595  17.880  0.00  0.00    +0.000 HD
BRANCH  15  17
ATOM     17  C   UNL     1       1.919  13.144  18.249  0.00  0.00    +0.000 C 
BRANCH  17  18
ATOM     18  C   UNL     1       2.403  14.553  18.694  0.00  0.00    +0.000 C 
ATOM     19  C   UNL     1       1.213  15.492  18.963  0.00  0.00    +0.000 C 
ATOM     20  C   UNL     1       3.212  14.408  19.996  0.00  0.00    +0.000 C 
ATOM     21  C   UNL     1       3.321  15.189  17.636  0.00  0.00    +0.000 C 
ENDBRANCH  17  18
ENDBRANCH  15  17
ENDBRANCH   2  13
BRANCH   1  22
ATOM     22  N   UNL     1      -2.110  13.638  21.148  0.00  0.00    +0.000 N 
ATOM     23  H   UNL     1      -1.362  14.279  20.930  0.00  0.00    +0.000 HD
BRANCH  22  24
ATOM     24  S   UNL     1      -2.114  13.182  22.734  0.00  0.00    +0.000 S 
ATOM     25  O   UNL     1      -1.279  14.070  23.520  0.00  0.00    +0.000 OA
ATOM     26  O   UNL     1      -1.942  11.749  22.838  0.00  0.00    +0.000 OA
BRANCH  24  31
ATOM     27  C   UNL     1      -7.912  14.297  24.268  0.00  0.00    +0.000 C 
ATOM     28  C   UNL     1      -6.479  14.027  23.903  0.00  0.00    +0.000 A 
ATOM     29  C   UNL     1      -5.662  15.047  23.396  0.00  0.00    +0.000 A 
ATOM     30  C   UNL     1      -4.335  14.784  23.043  0.00  0.00    +0.000 A 
ATOM     31  C   UNL     1      -3.817  13.493  23.207  0.00  0.00    +0.000 A 
ATOM     32  C   UNL     1      -4.622  12.465  23.703  0.00  0.00    +0.000 A 
ATOM     33  C   UNL     1      -5.951  12.736  24.047  0.00  0.00    +0.000 A 
ENDBRANCH  24  31
ENDBRANCH  22  24
ENDBRANCH   1  22
TORSDOF 7
ENDMDL
MODEL 8
REMARK VINA RESULT:      -6.0      1.220      1.666
REMARK  Name = 
REMARK  12 active torsions:
REMARK  status: ('A' for Active; 'I' for Inactive)
REMARK    1  A    between atoms: C_1  and  C_2
REMARK    2  A    between atoms: C_5  and  S_6
REMARK    3  A    between atoms: S_6  and  N_9
REMARK    4  A    between atoms: N_9  and  C_10
REMARK    5  A    between atoms: C_11  and  C_12
REMARK    6  A    between atoms: N_14  and  C_15
REMARK    7  A    between atoms: C_15  and  C_16
REMARK    8  A    between atoms: C_16  and  C_17
REMARK    9  A    between atoms: C_16  and  C_18
REMARK   10  A    between atoms: C_16  and  C_19
REMARK   11  A    between atoms: C_20  and  C_21
REMARK   12  A    between atoms: N_23  and  C_24
REMARK                            x       y       z     vdW  Elec       q    Type
REMARK                         _______ _______ _______ _____ _____    ______ ____
ROOT
ATOM      1  C   UNL     1       0.548  11.099  19.753  0.00  0.00    +0.000 A 
ATOM      2  C   UNL     1       0.945   9.771  19.618  0.00  0.00    +0.000 A 
ATOM      3  C   UNL     1       0.498   9.151  20.808  0.00  0.00    +0.000 A 
ATOM      4  C   UNL     1       0.660   7.760  21.329  0.00  0.00    +0.000 C 
ATOM      5  N   UNL     1      -0.168   9.997  21.587  0.00  0.00    +0.000 NA
ATOM      6  N   UNL     1      -0.222  11.168  20.919  0.00  0.00    +0.000 N 
ENDROOT
BRANCH   6   7
ATOM      7  C   UNL     1      -1.123  12.160  21.404  0.00  0.00    +0.000 A 
ATOM      8  C   UNL     1      -0.865  12.730  22.671  0.00  0.00    +0.000 A 
ATOM      9  C   UNL     1      -1.744  13.650  23.240  0.00  0.00    +0.000 A 
ATOM     10  C   UNL     1      -2.888  14.025  22.548  0.00  0.00    +0.000 A 
ATOM     11  C   UNL     1      -3.154  13.471  21.295  0.00  0.00    +0.000 A 
ATOM     12  C   UNL     1      -2.283  12.533  20.725  0.00  0.00    +0.000 A 
ENDBRANCH   6   7
BRANCH   2  13
ATOM     13  C   UNL     1       1.749   9.237  18.530  0.00  0.00    +0.000 C 
ATOM     14  O   UNL     1       1.872   9.857  17.480  0.00  0.00    +0.000 OA
ATOM     15  N   UNL     1       2.296   7.998  18.762  0.00  0.00    +0.000 N 
ATOM     16  H   UNL     1       1.838   7.415  19.449  0.00  0.00    +0.000 HD
BRANCH  15  17
ATOM     17  C   UNL     1       3.197   7.335  17.832  0.00  0.00    +0.000 C 
BRANCH  17  18
ATOM     18  C   UNL     1       3.348   5.811  18.098  0.00  0.00    +0.000 C 
ATOM     19  C   UNL     1       2.006   5.078  17.923  0.00  0.00    +0.000 C 
ATOM     20  C   UNL     1       4.354   5.231  17.085  0.00  0.00    +0.000 C 
ATOM     21  C   UNL     1       3.893   5.540  19.511  0.00  0.00    +0.000 C 
ENDBRANCH  17  18
ENDBRANCH  15  17
ENDBRANCH   2  13
BRANCH   1  22
ATOM     22  N   UNL     1       0.866  12.091  18.821  0.00  0.00    +0.000 N 
ATOM     23  H   UNL     1       0.780  11.838  17.848  0.00  0.00    +0.000 HD
BRANCH  22  24
ATOM     24  S   UNL     1       2.110  13.140  19.098  0.00  0.00    +0.000 S 
ATOM     25  O   UNL     1       3.137  12.989  18.085  0.00  0.00    +0.000 OA
ATOM     26  O   UNL     1       2.470  13.122  20.500  0.00  0.00    +0.000 OA
BRANCH  24  31
ATOM     27  C   UNL     1      -0.505  18.562  18.108  0.00  0.00    +0.000 C 
ATOM     28  C   UNL     1       0.143  17.230  18.365  0.00  0.00    +0.000 A 
ATOM     29  C   UNL     1       1.519  17.051  18.171  0.00  0.00    +0.000 A 
ATOM     30  C   UNL     1       2.112  15.805  18.397  0.00  0.00    +0.000 A 
ATOM     31  C   UNL     1       1.324  14.730  18.828  0.00  0.00    +0.000 A 
ATOM     32  C   UNL     1      -0.050  14.892  19.018  0.00  0.00    +0.000 A 
ATOM     33  C   UNL     1      -0.636  16.141  18.784  0.00  0.00    +0.000 A 
ENDBRANCH  24  31
ENDBRANCH  22  24
ENDBRANCH   1  22
TORSDOF 7
ENDMDL
MODEL 9
REMARK VINA RESULT:      -6.0      2.957      5.556
REMARK  Name = 
REMARK  12 active torsions:
REMARK  status: ('A' for Active; 'I' for Inactive)
REMARK    1  A    between atoms: C_1  and  C_2
REMARK    2  A    between atoms: C_5  and  S_6
REMARK    3  A    between atoms: S_6  and  N_9
REMARK    4  A    between atoms: N_9  and  C_10
REMARK    5  A    between atoms: C_11  and  C_12
REMARK    6  A    between atoms: N_14  and  C_15
REMARK    7  A    between atoms: C_15  and  C_16
REMARK    8  A    between atoms: C_16  and  C_17
REMARK    9  A    between atoms: C_16  and  C_18
REMARK   10  A    between atoms: C_16  and  C_19
REMARK   11  A    between atoms: C_20  and  C_21
REMARK   12  A    between atoms: N_23  and  C_24
REMARK                            x       y       z     vdW  Elec       q    Type
REMARK                         _______ _______ _______ _____ _____    ______ ____
ROOT
ATOM      1  C   UNL     1      -0.937  14.302  21.686  0.00  0.00    +0.000 A 
ATOM      2  C   UNL     1      -0.133  14.548  20.576  0.00  0.00    +0.000 A 
ATOM      3  C   UNL     1      -0.715  15.685  19.969  0.00  0.00    +0.000 A 
ATOM      4  C   UNL     1      -0.388  16.421  18.711  0.00  0.00    +0.000 C 
ATOM      5  N   UNL     1      -1.749  16.144  20.667  0.00  0.00    +0.000 NA
ATOM      6  N   UNL     1      -1.845  15.364  21.764  0.00  0.00    +0.000 N 
ENDROOT
BRANCH   6   7
ATOM      7  C   UNL     1      -2.691  15.814  22.819  0.00  0.00    +0.000 A 
ATOM      8  C   UNL     1      -3.967  16.318  22.479  0.00  0.00    +0.000 A 
ATOM      9  C   UNL     1      -4.816  16.844  23.451  0.00  0.00    +0.000 A 
ATOM     10  C   UNL     1      -4.410  16.864  24.779  0.00  0.00    +0.000 A 
ATOM     11  C   UNL     1      -3.153  16.370  25.128  0.00  0.00    +0.000 A 
ATOM     12  C   UNL     1      -2.287  15.854  24.154  0.00  0.00    +0.000 A 
ENDBRANCH   6   7
BRANCH   2  13
ATOM     13  C   UNL     1       0.965  13.707  20.125  0.00  0.00    +0.000 C 
ATOM     14  O   UNL     1       2.114  13.931  20.488  0.00  0.00    +0.000 OA
ATOM     15  N   UNL     1       0.614  12.708  19.251  0.00  0.00    +0.000 N 
ATOM     16  H   UNL     1      -0.236  12.839  18.719  0.00  0.00    +0.000 HD
BRANCH  15  17
ATOM     17  C   UNL     1       1.552  11.713  18.754  0.00  0.00    +0.000 C 
BRANCH  17  18
ATOM     18  C   UNL     1       0.965  10.276  18.709  0.00  0.00    +0.000 C 
ATOM     19  C   UNL     1       1.854   9.335  17.876  0.00  0.00    +0.000 C 
ATOM     20  C   UNL     1       0.891   9.727  20.147  0.00  0.00    +0.000 C 
ATOM     21  C   UNL     1      -0.461  10.271  18.129  0.00  0.00    +0.000 C 
ENDBRANCH  17  18
ENDBRANCH  15  17
ENDBRANCH   2  13
BRANCH   1  22
ATOM     22  N   UNL     1      -0.760  13.202  22.530  0.00  0.00    +0.000 N 
ATOM     23  H   UNL     1       0.184  13.018  22.836  0.00  0.00    +0.000 HD
BRANCH  22  24
ATOM     24  S   UNL     1      -1.638  11.822  22.312  0.00  0.00    +0.000 S 
ATOM     25  O   UNL     1      -1.190  10.785  23.222  0.00  0.00    +0.000 OA
ATOM     26  O   UNL     1      -1.768  11.536  20.899  0.00  0.00    +0.000 OA
BRANCH  24  31
ATOM     27  C   UNL     1      -7.235  13.509  24.057  0.00  0.00    +0.000 C 
ATOM     28  C   UNL     1      -5.852  13.106  23.625  0.00  0.00    +0.000 A 
ATOM     29  C   UNL     1      -5.521  13.015  22.267  0.00  0.00    +0.000 A 
ATOM     30  C   UNL     1      -4.237  12.625  21.873  0.00  0.00    +0.000 A 
ATOM     31  C   UNL     1      -3.273  12.332  22.846  0.00  0.00    +0.000 A 
ATOM     32  C   UNL     1      -3.591  12.411  24.204  0.00  0.00    +0.000 A 
ATOM     33  C   UNL     1      -4.881  12.796  24.588  0.00  0.00    +0.000 A 
ENDBRANCH  24  31
ENDBRANCH  22  24
ENDBRANCH   1  22
TORSDOF 7
ENDMDL
