MODEL 1
REMARK VINA RESULT:      -7.3      0.000      0.000
REMARK  Name = 
REMARK  7 active torsions:
REMARK  status: ('A' for Active; 'I' for Inactive)
REMARK    1  A    between atoms: C_2  and  C_5
REMARK    2  A    between atoms: N_3  and  O_4
REMARK    3  A    between atoms: N_8  and  C_9
REMARK    4  A    between atoms: C_11  and  C_12
REMARK    5  A    between atoms: C_12  and  O_13
REMARK    6  A    between atoms: C_14  and  N_15
REMARK    7  A    between atoms: C_16  and  O_17
REMARK                            x       y       z     vdW  Elec       q    Type
REMARK                         _______ _______ _______ _____ _____    ______ ____
ROOT
ATOM      1  C   UNL     1       5.395   3.795  17.817  0.00  0.00    +0.000 C 
ATOM      2  O   UNL     1       6.188   4.310  18.914  0.00  0.00    +0.000 OA
ATOM      3  C   UNL     1       7.210   5.085  18.266  0.00  0.00    +0.000 C 
ATOM      4  C   UNL     1       6.508   5.810  17.102  0.00  0.00    +0.000 C 
ATOM      5  C   UNL     1       5.243   4.969  16.850  0.00  0.00    +0.000 C 
ENDROOT
BRANCH   1   9
ATOM      6  C   UNL     1       2.445   2.979  19.498  0.00  0.00    +0.000 A 
ATOM      7  N   UNL     1       2.296   2.098  18.444  0.00  0.00    +0.000 NA
ATOM      8  C   UNL     1       3.358   2.302  17.702  0.00  0.00    +0.000 A 
ATOM      9  N   UNL     1       4.132   3.255  18.278  0.00  0.00    +0.000 N 
ATOM     10  N   UNL     1       3.582   3.706  19.424  0.00  0.00    +0.000 NA
BRANCH   6  12
ATOM     11  N   UNL     1       0.293   3.623  20.276  0.00  0.00    +0.000 N 
ATOM     12  C   UNL     1       1.524   3.133  20.646  0.00  0.00    +0.000 C 
ATOM     13  N   UNL     1       1.768   2.826  21.890  0.00  0.00    +0.000 NA
ATOM     14  H   UNL     1      -0.444   3.350  20.911  0.00  0.00    +0.000 HD
ATOM     15  H   UNL     1       0.087   3.462  19.288  0.00  0.00    +0.000 HD
BRANCH  13  16
ATOM     16  O   UNL     1       3.032   2.263  22.071  0.00  0.00    +0.000 OA
ATOM     17  H   UNL     1       2.832   1.433  22.536  0.00  0.00    +0.000 HD
ENDBRANCH  13  16
ENDBRANCH   6  12
ENDBRANCH   1   9
BRANCH   4  18
ATOM     18  N   UNL     1       7.335   5.974  15.889  0.00  0.00    +0.000 NA
ATOM     19  H   UNL     1       7.559   5.053  15.501  0.00  0.00    +0.000 HD
ATOM     20  H   UNL     1       8.250   6.327  16.195  0.00  0.00    +0.000 HD
ENDBRANCH   4  18
BRANCH   5  21
ATOM     21  O   UNL     1       5.161   4.549  15.489  0.00  0.00    +0.000 OA
ATOM     22  H   UNL     1       4.205   4.595  15.267  0.00  0.00    +0.000 HD
ENDBRANCH   5  21
BRANCH   3  23
ATOM     23  C   UNL     1       7.937   6.029  19.220  0.00  0.00    +0.000 C 
BRANCH  23  24
ATOM     24  O   UNL     1       8.027   5.438  20.512  0.00  0.00    +0.000 OA
ATOM     25  H   UNL     1       8.407   6.106  21.109  0.00  0.00    +0.000 HD
ENDBRANCH  23  24
ENDBRANCH   3  23
TORSDOF 7
ENDMDL
MODEL 2
REMARK VINA RESULT:      -7.2      1.929      5.694
REMARK  Name = 
REMARK  7 active torsions:
REMARK  status: ('A' for Active; 'I' for Inactive)
REMARK    1  A    between atoms: C_2  and  C_5
REMARK    2  A    between atoms: N_3  and  O_4
REMARK    3  A    between atoms: N_8  and  C_9
REMARK    4  A    between atoms: C_11  and  C_12
REMARK    5  A    between atoms: C_12  and  O_13
REMARK    6  A    between atoms: C_14  and  N_15
REMARK    7  A    between atoms: C_16  and  O_17
REMARK                            x       y       z     vdW  Elec       q    Type
REMARK                         _______ _______ _______ _____ _____    ______ ____
ROOT
ATOM      1  C   UNL     1       2.747   4.487  18.659  0.00  0.00    +0.000 C 
ATOM      2  O   UNL     1       2.597   4.334  20.091  0.00  0.00    +0.000 OA
ATOM      3  C   UNL     1       1.475   3.447  20.227  0.00  0.00    +0.000 C 
ATOM      4  C   UNL     1       1.636   2.396  19.112  0.00  0.00    +0.000 C 
ATOM      5  C   UNL     1       2.557   3.083  18.086  0.00  0.00    +0.000 C 
ENDROOT
BRANCH   1   9
ATOM      6  C   UNL     1       6.098   5.269  18.061  0.00  0.00    +0.000 A 
ATOM      7  N   UNL     1       5.560   6.472  17.649  0.00  0.00    +0.000 NA
ATOM      8  C   UNL     1       4.268   6.321  17.814  0.00  0.00    +0.000 A 
ATOM      9  N   UNL     1       4.021   5.086  18.316  0.00  0.00    +0.000 N 
ATOM     10  N   UNL     1       5.164   4.390  18.489  0.00  0.00    +0.000 NA
BRANCH   6  12
ATOM     11  N   UNL     1       8.009   4.477  16.892  0.00  0.00    +0.000 N 
ATOM     12  C   UNL     1       7.536   4.922  18.105  0.00  0.00    +0.000 C 
ATOM     13  N   UNL     1       8.335   5.032  19.129  0.00  0.00    +0.000 NA
ATOM     14  H   UNL     1       9.001   4.636  16.778  0.00  0.00    +0.000 HD
ATOM     15  H   UNL     1       7.435   4.790  16.107  0.00  0.00    +0.000 HD
BRANCH  13  16
ATOM     16  O   UNL     1       7.708   5.578  20.249  0.00  0.00    +0.000 OA
ATOM     17  H   UNL     1       6.892   5.053  20.314  0.00  0.00    +0.000 HD
ENDBRANCH  13  16
ENDBRANCH   6  12
ENDBRANCH   1   9
BRANCH   4  18
ATOM     18  N   UNL     1       0.368   1.928  18.517  0.00  0.00    +0.000 NA
ATOM     19  H   UNL     1       0.416   0.916  18.361  0.00  0.00    +0.000 HD
ATOM     20  H   UNL     1       0.324   2.309  17.564  0.00  0.00    +0.000 HD
ENDBRANCH   4  18
BRANCH   5  21
ATOM     21  O   UNL     1       1.967   3.097  16.788  0.00  0.00    +0.000 OA
ATOM     22  H   UNL     1       2.391   3.854  16.325  0.00  0.00    +0.000 HD
ENDBRANCH   5  21
BRANCH   3  23
ATOM     23  C   UNL     1       1.360   2.839  21.623  0.00  0.00    +0.000 C 
BRANCH  23  24
ATOM     24  O   UNL     1       2.648   2.451  22.089  0.00  0.00    +0.000 OA
ATOM     25  H   UNL     1       3.296   3.056  21.685  0.00  0.00    +0.000 HD
ENDBRANCH  23  24
ENDBRANCH   3  23
TORSDOF 7
ENDMDL
MODEL 3
REMARK VINA RESULT:      -7.1      2.129      5.899
REMARK  Name = 
REMARK  7 active torsions:
REMARK  status: ('A' for Active; 'I' for Inactive)
REMARK    1  A    between atoms: C_2  and  C_5
REMARK    2  A    between atoms: N_3  and  O_4
REMARK    3  A    between atoms: N_8  and  C_9
REMARK    4  A    between atoms: C_11  and  C_12
REMARK    5  A    between atoms: C_12  and  O_13
REMARK    6  A    between atoms: C_14  and  N_15
REMARK    7  A    between atoms: C_16  and  O_17
REMARK                            x       y       z     vdW  Elec       q    Type
REMARK                         _______ _______ _______ _____ _____    ______ ____
ROOT
ATOM      1  C   UNL     1       2.760   4.974  18.659  0.00  0.00    +0.000 C 
ATOM      2  O   UNL     1       3.198   4.586  19.984  0.00  0.00    +0.000 OA
ATOM      3  C   UNL     1       2.105   3.804  20.493  0.00  0.00    +0.000 C 
ATOM      4  C   UNL     1       1.611   2.956  19.306  0.00  0.00    +0.000 C 
ATOM      5  C   UNL     1       2.119   3.719  18.068  0.00  0.00    +0.000 C 
ENDROOT
BRANCH   1   9
ATOM      6  C   UNL     1       5.628   5.513  16.741  0.00  0.00    +0.000 A 
ATOM      7  N   UNL     1       5.186   6.821  16.768  0.00  0.00    +0.000 NA
ATOM      8  C   UNL     1       4.079   6.772  17.469  0.00  0.00    +0.000 A 
ATOM      9  N   UNL     1       3.854   5.495  17.866  0.00  0.00    +0.000 N 
ATOM     10  N   UNL     1       4.823   4.667  17.423  0.00  0.00    +0.000 NA
BRANCH   6  12
ATOM     11  N   UNL     1       6.917   5.316  14.754  0.00  0.00    +0.000 N 
ATOM     12  C   UNL     1       6.866   5.021  16.097  0.00  0.00    +0.000 C 
ATOM     13  N   UNL     1       7.855   4.401  16.677  0.00  0.00    +0.000 NA
ATOM     14  H   UNL     1       7.863   5.379  14.404  0.00  0.00    +0.000 HD
ATOM     15  H   UNL     1       6.315   6.103  14.502  0.00  0.00    +0.000 HD
BRANCH  13  16
ATOM     16  O   UNL     1       7.674   4.261  18.053  0.00  0.00    +0.000 OA
ATOM     17  H   UNL     1       8.282   4.928  18.418  0.00  0.00    +0.000 HD
ENDBRANCH  13  16
ENDBRANCH   6  12
ENDBRANCH   1   9
BRANCH   4  18
ATOM     18  N   UNL     1       0.152   2.727  19.275  0.00  0.00    +0.000 NA
ATOM     19  H   UNL     1      -0.041   1.796  18.894  0.00  0.00    +0.000 HD
ATOM     20  H   UNL     1      -0.236   3.356  18.562  0.00  0.00    +0.000 HD
ENDBRANCH   4  18
BRANCH   5  21
ATOM     21  O   UNL     1       1.053   4.020  17.170  0.00  0.00    +0.000 OA
ATOM     22  H   UNL     1       1.428   4.676  16.542  0.00  0.00    +0.000 HD
ENDBRANCH   5  21
BRANCH   3  23
ATOM     23  C   UNL     1       2.485   2.974  21.716  0.00  0.00    +0.000 C 
BRANCH  23  24
ATOM     24  O   UNL     1       1.322   2.365  22.268  0.00  0.00    +0.000 OA
ATOM     25  H   UNL     1       1.556   2.051  23.160  0.00  0.00    +0.000 HD
ENDBRANCH  23  24
ENDBRANCH   3  23
TORSDOF 7
ENDMDL
MODEL 4
REMARK VINA RESULT:      -7.0      2.172      5.796
REMARK  Name = 
REMARK  7 active torsions:
REMARK  status: ('A' for Active; 'I' for Inactive)
REMARK    1  A    between atoms: C_2  and  C_5
REMARK    2  A    between atoms: N_3  and  O_4
REMARK    3  A    between atoms: N_8  and  C_9
REMARK    4  A    between atoms: C_11  and  C_12
REMARK    5  A    between atoms: C_12  and  O_13
REMARK    6  A    between atoms: C_14  and  N_15
REMARK    7  A    between atoms: C_16  and  O_17
REMARK                            x       y       z     vdW  Elec       q    Type
REMARK                         _______ _______ _______ _____ _____    ______ ____
ROOT
ATOM      1  C   UNL     1       3.196   4.149  18.551  0.00  0.00    +0.000 C 
ATOM      2  O   UNL     1       3.040   4.069  19.989  0.00  0.00    +0.000 OA
ATOM      3  C   UNL     1       1.778   3.404  20.162  0.00  0.00    +0.000 C 
ATOM      4  C   UNL     1       1.733   2.308  19.080  0.00  0.00    +0.000 C 
ATOM      5  C   UNL     1       2.749   2.786  18.025  0.00  0.00    +0.000 C 
ENDROOT
BRANCH   1   9
ATOM      6  C   UNL     1       6.477   5.327  18.332  0.00  0.00    +0.000 A 
ATOM      7  N   UNL     1       6.430   4.705  17.099  0.00  0.00    +0.000 NA
ATOM      8  C   UNL     1       5.223   4.195  17.042  0.00  0.00    +0.000 A 
ATOM      9  N   UNL     1       4.552   4.498  18.180  0.00  0.00    +0.000 N 
ATOM     10  N   UNL     1       5.319   5.221  19.023  0.00  0.00    +0.000 NA
BRANCH   6  12
ATOM     11  N   UNL     1       8.150   5.500  20.011  0.00  0.00    +0.000 N 
ATOM     12  C   UNL     1       7.618   6.088  18.886  0.00  0.00    +0.000 C 
ATOM     13  N   UNL     1       8.140   7.179  18.399  0.00  0.00    +0.000 NA
ATOM     14  H   UNL     1       9.124   5.733  20.150  0.00  0.00    +0.000 HD
ATOM     15  H   UNL     1       7.937   4.503  20.071  0.00  0.00    +0.000 HD
BRANCH  13  16
ATOM     16  O   UNL     1       7.532   7.586  17.211  0.00  0.00    +0.000 OA
ATOM     17  H   UNL     1       8.281   7.629  16.591  0.00  0.00    +0.000 HD
ENDBRANCH  13  16
ENDBRANCH   6  12
ENDBRANCH   1   9
BRANCH   4  18
ATOM     18  N   UNL     1       0.394   2.058  18.509  0.00  0.00    +0.000 NA
ATOM     19  H   UNL     1       0.045   1.153  18.839  0.00  0.00    +0.000 HD
ATOM     20  H   UNL     1       0.520   1.905  17.501  0.00  0.00    +0.000 HD
ENDBRANCH   4  18
BRANCH   5  21
ATOM     21  O   UNL     1       2.155   2.867  16.731  0.00  0.00    +0.000 OA
ATOM     22  H   UNL     1       1.461   3.558  16.813  0.00  0.00    +0.000 HD
ENDBRANCH   5  21
BRANCH   3  23
ATOM     23  C   UNL     1       1.574   2.869  21.576  0.00  0.00    +0.000 C 
BRANCH  23  24
ATOM     24  O   UNL     1       2.803   2.360  22.084  0.00  0.00    +0.000 OA
ATOM     25  H   UNL     1       3.520   2.769  21.566  0.00  0.00    +0.000 HD
ENDBRANCH  23  24
ENDBRANCH   3  23
TORSDOF 7
ENDMDL
MODEL 5
REMARK VINA RESULT:      -7.0      1.302      2.508
REMARK  Name = 
REMARK  7 active torsions:
REMARK  status: ('A' for Active; 'I' for Inactive)
REMARK    1  A    between atoms: C_2  and  C_5
REMARK    2  A    between atoms: N_3  and  O_4
REMARK    3  A    between atoms: N_8  and  C_9
REMARK    4  A    between atoms: C_11  and  C_12
REMARK    5  A    between atoms: C_12  and  O_13
REMARK    6  A    between atoms: C_14  and  N_15
REMARK    7  A    between atoms: C_16  and  O_17
REMARK                            x       y       z     vdW  Elec       q    Type
REMARK                         _______ _______ _______ _____ _____    ______ ____
ROOT
ATOM      1  C   UNL     1       4.684   4.648  17.288  0.00  0.00    +0.000 C 
ATOM      2  O   UNL     1       4.927   4.233  15.922  0.00  0.00    +0.000 OA
ATOM      3  C   UNL     1       5.992   5.094  15.485  0.00  0.00    +0.000 C 
ATOM      4  C   UNL     1       6.947   5.219  16.687  0.00  0.00    +0.000 C 
ATOM      5  C   UNL     1       6.071   4.847  17.897  0.00  0.00    +0.000 C 
ENDROOT
BRANCH   1   9
ATOM      6  C   UNL     1       2.526   2.927  19.427  0.00  0.00    +0.000 A 
ATOM      7  N   UNL     1       2.895   1.849  18.645  0.00  0.00    +0.000 NA
ATOM      8  C   UNL     1       3.724   2.359  17.766  0.00  0.00    +0.000 A 
ATOM      9  N   UNL     1       3.869   3.687  18.001  0.00  0.00    +0.000 N 
ATOM     10  N   UNL     1       3.123   4.081  19.054  0.00  0.00    +0.000 NA
BRANCH   6  12
ATOM     11  N   UNL     1       0.319   3.204  20.265  0.00  0.00    +0.000 N 
ATOM     12  C   UNL     1       1.618   2.890  20.595  0.00  0.00    +0.000 C 
ATOM     13  N   UNL     1       1.931   2.571  21.819  0.00  0.00    +0.000 NA
ATOM     14  H   UNL     1      -0.354   2.795  20.898  0.00  0.00    +0.000 HD
ATOM     15  H   UNL     1       0.119   3.055  19.274  0.00  0.00    +0.000 HD
BRANCH  13  16
ATOM     16  O   UNL     1       3.270   2.199  21.956  0.00  0.00    +0.000 OA
ATOM     17  H   UNL     1       3.239   1.556  22.685  0.00  0.00    +0.000 HD
ENDBRANCH  13  16
ENDBRANCH   6  12
ENDBRANCH   1   9
BRANCH   4  18
ATOM     18  N   UNL     1       7.588   6.542  16.831  0.00  0.00    +0.000 NA
ATOM     19  H   UNL     1       7.303   7.146  16.055  0.00  0.00    +0.000 HD
ATOM     20  H   UNL     1       8.593   6.408  16.665  0.00  0.00    +0.000 HD
ENDBRANCH   4  18
BRANCH   5  21
ATOM     21  O   UNL     1       6.091   5.873  18.888  0.00  0.00    +0.000 OA
ATOM     22  H   UNL     1       6.525   5.464  19.669  0.00  0.00    +0.000 HD
ENDBRANCH   5  21
BRANCH   3  23
ATOM     23  C   UNL     1       6.676   4.598  14.214  0.00  0.00    +0.000 C 
BRANCH  23  24
ATOM     24  O   UNL     1       7.807   5.412  13.924  0.00  0.00    +0.000 OA
ATOM     25  H   UNL     1       7.520   6.089  13.285  0.00  0.00    +0.000 HD
ENDBRANCH  23  24
ENDBRANCH   3  23
TORSDOF 7
ENDMDL
MODEL 6
REMARK VINA RESULT:      -7.0      2.253      6.082
REMARK  Name = 
REMARK  7 active torsions:
REMARK  status: ('A' for Active; 'I' for Inactive)
REMARK    1  A    between atoms: C_2  and  C_5
REMARK    2  A    between atoms: N_3  and  O_4
REMARK    3  A    between atoms: N_8  and  C_9
REMARK    4  A    between atoms: C_11  and  C_12
REMARK    5  A    between atoms: C_12  and  O_13
REMARK    6  A    between atoms: C_14  and  N_15
REMARK    7  A    between atoms: C_16  and  O_17
REMARK                            x       y       z     vdW  Elec       q    Type
REMARK                         _______ _______ _______ _____ _____    ______ ____
ROOT
ATOM      1  C   UNL     1       2.788   5.045  18.719  0.00  0.00    +0.000 C 
ATOM      2  O   UNL     1       3.108   4.803  20.111  0.00  0.00    +0.000 OA
ATOM      3  C   UNL     1       1.976   4.067  20.602  0.00  0.00    +0.000 C 
ATOM      4  C   UNL     1       1.589   3.093  19.472  0.00  0.00    +0.000 C 
ATOM      5  C   UNL     1       2.203   3.727  18.210  0.00  0.00    +0.000 C 
ENDROOT
BRANCH   1   9
ATOM      6  C   UNL     1       5.829   5.421  17.044  0.00  0.00    +0.000 A 
ATOM      7  N   UNL     1       5.354   6.701  16.837  0.00  0.00    +0.000 NA
ATOM      8  C   UNL     1       4.180   6.708  17.422  0.00  0.00    +0.000 A 
ATOM      9  N   UNL     1       3.946   5.492  17.974  0.00  0.00    +0.000 N 
ATOM     10  N   UNL     1       4.977   4.649  17.756  0.00  0.00    +0.000 NA
BRANCH   6  12
ATOM     11  N   UNL     1       7.861   4.343  17.642  0.00  0.00    +0.000 N 
ATOM     12  C   UNL     1       7.140   4.892  16.607  0.00  0.00    +0.000 C 
ATOM     13  N   UNL     1       7.611   4.880  15.391  0.00  0.00    +0.000 NA
ATOM     14  H   UNL     1       8.514   3.637  17.331  0.00  0.00    +0.000 HD
ATOM     15  H   UNL     1       7.270   4.061  18.426  0.00  0.00    +0.000 HD
BRANCH  13  16
ATOM     16  O   UNL     1       6.714   5.399  14.457  0.00  0.00    +0.000 OA
ATOM     17  H   UNL     1       5.892   4.920  14.661  0.00  0.00    +0.000 HD
ENDBRANCH  13  16
ENDBRANCH   6  12
ENDBRANCH   1   9
BRANCH   4  18
ATOM     18  N   UNL     1       0.139   2.846  19.339  0.00  0.00    +0.000 NA
ATOM     19  H   UNL     1      -0.346   3.735  19.179  0.00  0.00    +0.000 HD
ATOM     20  H   UNL     1      -0.203   2.557  20.263  0.00  0.00    +0.000 HD
ENDBRANCH   4  18
BRANCH   5  21
ATOM     21  O   UNL     1       1.220   3.921  17.195  0.00  0.00    +0.000 OA
ATOM     22  H   UNL     1       1.733   4.051  16.367  0.00  0.00    +0.000 HD
ENDBRANCH   5  21
BRANCH   3  23
ATOM     23  C   UNL     1       2.247   3.374  21.934  0.00  0.00    +0.000 C 
BRANCH  23  24
ATOM     24  O   UNL     1       1.289   2.343  22.148  0.00  0.00    +0.000 OA
ATOM     25  H   UNL     1       1.665   1.520  21.787  0.00  0.00    +0.000 HD
ENDBRANCH  23  24
ENDBRANCH   3  23
TORSDOF 7
ENDMDL
MODEL 7
REMARK VINA RESULT:      -6.9      2.166      5.765
REMARK  Name = 
REMARK  7 active torsions:
REMARK  status: ('A' for Active; 'I' for Inactive)
REMARK    1  A    between atoms: C_2  and  C_5
REMARK    2  A    between atoms: N_3  and  O_4
REMARK    3  A    between atoms: N_8  and  C_9
REMARK    4  A    between atoms: C_11  and  C_12
REMARK    5  A    between atoms: C_12  and  O_13
REMARK    6  A    between atoms: C_14  and  N_15
REMARK    7  A    between atoms: C_16  and  O_17
REMARK                            x       y       z     vdW  Elec       q    Type
REMARK                         _______ _______ _______ _____ _____    ______ ____
ROOT
ATOM      1  C   UNL     1       2.757   4.499  18.718  0.00  0.00    +0.000 C 
ATOM      2  O   UNL     1       2.568   4.288  20.138  0.00  0.00    +0.000 OA
ATOM      3  C   UNL     1       1.438   3.403  20.207  0.00  0.00    +0.000 C 
ATOM      4  C   UNL     1       1.624   2.398  19.054  0.00  0.00    +0.000 C 
ATOM      5  C   UNL     1       2.575   3.121  18.082  0.00  0.00    +0.000 C 
ENDROOT
BRANCH   1   9
ATOM      6  C   UNL     1       6.128   5.353  18.395  0.00  0.00    +0.000 A 
ATOM      7  N   UNL     1       5.605   6.451  17.741  0.00  0.00    +0.000 NA
ATOM      8  C   UNL     1       4.308   6.260  17.778  0.00  0.00    +0.000 A 
ATOM      9  N   UNL     1       4.042   5.104  18.434  0.00  0.00    +0.000 N 
ATOM     10  N   UNL     1       5.178   4.502  18.845  0.00  0.00    +0.000 NA
BRANCH   6  12
ATOM     11  N   UNL     1       7.962   5.540  19.894  0.00  0.00    +0.000 N 
ATOM     12  C   UNL     1       7.560   5.091  18.657  0.00  0.00    +0.000 C 
ATOM     13  N   UNL     1       8.400   4.479  17.870  0.00  0.00    +0.000 NA
ATOM     14  H   UNL     1       8.756   5.030  20.256  0.00  0.00    +0.000 HD
ATOM     15  H   UNL     1       7.184   5.638  20.549  0.00  0.00    +0.000 HD
BRANCH  13  16
ATOM     16  O   UNL     1       7.803   4.017  16.696  0.00  0.00    +0.000 OA
ATOM     17  H   UNL     1       7.784   3.053  16.832  0.00  0.00    +0.000 HD
ENDBRANCH  13  16
ENDBRANCH   6  12
ENDBRANCH   1   9
BRANCH   4  18
ATOM     18  N   UNL     1       0.370   1.962  18.406  0.00  0.00    +0.000 NA
ATOM     19  H   UNL     1      -0.372   2.639  18.608  0.00  0.00    +0.000 HD
ATOM     20  H   UNL     1       0.055   1.117  18.898  0.00  0.00    +0.000 HD
ENDBRANCH   4  18
BRANCH   5  21
ATOM     21  O   UNL     1       2.021   3.193  16.770  0.00  0.00    +0.000 OA
ATOM     22  H   UNL     1       2.128   4.131  16.500  0.00  0.00    +0.000 HD
ENDBRANCH   5  21
BRANCH   3  23
ATOM     23  C   UNL     1       1.283   2.739  21.572  0.00  0.00    +0.000 C 
BRANCH  23  24
ATOM     24  O   UNL     1       2.493   2.862  22.311  0.00  0.00    +0.000 OA
ATOM     25  H   UNL     1       3.138   2.251  21.913  0.00  0.00    +0.000 HD
ENDBRANCH  23  24
ENDBRANCH   3  23
TORSDOF 7
ENDMDL
MODEL 8
REMARK VINA RESULT:      -6.9      2.220      5.985
REMARK  Name = 
REMARK  7 active torsions:
REMARK  status: ('A' for Active; 'I' for Inactive)
REMARK    1  A    between atoms: C_2  and  C_5
REMARK    2  A    between atoms: N_3  and  O_4
REMARK    3  A    between atoms: N_8  and  C_9
REMARK    4  A    between atoms: C_11  and  C_12
REMARK    5  A    between atoms: C_12  and  O_13
REMARK    6  A    between atoms: C_14  and  N_15
REMARK    7  A    between atoms: C_16  and  O_17
REMARK                            x       y       z     vdW  Elec       q    Type
REMARK                         _______ _______ _______ _____ _____    ______ ____
ROOT
ATOM      1  C   UNL     1       3.164   4.191  18.758  0.00  0.00    +0.000 C 
ATOM      2  O   UNL     1       2.906   4.024  20.173  0.00  0.00    +0.000 OA
ATOM      3  C   UNL     1       1.650   3.327  20.215  0.00  0.00    +0.000 C 
ATOM      4  C   UNL     1       1.708   2.296  19.072  0.00  0.00    +0.000 C 
ATOM      5  C   UNL     1       2.786   2.853  18.124  0.00  0.00    +0.000 C 
ENDROOT
BRANCH   1   9
ATOM      6  C   UNL     1       6.209   5.315  17.468  0.00  0.00    +0.000 A 
ATOM      7  N   UNL     1       6.662   4.989  18.732  0.00  0.00    +0.000 NA
ATOM      8  C   UNL     1       5.595   4.546  19.352  0.00  0.00    +0.000 A 
ATOM      9  N   UNL     1       4.535   4.585  18.508  0.00  0.00    +0.000 N 
ATOM     10  N   UNL     1       4.890   5.067  17.298  0.00  0.00    +0.000 NA
BRANCH   6  12
ATOM     11  N   UNL     1       7.622   7.043  16.653  0.00  0.00    +0.000 N 
ATOM     12  C   UNL     1       7.027   5.839  16.353  0.00  0.00    +0.000 C 
ATOM     13  N   UNL     1       7.237   5.266  15.201  0.00  0.00    +0.000 NA
ATOM     14  H   UNL     1       8.470   7.202  16.125  0.00  0.00    +0.000 HD
ATOM     15  H   UNL     1       7.711   7.197  17.659  0.00  0.00    +0.000 HD
BRANCH  13  16
ATOM     16  O   UNL     1       6.627   4.014  15.100  0.00  0.00    +0.000 OA
ATOM     17  H   UNL     1       5.894   4.183  14.484  0.00  0.00    +0.000 HD
ENDBRANCH  13  16
ENDBRANCH   6  12
ENDBRANCH   1   9
BRANCH   4  18
ATOM     18  N   UNL     1       0.419   2.055  18.391  0.00  0.00    +0.000 NA
ATOM     19  H   UNL     1       0.044   1.147  18.680  0.00  0.00    +0.000 HD
ATOM     20  H   UNL     1       0.627   1.915  17.395  0.00  0.00    +0.000 HD
ENDBRANCH   4  18
BRANCH   5  21
ATOM     21  O   UNL     1       2.285   2.999  16.796  0.00  0.00    +0.000 OA
ATOM     22  H   UNL     1       2.402   2.115  16.382  0.00  0.00    +0.000 HD
ENDBRANCH   5  21
BRANCH   3  23
ATOM     23  C   UNL     1       1.357   2.707  21.578  0.00  0.00    +0.000 C 
BRANCH  23  24
ATOM     24  O   UNL     1       2.576   2.465  22.272  0.00  0.00    +0.000 OA
ATOM     25  H   UNL     1       2.600   1.516  22.491  0.00  0.00    +0.000 HD
ENDBRANCH  23  24
ENDBRANCH   3  23
TORSDOF 7
ENDMDL
MODEL 9
REMARK VINA RESULT:      -6.8      1.313      1.417
REMARK  Name = 
REMARK  7 active torsions:
REMARK  status: ('A' for Active; 'I' for Inactive)
REMARK    1  A    between atoms: C_2  and  C_5
REMARK    2  A    between atoms: N_3  and  O_4
REMARK    3  A    between atoms: N_8  and  C_9
REMARK    4  A    between atoms: C_11  and  C_12
REMARK    5  A    between atoms: C_12  and  O_13
REMARK    6  A    between atoms: C_14  and  N_15
REMARK    7  A    between atoms: C_16  and  O_17
REMARK                            x       y       z     vdW  Elec       q    Type
REMARK                         _______ _______ _______ _____ _____    ______ ____
ROOT
ATOM      1  C   UNL     1       5.412   4.085  17.792  0.00  0.00    +0.000 C 
ATOM      2  O   UNL     1       5.549   5.437  18.294  0.00  0.00    +0.000 OA
ATOM      3  C   UNL     1       6.586   6.004  17.478  0.00  0.00    +0.000 C 
ATOM      4  C   UNL     1       6.329   5.479  16.052  0.00  0.00    +0.000 C 
ATOM      5  C   UNL     1       5.474   4.217  16.271  0.00  0.00    +0.000 C 
ENDROOT
BRANCH   1   9
ATOM      6  C   UNL     1       2.539   3.080  19.504  0.00  0.00    +0.000 A 
ATOM      7  N   UNL     1       2.463   2.159  18.476  0.00  0.00    +0.000 NA
ATOM      8  C   UNL     1       3.505   2.427  17.726  0.00  0.00    +0.000 A 
ATOM      9  N   UNL     1       4.198   3.457  18.271  0.00  0.00    +0.000 N 
ATOM     10  N   UNL     1       3.613   3.895  19.406  0.00  0.00    +0.000 NA
BRANCH   6  12
ATOM     11  N   UNL     1       0.388   3.714  20.290  0.00  0.00    +0.000 N 
ATOM     12  C   UNL     1       1.609   3.191  20.649  0.00  0.00    +0.000 C 
ATOM     13  N   UNL     1       1.837   2.824  21.879  0.00  0.00    +0.000 NA
ATOM     14  H   UNL     1      -0.358   3.421  20.905  0.00  0.00    +0.000 HD
ATOM     15  H   UNL     1       0.190   3.602  19.295  0.00  0.00    +0.000 HD
BRANCH  13  16
ATOM     16  O   UNL     1       3.092   2.237  22.045  0.00  0.00    +0.000 OA
ATOM     17  H   UNL     1       3.065   1.494  21.419  0.00  0.00    +0.000 HD
ENDBRANCH  13  16
ENDBRANCH   6  12
ENDBRANCH   1   9
BRANCH   4  18
ATOM     18  N   UNL     1       7.549   5.211  15.263  0.00  0.00    +0.000 NA
ATOM     19  H   UNL     1       8.095   6.074  15.174  0.00  0.00    +0.000 HD
ATOM     20  H   UNL     1       7.249   5.026  14.299  0.00  0.00    +0.000 HD
ENDBRANCH   4  18
BRANCH   5  21
ATOM     21  O   UNL     1       6.061   3.077  15.646  0.00  0.00    +0.000 OA
ATOM     22  H   UNL     1       6.234   2.446  16.380  0.00  0.00    +0.000 HD
ENDBRANCH   5  21
BRANCH   3  23
ATOM     23  C   UNL     1       6.647   7.526  17.562  0.00  0.00    +0.000 C 
BRANCH  23  24
ATOM     24  O   UNL     1       7.856   7.997  16.976  0.00  0.00    +0.000 OA
ATOM     25  H   UNL     1       7.697   8.087  16.019  0.00  0.00    +0.000 HD
ENDBRANCH  23  24
ENDBRANCH   3  23
TORSDOF 7
ENDMDL
