MODEL 1
REMARK VINA RESULT:      -7.3      0.000      0.000
REMARK  Name = 
REMARK  3 active torsions:
REMARK  status: ('A' for Active; 'I' for Inactive)
REMARK    1  A    between atoms: C_1  and  C_2
REMARK    2  A    between atoms: C_2  and  C_3
REMARK    3  A    between atoms: C_2  and  C_4
REMARK                            x       y       z     vdW  Elec       q    Type
REMARK                         _______ _______ _______ _____ _____    ______ ____
ROOT
ATOM      1  C   UNL     1       4.733   4.893  18.289  0.00  0.00    +0.000 A 
ATOM      2  N   UNL     1       5.142   4.172  19.317  0.00  0.00    +0.000 NA
ATOM      3  N   UNL     1       6.384   4.623  19.704  0.00  0.00    +0.000 NA
ATOM      4  C   UNL     1       6.718   5.607  18.901  0.00  0.00    +0.000 A 
ATOM      5  N   UNL     1       5.722   5.785  17.977  0.00  0.00    +0.000 N 
ATOM      6  C   UNL     1       5.775   6.778  16.924  0.00  0.00    +0.000 C 
ATOM      7  C   UNL     1       7.220   7.202  16.636  0.00  0.00    +0.000 C 
ATOM      8  N   UNL     1       7.923   7.507  17.878  0.00  0.00    +0.000 N 
ATOM      9  C   UNL     1       8.319   8.766  18.148  0.00  0.00    +0.000 A 
ATOM     10  N   UNL     1       8.154   9.849  17.416  0.00  0.00    +0.000 NA
ATOM     11  C   UNL     1       8.738  10.844  18.159  0.00  0.00    +0.000 A 
ATOM     12  C   UNL     1       8.876  12.218  17.922  0.00  0.00    +0.000 A 
ATOM     13  C   UNL     1       9.531  12.994  18.892  0.00  0.00    +0.000 A 
ATOM     14  C   UNL     1      10.037  12.414  20.064  0.00  0.00    +0.000 A 
ATOM     15  C   UNL     1       9.909  11.042  20.311  0.00  0.00    +0.000 A 
ATOM     16  C   UNL     1       9.249  10.314  19.328  0.00  0.00    +0.000 A 
ATOM     17  O   UNL     1       8.986   8.978  19.325  0.00  0.00    +0.000 OA
ATOM     18  C   UNL     1       7.947   6.457  18.901  0.00  0.00    +0.000 C 
ENDROOT
BRANCH   1  20
ATOM     19  C   UNL     1       3.022   3.315  17.413  0.00  0.00    +0.000 C 
ATOM     20  C   UNL     1       3.420   4.781  17.581  0.00  0.00    +0.000 C 
ATOM     21  C   UNL     1       2.325   5.547  18.328  0.00  0.00    +0.000 C 
ENDBRANCH   1  20
TORSDOF 1
ENDMDL
MODEL 2
REMARK VINA RESULT:      -7.1      4.292      6.940
REMARK  Name = 
REMARK  3 active torsions:
REMARK  status: ('A' for Active; 'I' for Inactive)
REMARK    1  A    between atoms: C_1  and  C_2
REMARK    2  A    between atoms: C_2  and  C_3
REMARK    3  A    between atoms: C_2  and  C_4
REMARK                            x       y       z     vdW  Elec       q    Type
REMARK                         _______ _______ _______ _____ _____    ______ ____
ROOT
ATOM      1  C   UNL     1       5.875   5.924  17.739  0.00  0.00    +0.000 A 
ATOM      2  N   UNL     1       5.958   6.610  16.614  0.00  0.00    +0.000 NA
ATOM      3  N   UNL     1       4.794   7.328  16.450  0.00  0.00    +0.000 NA
ATOM      4  C   UNL     1       4.015   7.062  17.474  0.00  0.00    +0.000 A 
ATOM      5  N   UNL     1       4.645   6.157  18.289  0.00  0.00    +0.000 N 
ATOM      6  C   UNL     1       4.057   5.629  19.503  0.00  0.00    +0.000 C 
ATOM      7  C   UNL     1       2.529   5.759  19.479  0.00  0.00    +0.000 C 
ATOM      8  N   UNL     1       2.135   7.105  19.077  0.00  0.00    +0.000 N 
ATOM      9  C   UNL     1       1.518   7.927  19.949  0.00  0.00    +0.000 A 
ATOM     10  N   UNL     1       1.197   7.691  21.205  0.00  0.00    +0.000 NA
ATOM     11  C   UNL     1       0.601   8.856  21.619  0.00  0.00    +0.000 A 
ATOM     12  C   UNL     1       0.058   9.232  22.854  0.00  0.00    +0.000 A 
ATOM     13  C   UNL     1      -0.487  10.521  22.973  0.00  0.00    +0.000 A 
ATOM     14  C   UNL     1      -0.492  11.408  21.889  0.00  0.00    +0.000 A 
ATOM     15  C   UNL     1       0.045  11.045  20.648  0.00  0.00    +0.000 A 
ATOM     16  C   UNL     1       0.577   9.764  20.576  0.00  0.00    +0.000 A 
ATOM     17  O   UNL     1       1.162   9.170  19.499  0.00  0.00    +0.000 OA
ATOM     18  C   UNL     1       2.657   7.594  17.797  0.00  0.00    +0.000 C 
ENDROOT
BRANCH   1  20
ATOM     19  C   UNL     1       7.760   4.381  17.236  0.00  0.00    +0.000 C 
ATOM     20  C   UNL     1       6.932   5.047  18.334  0.00  0.00    +0.000 C 
ATOM     21  C   UNL     1       7.839   5.842  19.276  0.00  0.00    +0.000 C 
ENDBRANCH   1  20
TORSDOF 1
ENDMDL
MODEL 3
REMARK VINA RESULT:      -6.8      6.094      9.226
REMARK  Name = 
REMARK  3 active torsions:
REMARK  status: ('A' for Active; 'I' for Inactive)
REMARK    1  A    between atoms: C_1  and  C_2
REMARK    2  A    between atoms: C_2  and  C_3
REMARK    3  A    between atoms: C_2  and  C_4
REMARK                            x       y       z     vdW  Elec       q    Type
REMARK                         _______ _______ _______ _____ _____    ______ ____
ROOT
ATOM      1  C   UNL     1      -0.497  11.150  20.262  0.00  0.00    +0.000 A 
ATOM      2  N   UNL     1      -0.157  11.712  19.116  0.00  0.00    +0.000 NA
ATOM      3  N   UNL     1       0.795  10.926  18.507  0.00  0.00    +0.000 NA
ATOM      4  C   UNL     1       1.029   9.901  19.294  0.00  0.00    +0.000 A 
ATOM      5  N   UNL     1       0.261  10.024  20.423  0.00  0.00    +0.000 N 
ATOM      6  C   UNL     1       0.287   9.073  21.515  0.00  0.00    +0.000 C 
ATOM      7  C   UNL     1       1.592   8.268  21.517  0.00  0.00    +0.000 C 
ATOM      8  N   UNL     1       1.882   7.758  20.181  0.00  0.00    +0.000 N 
ATOM      9  C   UNL     1       1.854   6.434  19.933  0.00  0.00    +0.000 A 
ATOM     10  N   UNL     1       1.577   5.452  20.767  0.00  0.00    +0.000 NA
ATOM     11  C   UNL     1       1.687   4.322  19.997  0.00  0.00    +0.000 A 
ATOM     12  C   UNL     1       1.503   2.968  20.307  0.00  0.00    +0.000 A 
ATOM     13  C   UNL     1       1.686   2.025  19.283  0.00  0.00    +0.000 A 
ATOM     14  C   UNL     1       2.046   2.421  17.988  0.00  0.00    +0.000 A 
ATOM     15  C   UNL     1       2.236   3.770  17.665  0.00  0.00    +0.000 A 
ATOM     16  C   UNL     1       2.039   4.669  18.706  0.00  0.00    +0.000 A 
ATOM     17  O   UNL     1       2.152   6.025  18.660  0.00  0.00    +0.000 OA
ATOM     18  C   UNL     1       1.951   8.743  19.097  0.00  0.00    +0.000 C 
ENDROOT
BRANCH   1  20
ATOM     19  C   UNL     1      -0.880  12.375  22.393  0.00  0.00    +0.000 C 
ATOM     20  C   UNL     1      -1.533  11.636  21.226  0.00  0.00    +0.000 C 
ATOM     21  C   UNL     1      -2.552  12.541  20.527  0.00  0.00    +0.000 C 
ENDBRANCH   1  20
TORSDOF 1
ENDMDL
MODEL 4
REMARK VINA RESULT:      -6.4      4.815      7.076
REMARK  Name = 
REMARK  3 active torsions:
REMARK  status: ('A' for Active; 'I' for Inactive)
REMARK    1  A    between atoms: C_1  and  C_2
REMARK    2  A    between atoms: C_2  and  C_3
REMARK    3  A    between atoms: C_2  and  C_4
REMARK                            x       y       z     vdW  Elec       q    Type
REMARK                         _______ _______ _______ _____ _____    ______ ____
ROOT
ATOM      1  C   UNL     1       0.772  10.875  20.612  0.00  0.00    +0.000 A 
ATOM      2  N   UNL     1       0.649  10.423  21.846  0.00  0.00    +0.000 NA
ATOM      3  N   UNL     1       1.038   9.102  21.872  0.00  0.00    +0.000 NA
ATOM      4  C   UNL     1       1.383   8.766  20.650  0.00  0.00    +0.000 A 
ATOM      5  N   UNL     1       1.198   9.842  19.822  0.00  0.00    +0.000 N 
ATOM      6  C   UNL     1       1.463   9.812  18.399  0.00  0.00    +0.000 C 
ATOM      7  C   UNL     1       1.440   8.376  17.862  0.00  0.00    +0.000 C 
ATOM      8  N   UNL     1       2.241   7.499  18.709  0.00  0.00    +0.000 N 
ATOM      9  C   UNL     1       3.374   6.941  18.238  0.00  0.00    +0.000 A 
ATOM     10  N   UNL     1       3.917   7.078  17.045  0.00  0.00    +0.000 NA
ATOM     11  C   UNL     1       5.049   6.305  17.106  0.00  0.00    +0.000 A 
ATOM     12  C   UNL     1       6.049   6.051  16.158  0.00  0.00    +0.000 A 
ATOM     13  C   UNL     1       7.107   5.203  16.525  0.00  0.00    +0.000 A 
ATOM     14  C   UNL     1       7.164   4.623  17.799  0.00  0.00    +0.000 A 
ATOM     15  C   UNL     1       6.169   4.866  18.754  0.00  0.00    +0.000 A 
ATOM     16  C   UNL     1       5.144   5.714  18.352  0.00  0.00    +0.000 A 
ATOM     17  O   UNL     1       4.068   6.116  19.083  0.00  0.00    +0.000 OA
ATOM     18  C   UNL     1       1.901   7.462  20.135  0.00  0.00    +0.000 C 
ENDROOT
BRANCH   1  20
ATOM     19  C   UNL     1      -0.931  12.408  19.645  0.00  0.00    +0.000 C 
ATOM     20  C   UNL     1       0.509  12.269  20.137  0.00  0.00    +0.000 C 
ATOM     21  C   UNL     1       0.794  13.289  21.243  0.00  0.00    +0.000 C 
ENDBRANCH   1  20
TORSDOF 1
ENDMDL
MODEL 5
REMARK VINA RESULT:      -6.4      5.869      8.231
REMARK  Name = 
REMARK  3 active torsions:
REMARK  status: ('A' for Active; 'I' for Inactive)
REMARK    1  A    between atoms: C_1  and  C_2
REMARK    2  A    between atoms: C_2  and  C_3
REMARK    3  A    between atoms: C_2  and  C_4
REMARK                            x       y       z     vdW  Elec       q    Type
REMARK                         _______ _______ _______ _____ _____    ______ ____
ROOT
ATOM      1  C   UNL     1       0.812  12.635  20.765  0.00  0.00    +0.000 A 
ATOM      2  N   UNL     1       0.366  12.291  21.959  0.00  0.00    +0.000 NA
ATOM      3  N   UNL     1       0.275  10.918  22.016  0.00  0.00    +0.000 NA
ATOM      4  C   UNL     1       0.659  10.446  20.852  0.00  0.00    +0.000 A 
ATOM      5  N   UNL     1       0.971  11.495  20.027  0.00  0.00    +0.000 N 
ATOM      6  C   UNL     1       1.413  11.332  18.657  0.00  0.00    +0.000 C 
ATOM      7  C   UNL     1       0.982   9.972  18.095  0.00  0.00    +0.000 C 
ATOM      8  N   UNL     1       1.307   8.903  19.034  0.00  0.00    +0.000 N 
ATOM      9  C   UNL     1       2.239   7.980  18.723  0.00  0.00    +0.000 A 
ATOM     10  N   UNL     1       2.962   7.887  17.625  0.00  0.00    +0.000 NA
ATOM     11  C   UNL     1       3.744   6.779  17.836  0.00  0.00    +0.000 A 
ATOM     12  C   UNL     1       4.724   6.172  17.041  0.00  0.00    +0.000 A 
ATOM     13  C   UNL     1       5.367   5.029  17.542  0.00  0.00    +0.000 A 
ATOM     14  C   UNL     1       5.039   4.504  18.799  0.00  0.00    +0.000 A 
ATOM     15  C   UNL     1       4.059   5.099  19.603  0.00  0.00    +0.000 A 
ATOM     16  C   UNL     1       3.452   6.231  19.071  0.00  0.00    +0.000 A 
ATOM     17  O   UNL     1       2.483   6.996  19.644  0.00  0.00    +0.000 OA
ATOM     18  C   UNL     1       0.773   9.029  20.393  0.00  0.00    +0.000 C 
ENDROOT
BRANCH   1  20
ATOM     19  C   UNL     1      -0.071  14.578  19.487  0.00  0.00    +0.000 C 
ATOM     20  C   UNL     1       1.108  14.021  20.284  0.00  0.00    +0.000 C 
ATOM     21  C   UNL     1       1.446  14.948  21.454  0.00  0.00    +0.000 C 
ENDBRANCH   1  20
TORSDOF 1
ENDMDL
MODEL 6
REMARK VINA RESULT:      -6.1      5.749      7.179
REMARK  Name = 
REMARK  3 active torsions:
REMARK  status: ('A' for Active; 'I' for Inactive)
REMARK    1  A    between atoms: C_1  and  C_2
REMARK    2  A    between atoms: C_2  and  C_3
REMARK    3  A    between atoms: C_2  and  C_4
REMARK                            x       y       z     vdW  Elec       q    Type
REMARK                         _______ _______ _______ _____ _____    ______ ____
ROOT
ATOM      1  C   UNL     1       2.327   4.282  18.933  0.00  0.00    +0.000 A 
ATOM      2  N   UNL     1       2.335   3.879  20.190  0.00  0.00    +0.000 NA
ATOM      3  N   UNL     1       2.219   4.982  21.007  0.00  0.00    +0.000 NA
ATOM      4  C   UNL     1       2.150   6.042  20.235  0.00  0.00    +0.000 A 
ATOM      5  N   UNL     1       2.249   5.648  18.926  0.00  0.00    +0.000 N 
ATOM      6  C   UNL     1       2.230   6.569  17.808  0.00  0.00    +0.000 C 
ATOM      7  C   UNL     1       2.626   7.983  18.250  0.00  0.00    +0.000 C 
ATOM      8  N   UNL     1       1.888   8.371  19.448  0.00  0.00    +0.000 N 
ATOM      9  C   UNL     1       0.981   9.366  19.401  0.00  0.00    +0.000 A 
ATOM     10  N   UNL     1       0.623  10.096  18.363  0.00  0.00    +0.000 NA
ATOM     11  C   UNL     1      -0.327  10.947  18.869  0.00  0.00    +0.000 A 
ATOM     12  C   UNL     1      -1.090  11.952  18.260  0.00  0.00    +0.000 A 
ATOM     13  C   UNL     1      -2.003  12.663  19.055  0.00  0.00    +0.000 A 
ATOM     14  C   UNL     1      -2.148  12.382  20.420  0.00  0.00    +0.000 A 
ATOM     15  C   UNL     1      -1.391  11.383  21.042  0.00  0.00    +0.000 A 
ATOM     16  C   UNL     1      -0.504  10.701  20.218  0.00  0.00    +0.000 A 
ATOM     17  O   UNL     1       0.337   9.688  20.566  0.00  0.00    +0.000 OA
ATOM     18  C   UNL     1       1.993   7.481  20.608  0.00  0.00    +0.000 C 
ENDROOT
BRANCH   1  20
ATOM     19  C   UNL     1       3.780   3.437  17.100  0.00  0.00    +0.000 C 
ATOM     20  C   UNL     1       2.381   3.416  17.714  0.00  0.00    +0.000 C 
ATOM     21  C   UNL     1       1.964   1.980  18.041  0.00  0.00    +0.000 C 
ENDBRANCH   1  20
TORSDOF 1
ENDMDL
MODEL 7
REMARK VINA RESULT:      -6.0      7.190      9.843
REMARK  Name = 
REMARK  3 active torsions:
REMARK  status: ('A' for Active; 'I' for Inactive)
REMARK    1  A    between atoms: C_1  and  C_2
REMARK    2  A    between atoms: C_2  and  C_3
REMARK    3  A    between atoms: C_2  and  C_4
REMARK                            x       y       z     vdW  Elec       q    Type
REMARK                         _______ _______ _______ _____ _____    ______ ____
ROOT
ATOM      1  C   UNL     1      -2.010  12.458  22.128  0.00  0.00    +0.000 A 
ATOM      2  N   UNL     1      -1.667  13.394  21.262  0.00  0.00    +0.000 NA
ATOM      3  N   UNL     1      -0.496  13.012  20.644  0.00  0.00    +0.000 NA
ATOM      4  C   UNL     1      -0.139  11.854  21.150  0.00  0.00    +0.000 A 
ATOM      5  N   UNL     1      -1.046  11.489  22.110  0.00  0.00    +0.000 N 
ATOM      6  C   UNL     1      -0.943  10.270  22.886  0.00  0.00    +0.000 C 
ATOM      7  C   UNL     1       0.498   9.746  22.905  0.00  0.00    +0.000 C 
ATOM      8  N   UNL     1       1.055   9.729  21.556  0.00  0.00    +0.000 N 
ATOM      9  C   UNL     1       1.352   8.560  20.954  0.00  0.00    +0.000 A 
ATOM     10  N   UNL     1       1.200   7.338  21.423  0.00  0.00    +0.000 NA
ATOM     11  C   UNL     1       1.652   6.534  20.406  0.00  0.00    +0.000 A 
ATOM     12  C   UNL     1       1.736   5.140  20.295  0.00  0.00    +0.000 A 
ATOM     13  C   UNL     1       2.248   4.602  19.103  0.00  0.00    +0.000 A 
ATOM     14  C   UNL     1       2.666   5.432  18.053  0.00  0.00    +0.000 A 
ATOM     15  C   UNL     1       2.590   6.826  18.153  0.00  0.00    +0.000 A 
ATOM     16  C   UNL     1       2.073   7.316  19.346  0.00  0.00    +0.000 A 
ATOM     17  O   UNL     1       1.886   8.619  19.694  0.00  0.00    +0.000 OA
ATOM     18  C   UNL     1       1.035  10.993  20.815  0.00  0.00    +0.000 C 
ENDROOT
BRANCH   1  20
ATOM     19  C   UNL     1      -3.123  13.452  24.118  0.00  0.00    +0.000 C 
ATOM     20  C   UNL     1      -3.238  12.436  22.982  0.00  0.00    +0.000 C 
ATOM     21  C   UNL     1      -4.492  12.710  22.149  0.00  0.00    +0.000 C 
ENDBRANCH   1  20
TORSDOF 1
ENDMDL
MODEL 8
REMARK VINA RESULT:      -5.9      9.640     11.580
REMARK  Name = 
REMARK  3 active torsions:
REMARK  status: ('A' for Active; 'I' for Inactive)
REMARK    1  A    between atoms: C_1  and  C_2
REMARK    2  A    between atoms: C_2  and  C_3
REMARK    3  A    between atoms: C_2  and  C_4
REMARK                            x       y       z     vdW  Elec       q    Type
REMARK                         _______ _______ _______ _____ _____    ______ ____
ROOT
ATOM      1  C   UNL     1       0.684   9.471  20.239  0.00  0.00    +0.000 A 
ATOM      2  N   UNL     1       0.679   8.390  20.997  0.00  0.00    +0.000 NA
ATOM      3  N   UNL     1       0.017   8.678  22.170  0.00  0.00    +0.000 NA
ATOM      4  C   UNL     1      -0.364   9.934  22.113  0.00  0.00    +0.000 A 
ATOM      5  N   UNL     1       0.067  10.476  20.930  0.00  0.00    +0.000 N 
ATOM      6  C   UNL     1      -0.165  11.855  20.550  0.00  0.00    +0.000 C 
ATOM      7  C   UNL     1      -0.437  12.729  21.781  0.00  0.00    +0.000 C 
ATOM      8  N   UNL     1      -1.427  12.099  22.649  0.00  0.00    +0.000 N 
ATOM      9  C   UNL     1      -2.642  12.658  22.819  0.00  0.00    +0.000 A 
ATOM     10  N   UNL     1      -3.115  13.764  22.280  0.00  0.00    +0.000 NA
ATOM     11  C   UNL     1      -4.387  13.860  22.785  0.00  0.00    +0.000 A 
ATOM     12  C   UNL     1      -5.396  14.810  22.578  0.00  0.00    +0.000 A 
ATOM     13  C   UNL     1      -6.619  14.631  23.245  0.00  0.00    +0.000 A 
ATOM     14  C   UNL     1      -6.827  13.537  24.097  0.00  0.00    +0.000 A 
ATOM     15  C   UNL     1      -5.827  12.583  24.314  0.00  0.00    +0.000 A 
ATOM     16  C   UNL     1      -4.635  12.796  23.631  0.00  0.00    +0.000 A 
ATOM     17  O   UNL     1      -3.515  12.022  23.660  0.00  0.00    +0.000 OA
ATOM     18  C   UNL     1      -1.136  10.738  23.108  0.00  0.00    +0.000 C 
ENDROOT
BRANCH   1  20
ATOM     19  C   UNL     1       2.159   8.408  18.541  0.00  0.00    +0.000 C 
ATOM     20  C   UNL     1       1.251   9.595  18.860  0.00  0.00    +0.000 C 
ATOM     21  C   UNL     1       0.136   9.708  17.816  0.00  0.00    +0.000 C 
ENDBRANCH   1  20
TORSDOF 1
ENDMDL
MODEL 9
REMARK VINA RESULT:      -5.8      5.082      7.359
REMARK  Name = 
REMARK  3 active torsions:
REMARK  status: ('A' for Active; 'I' for Inactive)
REMARK    1  A    between atoms: C_1  and  C_2
REMARK    2  A    between atoms: C_2  and  C_3
REMARK    3  A    between atoms: C_2  and  C_4
REMARK                            x       y       z     vdW  Elec       q    Type
REMARK                         _______ _______ _______ _____ _____    ______ ____
ROOT
ATOM      1  C   UNL     1       0.638  11.113  21.357  0.00  0.00    +0.000 A 
ATOM      2  N   UNL     1       0.444  10.536  22.528  0.00  0.00    +0.000 NA
ATOM      3  N   UNL     1       0.714   9.191  22.406  0.00  0.00    +0.000 NA
ATOM      4  C   UNL     1       1.061   8.967  21.159  0.00  0.00    +0.000 A 
ATOM      5  N   UNL     1       0.992  10.143  20.459  0.00  0.00    +0.000 N 
ATOM      6  C   UNL     1       1.290  10.253  19.046  0.00  0.00    +0.000 C 
ATOM      7  C   UNL     1       1.155   8.896  18.346  0.00  0.00    +0.000 C 
ATOM      8  N   UNL     1       1.855   7.859  19.097  0.00  0.00    +0.000 N 
ATOM      9  C   UNL     1       2.946   7.259  18.582  0.00  0.00    +0.000 A 
ATOM     10  N   UNL     1       3.529   7.482  17.422  0.00  0.00    +0.000 NA
ATOM     11  C   UNL     1       4.587   6.609  17.410  0.00  0.00    +0.000 A 
ATOM     12  C   UNL     1       5.586   6.376  16.455  0.00  0.00    +0.000 A 
ATOM     13  C   UNL     1       6.556   5.400  16.737  0.00  0.00    +0.000 A 
ATOM     14  C   UNL     1       6.528   4.675  17.936  0.00  0.00    +0.000 A 
ATOM     15  C   UNL     1       5.534   4.895  18.897  0.00  0.00    +0.000 A 
ATOM     16  C   UNL     1       4.598   5.873  18.580  0.00  0.00    +0.000 A 
ATOM     17  O   UNL     1       3.543   6.284  19.336  0.00  0.00    +0.000 OA
ATOM     18  C   UNL     1       1.476   7.690  20.503  0.00  0.00    +0.000 C 
ENDROOT
BRANCH   1  20
ATOM     19  C   UNL     1       1.841  13.134  20.548  0.00  0.00    +0.000 C 
ATOM     20  C   UNL     1       0.510  12.571  21.044  0.00  0.00    +0.000 C 
ATOM     21  C   UNL     1      -0.591  12.815  20.008  0.00  0.00    +0.000 C 
ENDBRANCH   1  20
TORSDOF 1
ENDMDL
