MODEL 1
REMARK VINA RESULT:      -7.7      0.000      0.000
REMARK  Name = 
REMARK  16 active torsions:
REMARK  status: ('A' for Active; 'I' for Inactive)
REMARK    1  A    between atoms: C_1  and  C_2
REMARK    2  A    between atoms: C_2  and  C_3
REMARK    3  A    between atoms: C_3  and  C_4
REMARK    4  A    between atoms: C_4  and  C_5
REMARK    5  A    between atoms: C_5  and  C_6
REMARK    6  A    between atoms: C_6  and  C_7
REMARK    7  A    between atoms: C_7  and  C_8
REMARK    8  A    between atoms: C_8  and  O_9
REMARK    9  A    between atoms: O_9  and  C_10
REMARK   10  A    between atoms: C_13  and  C_14
REMARK   11  A    between atoms: C_17  and  C_18
REMARK   12  A    between atoms: N_20  and  C_21
REMARK   13  A    between atoms: C_26  and  C_27
REMARK   14  A    between atoms: C_27  and  P_28
REMARK   15  A    between atoms: P_28  and  O_30
REMARK   16  A    between atoms: P_28  and  O_31
REMARK                            x       y       z     vdW  Elec       q    Type
REMARK                         _______ _______ _______ _____ _____    ______ ____
ROOT
ATOM      1  C   UNL     1       0.584   9.264  20.589  0.00  0.00    +0.000 A 
ATOM      2  C   UNL     1       0.003  10.434  20.069  0.00  0.00    +0.000 A 
ATOM      3  C   UNL     1      -0.791  11.279  20.851  0.00  0.00    +0.000 A 
ATOM      4  C   UNL     1      -1.083  10.976  22.184  0.00  0.00    +0.000 A 
ATOM      5  C   UNL     1      -0.515   9.812  22.723  0.00  0.00    +0.000 A 
ATOM      6  C   UNL     1       0.305   8.968  21.932  0.00  0.00    +0.000 A 
ENDROOT
BRANCH   1  10
ATOM      7  C   UNL     1       3.300   7.077  17.999  0.00  0.00    +0.000 A 
ATOM      8  C   UNL     1       2.684   8.257  17.599  0.00  0.00    +0.000 A 
ATOM      9  C   UNL     1       1.829   8.937  18.452  0.00  0.00    +0.000 A 
ATOM     10  C   UNL     1       1.505   8.462  19.736  0.00  0.00    +0.000 A 
ATOM     11  C   UNL     1       2.095   7.245  20.119  0.00  0.00    +0.000 A 
ATOM     12  C   UNL     1       2.986   6.561  19.260  0.00  0.00    +0.000 A 
BRANCH   7  13
ATOM     13  O   UNL     1       4.217   6.399  17.231  0.00  0.00    +0.000 OA
BRANCH  13  14
ATOM     14  C   UNL     1       4.626   5.147  17.802  0.00  0.00    +0.000 C 
BRANCH  14  15
ATOM     15  C   UNL     1       4.120   3.956  17.003  0.00  0.00    +0.000 C 
BRANCH  15  16
ATOM     16  C   UNL     1       3.870   2.784  17.959  0.00  0.00    +0.000 C 
BRANCH  16  17
ATOM     17  C   UNL     1       2.531   2.115  17.682  0.00  0.00    +0.000 C 
BRANCH  17  18
ATOM     18  C   UNL     1       1.663   2.059  18.942  0.00  0.00    +0.000 C 
BRANCH  18  19
ATOM     19  C   UNL     1       1.147   3.453  19.293  0.00  0.00    +0.000 C 
BRANCH  19  21
ATOM     20  C   UNL     1       2.276   3.121  21.510  0.00  0.00    +0.000 C 
ATOM     21  C   UNL     1       1.041   3.654  20.801  0.00  0.00    +0.000 C 
ENDBRANCH  19  21
ENDBRANCH  18  19
ENDBRANCH  17  18
ENDBRANCH  16  17
ENDBRANCH  15  16
ENDBRANCH  14  15
ENDBRANCH  13  14
ENDBRANCH   7  13
ENDBRANCH   1  10
BRANCH   4  22
ATOM     22  C   UNL     1      -2.054  11.894  22.888  0.00  0.00    +0.000 C 
ATOM     23  O   UNL     1      -2.785  11.394  23.738  0.00  0.00    +0.000 OA
ATOM     24  N   UNL     1      -1.959  13.253  22.629  0.00  0.00    +0.000 N 
ATOM     25  H   UNL     1      -1.142  13.511  22.097  0.00  0.00    +0.000 HD
BRANCH  24  26
ATOM     26  C   UNL     1      -2.370  14.265  23.543  0.00  0.00    +0.000 A 
ATOM     27  C   UNL     1      -1.313  14.777  24.329  0.00  0.00    +0.000 A 
ATOM     28  C   UNL     1      -1.528  15.728  25.326  0.00  0.00    +0.000 A 
ATOM     29  C   UNL     1      -2.800  16.239  25.518  0.00  0.00    +0.000 A 
ATOM     30  C   UNL     1      -3.849  15.781  24.722  0.00  0.00    +0.000 A 
ATOM     31  C   UNL     1      -3.669  14.773  23.741  0.00  0.00    +0.000 A 
BRANCH  31  32
ATOM     32  C   UNL     1      -4.926  14.357  23.009  0.00  0.00    +0.000 C 
BRANCH  32  33
ATOM     33  P   UNL     1      -6.105  13.220  23.676  0.00  0.00    +0.000 P 
ATOM     34  O   UNL     1      -5.656  12.086  24.543  0.00  0.00    +0.000 OA
BRANCH  33  35
ATOM     35  O   UNL     1      -7.124  14.172  24.485  0.00  0.00    +0.000 OA
ATOM     36  H   UNL     1      -7.871  14.480  23.942  0.00  0.00    +0.000 HD
ENDBRANCH  33  35
BRANCH  33  37
ATOM     37  O   UNL     1      -7.085  12.724  22.507  0.00  0.00    +0.000 OA
ATOM     38  H   UNL     1      -7.897  13.253  22.451  0.00  0.00    +0.000 HD
ENDBRANCH  33  37
ENDBRANCH  32  33
ENDBRANCH  31  32
ENDBRANCH  24  26
ENDBRANCH   4  22
TORSDOF 15
ENDMDL
MODEL 2
REMARK VINA RESULT:      -7.3      4.192     11.726
REMARK  Name = 
REMARK  16 active torsions:
REMARK  status: ('A' for Active; 'I' for Inactive)
REMARK    1  A    between atoms: C_1  and  C_2
REMARK    2  A    between atoms: C_2  and  C_3
REMARK    3  A    between atoms: C_3  and  C_4
REMARK    4  A    between atoms: C_4  and  C_5
REMARK    5  A    between atoms: C_5  and  C_6
REMARK    6  A    between atoms: C_6  and  C_7
REMARK    7  A    between atoms: C_7  and  C_8
REMARK    8  A    between atoms: C_8  and  O_9
REMARK    9  A    between atoms: O_9  and  C_10
REMARK   10  A    between atoms: C_13  and  C_14
REMARK   11  A    between atoms: C_17  and  C_18
REMARK   12  A    between atoms: N_20  and  C_21
REMARK   13  A    between atoms: C_26  and  C_27
REMARK   14  A    between atoms: C_27  and  P_28
REMARK   15  A    between atoms: P_28  and  O_30
REMARK   16  A    between atoms: P_28  and  O_31
REMARK                            x       y       z     vdW  Elec       q    Type
REMARK                         _______ _______ _______ _____ _____    ______ ____
ROOT
ATOM      1  C   UNL     1       0.540  10.061  19.615  0.00  0.00    +0.000 A 
ATOM      2  C   UNL     1       0.868   9.095  20.582  0.00  0.00    +0.000 A 
ATOM      3  C   UNL     1       1.703   8.011  20.295  0.00  0.00    +0.000 A 
ATOM      4  C   UNL     1       2.221   7.811  19.012  0.00  0.00    +0.000 A 
ATOM      5  C   UNL     1       1.905   8.762  18.030  0.00  0.00    +0.000 A 
ATOM      6  C   UNL     1       1.073   9.870  18.330  0.00  0.00    +0.000 A 
ENDROOT
BRANCH   1  10
ATOM      7  C   UNL     1      -1.860  13.550  20.582  0.00  0.00    +0.000 A 
ATOM      8  C   UNL     1      -1.339  13.339  19.311  0.00  0.00    +0.000 A 
ATOM      9  C   UNL     1      -0.584  12.210  19.031  0.00  0.00    +0.000 A 
ATOM     10  C   UNL     1      -0.269  11.249  20.008  0.00  0.00    +0.000 A 
ATOM     11  C   UNL     1      -0.761  11.490  21.302  0.00  0.00    +0.000 A 
ATOM     12  C   UNL     1      -1.551  12.628  21.585  0.00  0.00    +0.000 A 
BRANCH   7  13
ATOM     13  O   UNL     1      -2.680  14.606  20.902  0.00  0.00    +0.000 OA
BRANCH  13  14
ATOM     14  C   UNL     1      -3.717  14.262  21.834  0.00  0.00    +0.000 C 
BRANCH  14  15
ATOM     15  C   UNL     1      -5.035  13.953  21.142  0.00  0.00    +0.000 C 
BRANCH  15  16
ATOM     16  C   UNL     1      -5.544  12.590  21.626  0.00  0.00    +0.000 C 
BRANCH  16  17
ATOM     17  C   UNL     1      -7.062  12.565  21.724  0.00  0.00    +0.000 C 
BRANCH  17  18
ATOM     18  C   UNL     1      -7.671  11.573  20.730  0.00  0.00    +0.000 C 
BRANCH  18  19
ATOM     19  C   UNL     1      -6.591  11.021  19.803  0.00  0.00    +0.000 C 
BRANCH  19  21
ATOM     20  C   UNL     1      -7.472   8.735  20.351  0.00  0.00    +0.000 C 
ATOM     21  C   UNL     1      -6.968   9.651  19.247  0.00  0.00    +0.000 C 
ENDBRANCH  19  21
ENDBRANCH  18  19
ENDBRANCH  17  18
ENDBRANCH  16  17
ENDBRANCH  15  16
ENDBRANCH  14  15
ENDBRANCH  13  14
ENDBRANCH   7  13
ENDBRANCH   1  10
BRANCH   4  22
ATOM     22  C   UNL     1       3.005   6.539  18.791  0.00  0.00    +0.000 C 
ATOM     23  O   UNL     1       3.982   6.350  19.511  0.00  0.00    +0.000 OA
ATOM     24  N   UNL     1       2.493   5.614  17.895  0.00  0.00    +0.000 N 
ATOM     25  H   UNL     1       1.557   5.822  17.582  0.00  0.00    +0.000 HD
BRANCH  24  26
ATOM     26  C   UNL     1       2.759   4.216  17.959  0.00  0.00    +0.000 A 
ATOM     27  C   UNL     1       1.809   3.496  18.717  0.00  0.00    +0.000 A 
ATOM     28  C   UNL     1       1.934   2.127  18.950  0.00  0.00    +0.000 A 
ATOM     29  C   UNL     1       2.982   1.430  18.374  0.00  0.00    +0.000 A 
ATOM     30  C   UNL     1       3.905   2.113  17.584  0.00  0.00    +0.000 A 
ATOM     31  C   UNL     1       3.834   3.515  17.379  0.00  0.00    +0.000 A 
BRANCH  31  32
ATOM     32  C   UNL     1       4.951   4.099  16.541  0.00  0.00    +0.000 C 
BRANCH  32  33
ATOM     33  P   UNL     1       6.478   4.671  17.223  0.00  0.00    +0.000 P 
ATOM     34  O   UNL     1       7.763   4.455  16.488  0.00  0.00    +0.000 OA
BRANCH  33  35
ATOM     35  O   UNL     1       6.220   6.245  17.447  0.00  0.00    +0.000 OA
ATOM     36  H   UNL     1       7.021   6.731  17.713  0.00  0.00    +0.000 HD
ENDBRANCH  33  35
BRANCH  33  37
ATOM     37  O   UNL     1       6.584   4.204  18.755  0.00  0.00    +0.000 OA
ATOM     38  H   UNL     1       5.816   3.683  19.039  0.00  0.00    +0.000 HD
ENDBRANCH  33  37
ENDBRANCH  32  33
ENDBRANCH  31  32
ENDBRANCH  24  26
ENDBRANCH   4  22
TORSDOF 15
ENDMDL
MODEL 3
REMARK VINA RESULT:      -7.3      3.976      5.606
REMARK  Name = 
REMARK  16 active torsions:
REMARK  status: ('A' for Active; 'I' for Inactive)
REMARK    1  A    between atoms: C_1  and  C_2
REMARK    2  A    between atoms: C_2  and  C_3
REMARK    3  A    between atoms: C_3  and  C_4
REMARK    4  A    between atoms: C_4  and  C_5
REMARK    5  A    between atoms: C_5  and  C_6
REMARK    6  A    between atoms: C_6  and  C_7
REMARK    7  A    between atoms: C_7  and  C_8
REMARK    8  A    between atoms: C_8  and  O_9
REMARK    9  A    between atoms: O_9  and  C_10
REMARK   10  A    between atoms: C_13  and  C_14
REMARK   11  A    between atoms: C_17  and  C_18
REMARK   12  A    between atoms: N_20  and  C_21
REMARK   13  A    between atoms: C_26  and  C_27
REMARK   14  A    between atoms: C_27  and  P_28
REMARK   15  A    between atoms: P_28  and  O_30
REMARK   16  A    between atoms: P_28  and  O_31
REMARK                            x       y       z     vdW  Elec       q    Type
REMARK                         _______ _______ _______ _____ _____    ______ ____
ROOT
ATOM      1  C   UNL     1       2.119   8.211  18.887  0.00  0.00    +0.000 A 
ATOM      2  C   UNL     1       1.859   9.194  17.917  0.00  0.00    +0.000 A 
ATOM      3  C   UNL     1       1.075  10.318  18.190  0.00  0.00    +0.000 A 
ATOM      4  C   UNL     1       0.470  10.498  19.437  0.00  0.00    +0.000 A 
ATOM      5  C   UNL     1       0.714   9.529  20.421  0.00  0.00    +0.000 A 
ATOM      6  C   UNL     1       1.525   8.399  20.146  0.00  0.00    +0.000 A 
ENDROOT
BRANCH   1  10
ATOM      7  C   UNL     1       4.917   5.059  17.839  0.00  0.00    +0.000 A 
ATOM      8  C   UNL     1       4.720   6.172  17.032  0.00  0.00    +0.000 A 
ATOM      9  C   UNL     1       3.826   7.167  17.399  0.00  0.00    +0.000 A 
ATOM     10  C   UNL     1       3.047   7.090  18.568  0.00  0.00    +0.000 A 
ATOM     11  C   UNL     1       3.217   5.941  19.357  0.00  0.00    +0.000 A 
ATOM     12  C   UNL     1       4.146   4.937  18.998  0.00  0.00    +0.000 A 
BRANCH   7  13
ATOM     13  O   UNL     1       5.845   4.080  17.572  0.00  0.00    +0.000 OA
BRANCH  13  14
ATOM     14  C   UNL     1       6.739   4.418  16.500  0.00  0.00    +0.000 C 
BRANCH  14  15
ATOM     15  C   UNL     1       6.314   3.798  15.178  0.00  0.00    +0.000 C 
BRANCH  15  16
ATOM     16  C   UNL     1       6.916   4.615  14.029  0.00  0.00    +0.000 C 
BRANCH  16  17
ATOM     17  C   UNL     1       6.204   4.334  12.713  0.00  0.00    +0.000 C 
BRANCH  17  18
ATOM     18  C   UNL     1       6.377   2.875  12.283  0.00  0.00    +0.000 C 
BRANCH  18  19
ATOM     19  C   UNL     1       5.202   2.437  11.411  0.00  0.00    +0.000 C 
BRANCH  19  21
ATOM     20  C   UNL     1       3.217   3.361  10.183  0.00  0.00    +0.000 C 
ATOM     21  C   UNL     1       4.064   3.452  11.443  0.00  0.00    +0.000 C 
ENDBRANCH  19  21
ENDBRANCH  18  19
ENDBRANCH  17  18
ENDBRANCH  16  17
ENDBRANCH  15  16
ENDBRANCH  14  15
ENDBRANCH  13  14
ENDBRANCH   7  13
ENDBRANCH   1  10
BRANCH   4  22
ATOM     22  C   UNL     1      -0.456  11.684  19.573  0.00  0.00    +0.000 C 
ATOM     23  O   UNL     1      -0.226  12.660  18.865  0.00  0.00    +0.000 OA
ATOM     24  N   UNL     1      -1.574  11.539  20.380  0.00  0.00    +0.000 N 
ATOM     25  H   UNL     1      -1.737  10.591  20.686  0.00  0.00    +0.000 HD
BRANCH  24  26
ATOM     26  C   UNL     1      -2.777  12.283  20.210  0.00  0.00    +0.000 A 
ATOM     27  C   UNL     1      -2.874  13.399  21.070  0.00  0.00    +0.000 A 
ATOM     28  C   UNL     1      -4.007  14.213  21.098  0.00  0.00    +0.000 A 
ATOM     29  C   UNL     1      -5.045  13.966  20.218  0.00  0.00    +0.000 A 
ATOM     30  C   UNL     1      -4.949  12.897  19.328  0.00  0.00    +0.000 A 
ATOM     31  C   UNL     1      -3.835  12.020  19.318  0.00  0.00    +0.000 A 
BRANCH  31  32
ATOM     32  C   UNL     1      -3.923  10.881  18.326  0.00  0.00    +0.000 C 
BRANCH  32  33
ATOM     33  P   UNL     1      -3.213  10.948  16.707  0.00  0.00    +0.000 P 
ATOM     34  O   UNL     1      -2.940   9.688  15.949  0.00  0.00    +0.000 OA
BRANCH  33  35
ATOM     35  O   UNL     1      -4.240  11.881  15.889  0.00  0.00    +0.000 OA
ATOM     36  H   UNL     1      -5.070  11.426  15.657  0.00  0.00    +0.000 HD
ENDBRANCH  33  35
BRANCH  33  37
ATOM     37  O   UNL     1      -1.937  11.919  16.726  0.00  0.00    +0.000 OA
ATOM     38  H   UNL     1      -1.112  11.447  16.923  0.00  0.00    +0.000 HD
ENDBRANCH  33  37
ENDBRANCH  32  33
ENDBRANCH  31  32
ENDBRANCH  24  26
ENDBRANCH   4  22
TORSDOF 15
ENDMDL
MODEL 4
REMARK VINA RESULT:      -7.2      3.845      5.663
REMARK  Name = 
REMARK  16 active torsions:
REMARK  status: ('A' for Active; 'I' for Inactive)
REMARK    1  A    between atoms: C_1  and  C_2
REMARK    2  A    between atoms: C_2  and  C_3
REMARK    3  A    between atoms: C_3  and  C_4
REMARK    4  A    between atoms: C_4  and  C_5
REMARK    5  A    between atoms: C_5  and  C_6
REMARK    6  A    between atoms: C_6  and  C_7
REMARK    7  A    between atoms: C_7  and  C_8
REMARK    8  A    between atoms: C_8  and  O_9
REMARK    9  A    between atoms: O_9  and  C_10
REMARK   10  A    between atoms: C_13  and  C_14
REMARK   11  A    between atoms: C_17  and  C_18
REMARK   12  A    between atoms: N_20  and  C_21
REMARK   13  A    between atoms: C_26  and  C_27
REMARK   14  A    between atoms: C_27  and  P_28
REMARK   15  A    between atoms: P_28  and  O_30
REMARK   16  A    between atoms: P_28  and  O_31
REMARK                            x       y       z     vdW  Elec       q    Type
REMARK                         _______ _______ _______ _____ _____    ______ ____
ROOT
ATOM      1  C   UNL     1       2.341   7.728  19.058  0.00  0.00    +0.000 A 
ATOM      2  C   UNL     1       1.981   7.382  20.373  0.00  0.00    +0.000 A 
ATOM      3  C   UNL     1       1.151   8.193  21.153  0.00  0.00    +0.000 A 
ATOM      4  C   UNL     1       0.671   9.416  20.676  0.00  0.00    +0.000 A 
ATOM      5  C   UNL     1       1.018   9.782  19.367  0.00  0.00    +0.000 A 
ATOM      6  C   UNL     1       1.845   8.949  18.572  0.00  0.00    +0.000 A 
ENDROOT
BRANCH   1  10
ATOM      7  C   UNL     1       4.541   4.819  16.700  0.00  0.00    +0.000 A 
ATOM      8  C   UNL     1       3.544   4.446  17.594  0.00  0.00    +0.000 A 
ATOM      9  C   UNL     1       2.853   5.399  18.326  0.00  0.00    +0.000 A 
ATOM     10  C   UNL     1       3.142   6.774  18.242  0.00  0.00    +0.000 A 
ATOM     11  C   UNL     1       4.181   7.141  17.370  0.00  0.00    +0.000 A 
ATOM     12  C   UNL     1       4.871   6.173  16.604  0.00  0.00    +0.000 A 
BRANCH   7  13
ATOM     13  O   UNL     1       5.206   3.930  15.889  0.00  0.00    +0.000 OA
BRANCH  13  14
ATOM     14  C   UNL     1       5.275   4.350  14.517  0.00  0.00    +0.000 C 
BRANCH  14  15
ATOM     15  C   UNL     1       6.706   4.414  14.005  0.00  0.00    +0.000 C 
BRANCH  15  16
ATOM     16  C   UNL     1       6.738   3.923  12.553  0.00  0.00    +0.000 C 
BRANCH  16  17
ATOM     17  C   UNL     1       5.860   2.696  12.360  0.00  0.00    +0.000 C 
BRANCH  17  18
ATOM     18  C   UNL     1       5.117   2.743  11.023  0.00  0.00    +0.000 C 
BRANCH  18  19
ATOM     19  C   UNL     1       3.795   3.491  11.177  0.00  0.00    +0.000 C 
BRANCH  19  21
ATOM     20  C   UNL     1       2.619   4.646   9.283  0.00  0.00    +0.000 C 
ATOM     21  C   UNL     1       2.897   3.311   9.957  0.00  0.00    +0.000 C 
ENDBRANCH  19  21
ENDBRANCH  18  19
ENDBRANCH  17  18
ENDBRANCH  16  17
ENDBRANCH  15  16
ENDBRANCH  14  15
ENDBRANCH  13  14
ENDBRANCH   7  13
ENDBRANCH   1  10
BRANCH   4  22
ATOM     22  C   UNL     1      -0.111  10.262  21.653  0.00  0.00    +0.000 C 
ATOM     23  O   UNL     1       0.308  10.320  22.806  0.00  0.00    +0.000 OA
ATOM     24  N   UNL     1      -1.159  11.019  21.155  0.00  0.00    +0.000 N 
ATOM     25  H   UNL     1      -1.205  11.041  20.147  0.00  0.00    +0.000 HD
BRANCH  24  26
ATOM     26  C   UNL     1      -1.626  12.222  21.759  0.00  0.00    +0.000 A 
ATOM     27  C   UNL     1      -2.452  12.002  22.884  0.00  0.00    +0.000 A 
ATOM     28  C   UNL     1      -3.058  13.054  23.572  0.00  0.00    +0.000 A 
ATOM     29  C   UNL     1      -2.800  14.358  23.187  0.00  0.00    +0.000 A 
ATOM     30  C   UNL     1      -1.951  14.598  22.107  0.00  0.00    +0.000 A 
ATOM     31  C   UNL     1      -1.368  13.546  21.356  0.00  0.00    +0.000 A 
BRANCH  31  32
ATOM     32  C   UNL     1      -0.519  13.988  20.184  0.00  0.00    +0.000 C 
BRANCH  32  33
ATOM     33  P   UNL     1       1.244  14.103  20.252  0.00  0.00    +0.000 P 
ATOM     34  O   UNL     1       2.057  14.015  18.999  0.00  0.00    +0.000 OA
BRANCH  33  35
ATOM     35  O   UNL     1       1.497  15.516  20.984  0.00  0.00    +0.000 OA
ATOM     36  H   UNL     1       2.368  15.573  21.415  0.00  0.00    +0.000 HD
ENDBRANCH  33  35
BRANCH  33  37
ATOM     37  O   UNL     1       1.797  13.117  21.390  0.00  0.00    +0.000 OA
ATOM     38  H   UNL     1       1.790  12.187  21.113  0.00  0.00    +0.000 HD
ENDBRANCH  33  37
ENDBRANCH  32  33
ENDBRANCH  31  32
ENDBRANCH  24  26
ENDBRANCH   4  22
TORSDOF 15
ENDMDL
MODEL 5
REMARK VINA RESULT:      -7.2      2.823      4.284
REMARK  Name = 
REMARK  16 active torsions:
REMARK  status: ('A' for Active; 'I' for Inactive)
REMARK    1  A    between atoms: C_1  and  C_2
REMARK    2  A    between atoms: C_2  and  C_3
REMARK    3  A    between atoms: C_3  and  C_4
REMARK    4  A    between atoms: C_4  and  C_5
REMARK    5  A    between atoms: C_5  and  C_6
REMARK    6  A    between atoms: C_6  and  C_7
REMARK    7  A    between atoms: C_7  and  C_8
REMARK    8  A    between atoms: C_8  and  O_9
REMARK    9  A    between atoms: O_9  and  C_10
REMARK   10  A    between atoms: C_13  and  C_14
REMARK   11  A    between atoms: C_17  and  C_18
REMARK   12  A    between atoms: N_20  and  C_21
REMARK   13  A    between atoms: C_26  and  C_27
REMARK   14  A    between atoms: C_27  and  P_28
REMARK   15  A    between atoms: P_28  and  O_30
REMARK   16  A    between atoms: P_28  and  O_31
REMARK                            x       y       z     vdW  Elec       q    Type
REMARK                         _______ _______ _______ _____ _____    ______ ____
ROOT
ATOM      1  C   UNL     1       1.785   8.066  19.660  0.00  0.00    +0.000 A 
ATOM      2  C   UNL     1       1.455   7.802  21.001  0.00  0.00    +0.000 A 
ATOM      3  C   UNL     1       0.669   8.676  21.758  0.00  0.00    +0.000 A 
ATOM      4  C   UNL     1       0.206   9.884  21.228  0.00  0.00    +0.000 A 
ATOM      5  C   UNL     1       0.525  10.169  19.892  0.00  0.00    +0.000 A 
ATOM      6  C   UNL     1       1.306   9.271  19.122  0.00  0.00    +0.000 A 
ENDROOT
BRANCH   1  10
ATOM      7  C   UNL     1       3.841   4.975  17.407  0.00  0.00    +0.000 A 
ATOM      8  C   UNL     1       2.871   4.677  18.356  0.00  0.00    +0.000 A 
ATOM      9  C   UNL     1       2.225   5.687  19.053  0.00  0.00    +0.000 A 
ATOM     10  C   UNL     1       2.537   7.048  18.875  0.00  0.00    +0.000 A 
ATOM     11  C   UNL     1       3.551   7.340  17.947  0.00  0.00    +0.000 A 
ATOM     12  C   UNL     1       4.194   6.313  17.218  0.00  0.00    +0.000 A 
BRANCH   7  13
ATOM     13  O   UNL     1       4.459   4.025  16.628  0.00  0.00    +0.000 OA
BRANCH  13  14
ATOM     14  C   UNL     1       5.578   4.534  15.887  0.00  0.00    +0.000 C 
BRANCH  14  15
ATOM     15  C   UNL     1       5.327   4.528  14.387  0.00  0.00    +0.000 C 
BRANCH  15  16
ATOM     16  C   UNL     1       6.313   3.562  13.721  0.00  0.00    +0.000 C 
BRANCH  16  17
ATOM     17  C   UNL     1       6.241   3.649  12.203  0.00  0.00    +0.000 C 
BRANCH  17  18
ATOM     18  C   UNL     1       5.701   2.354  11.593  0.00  0.00    +0.000 C 
BRANCH  18  19
ATOM     19  C   UNL     1       4.237   2.526  11.194  0.00  0.00    +0.000 C 
BRANCH  19  21
ATOM     20  C   UNL     1       2.991   4.139   9.729  0.00  0.00    +0.000 C 
ATOM     21  C   UNL     1       3.884   3.990  10.950  0.00  0.00    +0.000 C 
ENDBRANCH  19  21
ENDBRANCH  18  19
ENDBRANCH  17  18
ENDBRANCH  16  17
ENDBRANCH  15  16
ENDBRANCH  14  15
ENDBRANCH  13  14
ENDBRANCH   7  13
ENDBRANCH   1  10
BRANCH   4  22
ATOM     22  C   UNL     1      -0.525  10.803  22.179  0.00  0.00    +0.000 C 
ATOM     23  O   UNL     1      -0.400  10.582  23.380  0.00  0.00    +0.000 OA
ATOM     24  N   UNL     1      -1.169  11.905  21.641  0.00  0.00    +0.000 N 
ATOM     25  H   UNL     1      -0.960  12.067  20.667  0.00  0.00    +0.000 HD
BRANCH  24  26
ATOM     26  C   UNL     1      -1.418  13.108  22.363  0.00  0.00    +0.000 A 
ATOM     27  C   UNL     1      -0.316  13.992  22.381  0.00  0.00    +0.000 A 
ATOM     28  C   UNL     1      -0.343  15.192  23.091  0.00  0.00    +0.000 A 
ATOM     29  C   UNL     1      -1.501  15.568  23.749  0.00  0.00    +0.000 A 
ATOM     30  C   UNL     1      -2.616  14.732  23.705  0.00  0.00    +0.000 A 
ATOM     31  C   UNL     1      -2.596  13.480  23.039  0.00  0.00    +0.000 A 
BRANCH  31  32
ATOM     32  C   UNL     1      -3.875  12.678  23.141  0.00  0.00    +0.000 C 
BRANCH  32  33
ATOM     33  P   UNL     1      -5.312  13.016  22.168  0.00  0.00    +0.000 P 
ATOM     34  O   UNL     1      -6.283  11.924  21.848  0.00  0.00    +0.000 OA
BRANCH  33  35
ATOM     35  O   UNL     1      -6.046  14.195  22.984  0.00  0.00    +0.000 OA
ATOM     36  H   UNL     1      -6.264  13.947  23.901  0.00  0.00    +0.000 HD
ENDBRANCH  33  35
BRANCH  33  37
ATOM     37  O   UNL     1      -4.884  13.835  20.856  0.00  0.00    +0.000 OA
ATOM     38  H   UNL     1      -5.629  13.989  20.253  0.00  0.00    +0.000 HD
ENDBRANCH  33  37
ENDBRANCH  32  33
ENDBRANCH  31  32
ENDBRANCH  24  26
ENDBRANCH   4  22
TORSDOF 15
ENDMDL
MODEL 6
REMARK VINA RESULT:      -7.2      3.892      5.782
REMARK  Name = 
REMARK  16 active torsions:
REMARK  status: ('A' for Active; 'I' for Inactive)
REMARK    1  A    between atoms: C_1  and  C_2
REMARK    2  A    between atoms: C_2  and  C_3
REMARK    3  A    between atoms: C_3  and  C_4
REMARK    4  A    between atoms: C_4  and  C_5
REMARK    5  A    between atoms: C_5  and  C_6
REMARK    6  A    between atoms: C_6  and  C_7
REMARK    7  A    between atoms: C_7  and  C_8
REMARK    8  A    between atoms: C_8  and  O_9
REMARK    9  A    between atoms: O_9  and  C_10
REMARK   10  A    between atoms: C_13  and  C_14
REMARK   11  A    between atoms: C_17  and  C_18
REMARK   12  A    between atoms: N_20  and  C_21
REMARK   13  A    between atoms: C_26  and  C_27
REMARK   14  A    between atoms: C_27  and  P_28
REMARK   15  A    between atoms: P_28  and  O_30
REMARK   16  A    between atoms: P_28  and  O_31
REMARK                            x       y       z     vdW  Elec       q    Type
REMARK                         _______ _______ _______ _____ _____    ______ ____
ROOT
ATOM      1  C   UNL     1       2.011   8.032  18.706  0.00  0.00    +0.000 A 
ATOM      2  C   UNL     1       1.727   8.099  20.082  0.00  0.00    +0.000 A 
ATOM      3  C   UNL     1       0.829   9.031  20.611  0.00  0.00    +0.000 A 
ATOM      4  C   UNL     1       0.200   9.977  19.797  0.00  0.00    +0.000 A 
ATOM      5  C   UNL     1       0.469   9.931  18.422  0.00  0.00    +0.000 A 
ATOM      6  C   UNL     1       1.366   8.972  17.886  0.00  0.00    +0.000 A 
ENDROOT
BRANCH   1  10
ATOM      7  C   UNL     1       4.443   4.761  17.206  0.00  0.00    +0.000 A 
ATOM      8  C   UNL     1       3.245   4.546  17.878  0.00  0.00    +0.000 A 
ATOM      9  C   UNL     1       2.487   5.612  18.337  0.00  0.00    +0.000 A 
ATOM     10  C   UNL     1       2.896   6.950  18.191  0.00  0.00    +0.000 A 
ATOM     11  C   UNL     1       4.128   7.160  17.551  0.00  0.00    +0.000 A 
ATOM     12  C   UNL     1       4.893   6.076  17.060  0.00  0.00    +0.000 A 
BRANCH   7  13
ATOM     13  O   UNL     1       5.199   3.752  16.658  0.00  0.00    +0.000 OA
BRANCH  13  14
ATOM     14  C   UNL     1       6.295   4.228  15.862  0.00  0.00    +0.000 C 
BRANCH  14  15
ATOM     15  C   UNL     1       6.402   3.497  14.533  0.00  0.00    +0.000 C 
BRANCH  15  16
ATOM     16  C   UNL     1       6.472   4.530  13.401  0.00  0.00    +0.000 C 
BRANCH  16  17
ATOM     17  C   UNL     1       6.656   3.861  12.047  0.00  0.00    +0.000 C 
BRANCH  17  18
ATOM     18  C   UNL     1       5.596   2.783  11.806  0.00  0.00    +0.000 C 
BRANCH  18  19
ATOM     19  C   UNL     1       4.205   3.411  11.757  0.00  0.00    +0.000 C 
BRANCH  19  21
ATOM     20  C   UNL     1       2.999   4.290   9.738  0.00  0.00    +0.000 C 
ATOM     21  C   UNL     1       3.463   3.044  10.475  0.00  0.00    +0.000 C 
ENDBRANCH  19  21
ENDBRANCH  18  19
ENDBRANCH  17  18
ENDBRANCH  16  17
ENDBRANCH  15  16
ENDBRANCH  14  15
ENDBRANCH  13  14
ENDBRANCH   7  13
ENDBRANCH   1  10
BRANCH   4  22
ATOM     22  C   UNL     1      -0.649  11.012  20.498  0.00  0.00    +0.000 C 
ATOM     23  O   UNL     1      -0.595  11.046  21.724  0.00  0.00    +0.000 OA
ATOM     24  N   UNL     1      -1.319  11.936  19.711  0.00  0.00    +0.000 N 
ATOM     25  H   UNL     1      -1.053  11.914  18.738  0.00  0.00    +0.000 HD
BRANCH  24  26
ATOM     26  C   UNL     1      -1.689  13.237  20.157  0.00  0.00    +0.000 A 
ATOM     27  C   UNL     1      -3.023  13.317  20.616  0.00  0.00    +0.000 A 
ATOM     28  C   UNL     1      -3.590  14.521  21.032  0.00  0.00    +0.000 A 
ATOM     29  C   UNL     1      -2.813  15.666  21.060  0.00  0.00    +0.000 A 
ATOM     30  C   UNL     1      -1.481  15.600  20.655  0.00  0.00    +0.000 A 
ATOM     31  C   UNL     1      -0.896  14.401  20.173  0.00  0.00    +0.000 A 
BRANCH  31  32
ATOM     32  C   UNL     1       0.543  14.524  19.724  0.00  0.00    +0.000 C 
BRANCH  32  33
ATOM     33  P   UNL     1       1.920  14.351  20.820  0.00  0.00    +0.000 P 
ATOM     34  O   UNL     1       2.039  15.224  22.029  0.00  0.00    +0.000 OA
BRANCH  33  35
ATOM     35  O   UNL     1       1.857  12.801  21.255  0.00  0.00    +0.000 OA
ATOM     36  H   UNL     1       1.972  12.667  22.213  0.00  0.00    +0.000 HD
ENDBRANCH  33  35
BRANCH  33  37
ATOM     37  O   UNL     1       3.279  14.328  19.967  0.00  0.00    +0.000 OA
ATOM     38  H   UNL     1       3.936  13.712  20.329  0.00  0.00    +0.000 HD
ENDBRANCH  33  37
ENDBRANCH  32  33
ENDBRANCH  31  32
ENDBRANCH  24  26
ENDBRANCH   4  22
TORSDOF 15
ENDMDL
MODEL 7
REMARK VINA RESULT:      -7.1      2.375      3.082
REMARK  Name = 
REMARK  16 active torsions:
REMARK  status: ('A' for Active; 'I' for Inactive)
REMARK    1  A    between atoms: C_1  and  C_2
REMARK    2  A    between atoms: C_2  and  C_3
REMARK    3  A    between atoms: C_3  and  C_4
REMARK    4  A    between atoms: C_4  and  C_5
REMARK    5  A    between atoms: C_5  and  C_6
REMARK    6  A    between atoms: C_6  and  C_7
REMARK    7  A    between atoms: C_7  and  C_8
REMARK    8  A    between atoms: C_8  and  O_9
REMARK    9  A    between atoms: O_9  and  C_10
REMARK   10  A    between atoms: C_13  and  C_14
REMARK   11  A    between atoms: C_17  and  C_18
REMARK   12  A    between atoms: N_20  and  C_21
REMARK   13  A    between atoms: C_26  and  C_27
REMARK   14  A    between atoms: C_27  and  P_28
REMARK   15  A    between atoms: P_28  and  O_30
REMARK   16  A    between atoms: P_28  and  O_31
REMARK                            x       y       z     vdW  Elec       q    Type
REMARK                         _______ _______ _______ _____ _____    ______ ____
ROOT
ATOM      1  C   UNL     1       0.185   9.893  20.296  0.00  0.00    +0.000 A 
ATOM      2  C   UNL     1      -0.823  10.489  19.518  0.00  0.00    +0.000 A 
ATOM      3  C   UNL     1      -1.680  11.466  20.034  0.00  0.00    +0.000 A 
ATOM      4  C   UNL     1      -1.605  11.867  21.371  0.00  0.00    +0.000 A 
ATOM      5  C   UNL     1      -0.608  11.284  22.167  0.00  0.00    +0.000 A 
ATOM      6  C   UNL     1       0.272  10.308  21.635  0.00  0.00    +0.000 A 
ENDROOT
BRANCH   1  10
ATOM      7  C   UNL     1       2.996   7.236  18.321  0.00  0.00    +0.000 A 
ATOM      8  C   UNL     1       2.464   8.354  17.688  0.00  0.00    +0.000 A 
ATOM      9  C   UNL     1       1.575   9.188  18.349  0.00  0.00    +0.000 A 
ATOM     10  C   UNL     1       1.133   8.936  19.661  0.00  0.00    +0.000 A 
ATOM     11  C   UNL     1       1.639   7.780  20.279  0.00  0.00    +0.000 A 
ATOM     12  C   UNL     1       2.564   6.941  19.617  0.00  0.00    +0.000 A 
BRANCH   7  13
ATOM     13  O   UNL     1       3.939   6.416  17.749  0.00  0.00    +0.000 OA
BRANCH  13  14
ATOM     14  C   UNL     1       4.750   5.721  18.709  0.00  0.00    +0.000 C 
BRANCH  14  15
ATOM     15  C   UNL     1       5.510   4.559  18.088  0.00  0.00    +0.000 C 
BRANCH  15  16
ATOM     16  C   UNL     1       4.529   3.692  17.291  0.00  0.00    +0.000 C 
BRANCH  16  17
ATOM     17  C   UNL     1       3.741   2.761  18.201  0.00  0.00    +0.000 C 
BRANCH  17  18
ATOM     18  C   UNL     1       2.291   2.617  17.733  0.00  0.00    +0.000 C 
BRANCH  18  19
ATOM     19  C   UNL     1       1.400   3.630  18.448  0.00  0.00    +0.000 C 
BRANCH  19  21
ATOM     20  C   UNL     1       1.447   3.438  20.951  0.00  0.00    +0.000 C 
ATOM     21  C   UNL     1       0.727   3.025  19.677  0.00  0.00    +0.000 C 
ENDBRANCH  19  21
ENDBRANCH  18  19
ENDBRANCH  17  18
ENDBRANCH  16  17
ENDBRANCH  15  16
ENDBRANCH  14  15
ENDBRANCH  13  14
ENDBRANCH   7  13
ENDBRANCH   1  10
BRANCH   4  22
ATOM     22  C   UNL     1      -2.664  12.834  21.846  0.00  0.00    +0.000 C 
ATOM     23  O   UNL     1      -2.401  14.031  21.781  0.00  0.00    +0.000 OA
ATOM     24  N   UNL     1      -3.902  12.314  22.192  0.00  0.00    +0.000 N 
ATOM     25  H   UNL     1      -4.020  11.342  21.949  0.00  0.00    +0.000 HD
BRANCH  24  26
ATOM     26  C   UNL     1      -5.117  13.054  22.129  0.00  0.00    +0.000 A 
ATOM     27  C   UNL     1      -5.543  13.545  23.384  0.00  0.00    +0.000 A 
ATOM     28  C   UNL     1      -6.743  14.238  23.538  0.00  0.00    +0.000 A 
ATOM     29  C   UNL     1      -7.519  14.512  22.425  0.00  0.00    +0.000 A 
ATOM     30  C   UNL     1      -7.094  14.077  21.170  0.00  0.00    +0.000 A 
ATOM     31  C   UNL     1      -5.907  13.322  20.994  0.00  0.00    +0.000 A 
BRANCH  31  32
ATOM     32  C   UNL     1      -5.629  12.885  19.573  0.00  0.00    +0.000 C 
BRANCH  32  33
ATOM     33  P   UNL     1      -6.194  11.349  18.902  0.00  0.00    +0.000 P 
ATOM     34  O   UNL     1      -7.004  10.410  19.739  0.00  0.00    +0.000 OA
BRANCH  33  35
ATOM     35  O   UNL     1      -7.028  11.797  17.598  0.00  0.00    +0.000 OA
ATOM     36  H   UNL     1      -6.460  12.081  16.859  0.00  0.00    +0.000 HD
ENDBRANCH  33  35
BRANCH  33  37
ATOM     37  O   UNL     1      -4.970  10.600  18.184  0.00  0.00    +0.000 OA
ATOM     38  H   UNL     1      -5.236  10.148  17.368  0.00  0.00    +0.000 HD
ENDBRANCH  33  37
ENDBRANCH  32  33
ENDBRANCH  31  32
ENDBRANCH  24  26
ENDBRANCH   4  22
TORSDOF 15
ENDMDL
MODEL 8
REMARK VINA RESULT:      -7.1      3.673      5.182
REMARK  Name = 
REMARK  16 active torsions:
REMARK  status: ('A' for Active; 'I' for Inactive)
REMARK    1  A    between atoms: C_1  and  C_2
REMARK    2  A    between atoms: C_2  and  C_3
REMARK    3  A    between atoms: C_3  and  C_4
REMARK    4  A    between atoms: C_4  and  C_5
REMARK    5  A    between atoms: C_5  and  C_6
REMARK    6  A    between atoms: C_6  and  C_7
REMARK    7  A    between atoms: C_7  and  C_8
REMARK    8  A    between atoms: C_8  and  O_9
REMARK    9  A    between atoms: O_9  and  C_10
REMARK   10  A    between atoms: C_13  and  C_14
REMARK   11  A    between atoms: C_17  and  C_18
REMARK   12  A    between atoms: N_20  and  C_21
REMARK   13  A    between atoms: C_26  and  C_27
REMARK   14  A    between atoms: C_27  and  P_28
REMARK   15  A    between atoms: P_28  and  O_30
REMARK   16  A    between atoms: P_28  and  O_31
REMARK                            x       y       z     vdW  Elec       q    Type
REMARK                         _______ _______ _______ _____ _____    ______ ____
ROOT
ATOM      1  C   UNL     1       2.289   7.769  18.783  0.00  0.00    +0.000 A 
ATOM      2  C   UNL     1       1.713   8.779  17.992  0.00  0.00    +0.000 A 
ATOM      3  C   UNL     1       0.844   9.735  18.526  0.00  0.00    +0.000 A 
ATOM      4  C   UNL     1       0.470   9.708  19.872  0.00  0.00    +0.000 A 
ATOM      5  C   UNL     1       1.032   8.708  20.680  0.00  0.00    +0.000 A 
ATOM      6  C   UNL     1       1.927   7.751  20.139  0.00  0.00    +0.000 A 
ENDROOT
BRANCH   1  10
ATOM      7  C   UNL     1       5.322   5.214  17.012  0.00  0.00    +0.000 A 
ATOM      8  C   UNL     1       5.355   6.598  16.887  0.00  0.00    +0.000 A 
ATOM      9  C   UNL     1       4.377   7.387  17.472  0.00  0.00    +0.000 A 
ATOM     10  C   UNL     1       3.288   6.844  18.179  0.00  0.00    +0.000 A 
ATOM     11  C   UNL     1       3.235   5.443  18.263  0.00  0.00    +0.000 A 
ATOM     12  C   UNL     1       4.244   4.636  17.688  0.00  0.00    +0.000 A 
BRANCH   7  13
ATOM     13  O   UNL     1       6.302   4.383  16.523  0.00  0.00    +0.000 OA
BRANCH  13  14
ATOM     14  C   UNL     1       6.660   4.660  15.161  0.00  0.00    +0.000 C 
BRANCH  14  15
ATOM     15  C   UNL     1       5.645   4.104  14.174  0.00  0.00    +0.000 C 
BRANCH  15  16
ATOM     16  C   UNL     1       6.327   3.909  12.815  0.00  0.00    +0.000 C 
BRANCH  16  17
ATOM     17  C   UNL     1       6.108   2.502  12.279  0.00  0.00    +0.000 C 
BRANCH  17  18
ATOM     18  C   UNL     1       5.269   2.514  10.999  0.00  0.00    +0.000 C 
BRANCH  18  19
ATOM     19  C   UNL     1       4.067   3.441  11.162  0.00  0.00    +0.000 C 
BRANCH  19  21
ATOM     20  C   UNL     1       2.730   4.535   9.340  0.00  0.00    +0.000 C 
ATOM     21  C   UNL     1       3.034   3.230  10.059  0.00  0.00    +0.000 C 
ENDBRANCH  19  21
ENDBRANCH  18  19
ENDBRANCH  17  18
ENDBRANCH  16  17
ENDBRANCH  15  16
ENDBRANCH  14  15
ENDBRANCH  13  14
ENDBRANCH   7  13
ENDBRANCH   1  10
BRANCH   4  22
ATOM     22  C   UNL     1      -0.571  10.713  20.305  0.00  0.00    +0.000 C 
ATOM     23  O   UNL     1      -1.020  10.603  21.443  0.00  0.00    +0.000 OA
ATOM     24  N   UNL     1      -0.847  11.765  19.446  0.00  0.00    +0.000 N 
ATOM     25  H   UNL     1      -0.208  11.836  18.668  0.00  0.00    +0.000 HD
BRANCH  24  26
ATOM     26  C   UNL     1      -1.342  13.030  19.875  0.00  0.00    +0.000 A 
ATOM     27  C   UNL     1      -0.345  14.028  19.952  0.00  0.00    +0.000 A 
ATOM     28  C   UNL     1      -0.622  15.315  20.413  0.00  0.00    +0.000 A 
ATOM     29  C   UNL     1      -1.921  15.653  20.750  0.00  0.00    +0.000 A 
ATOM     30  C   UNL     1      -2.929  14.696  20.637  0.00  0.00    +0.000 A 
ATOM     31  C   UNL     1      -2.665  13.365  20.225  0.00  0.00    +0.000 A 
BRANCH  31  32
ATOM     32  C   UNL     1      -3.866  12.446  20.214  0.00  0.00    +0.000 C 
BRANCH  32  33
ATOM     33  P   UNL     1      -4.709  11.970  18.734  0.00  0.00    +0.000 P 
ATOM     34  O   UNL     1      -5.564  10.742  18.712  0.00  0.00    +0.000 OA
BRANCH  33  35
ATOM     35  O   UNL     1      -5.589  13.270  18.373  0.00  0.00    +0.000 OA
ATOM     36  H   UNL     1      -6.357  13.068  17.809  0.00  0.00    +0.000 HD
ENDBRANCH  33  35
BRANCH  33  37
ATOM     37  O   UNL     1      -3.681  12.001  17.503  0.00  0.00    +0.000 OA
ATOM     38  H   UNL     1      -4.084  12.343  16.689  0.00  0.00    +0.000 HD
ENDBRANCH  33  37
ENDBRANCH  32  33
ENDBRANCH  31  32
ENDBRANCH  24  26
ENDBRANCH   4  22
TORSDOF 15
ENDMDL
MODEL 9
REMARK VINA RESULT:      -7.1      3.593      5.257
REMARK  Name = 
REMARK  16 active torsions:
REMARK  status: ('A' for Active; 'I' for Inactive)
REMARK    1  A    between atoms: C_1  and  C_2
REMARK    2  A    between atoms: C_2  and  C_3
REMARK    3  A    between atoms: C_3  and  C_4
REMARK    4  A    between atoms: C_4  and  C_5
REMARK    5  A    between atoms: C_5  and  C_6
REMARK    6  A    between atoms: C_6  and  C_7
REMARK    7  A    between atoms: C_7  and  C_8
REMARK    8  A    between atoms: C_8  and  O_9
REMARK    9  A    between atoms: O_9  and  C_10
REMARK   10  A    between atoms: C_13  and  C_14
REMARK   11  A    between atoms: C_17  and  C_18
REMARK   12  A    between atoms: N_20  and  C_21
REMARK   13  A    between atoms: C_26  and  C_27
REMARK   14  A    between atoms: C_27  and  P_28
REMARK   15  A    between atoms: P_28  and  O_30
REMARK   16  A    between atoms: P_28  and  O_31
REMARK                            x       y       z     vdW  Elec       q    Type
REMARK                         _______ _______ _______ _____ _____    ______ ____
ROOT
ATOM      1  C   UNL     1       1.744   7.984  19.791  0.00  0.00    +0.000 A 
ATOM      2  C   UNL     1       1.341   7.878  21.134  0.00  0.00    +0.000 A 
ATOM      3  C   UNL     1       0.539   8.845  21.747  0.00  0.00    +0.000 A 
ATOM      4  C   UNL     1       0.133   9.994  21.063  0.00  0.00    +0.000 A 
ATOM      5  C   UNL     1       0.525  10.123  19.723  0.00  0.00    +0.000 A 
ATOM      6  C   UNL     1       1.323   9.131  19.098  0.00  0.00    +0.000 A 
ENDROOT
BRANCH   1  10
ATOM      7  C   UNL     1       3.884   4.618  18.073  0.00  0.00    +0.000 A 
ATOM      8  C   UNL     1       3.254   4.541  19.309  0.00  0.00    +0.000 A 
ATOM      9  C   UNL     1       2.570   5.631  19.827  0.00  0.00    +0.000 A 
ATOM     10  C   UNL     1       2.510   6.871  19.164  0.00  0.00    +0.000 A 
ATOM     11  C   UNL     1       3.187   6.956  17.936  0.00  0.00    +0.000 A 
ATOM     12  C   UNL     1       3.865   5.840  17.394  0.00  0.00    +0.000 A 
BRANCH   7  13
ATOM     13  O   UNL     1       4.509   3.552  17.471  0.00  0.00    +0.000 OA
BRANCH  13  14
ATOM     14  C   UNL     1       5.016   3.852  16.161  0.00  0.00    +0.000 C 
BRANCH  14  15
ATOM     15  C   UNL     1       6.482   4.257  16.189  0.00  0.00    +0.000 C 
BRANCH  15  16
ATOM     16  C   UNL     1       6.946   4.545  14.757  0.00  0.00    +0.000 C 
BRANCH  16  17
ATOM     17  C   UNL     1       5.875   4.178  13.739  0.00  0.00    +0.000 C 
BRANCH  17  18
ATOM     18  C   UNL     1       6.483   3.506  12.506  0.00  0.00    +0.000 C 
BRANCH  18  19
ATOM     19  C   UNL     1       5.405   2.751  11.730  0.00  0.00    +0.000 C 
BRANCH  19  21
ATOM     20  C   UNL     1       3.288   3.007  10.405  0.00  0.00    +0.000 C 
ATOM     21  C   UNL     1       4.176   3.618  11.478  0.00  0.00    +0.000 C 
ENDBRANCH  19  21
ENDBRANCH  18  19
ENDBRANCH  17  18
ENDBRANCH  16  17
ENDBRANCH  15  16
ENDBRANCH  14  15
ENDBRANCH  13  14
ENDBRANCH   7  13
ENDBRANCH   1  10
BRANCH   4  22
ATOM     22  C   UNL     1      -0.622  11.027  21.867  0.00  0.00    +0.000 C 
ATOM     23  O   UNL     1      -0.390  11.081  23.071  0.00  0.00    +0.000 OA
ATOM     24  N   UNL     1      -1.416  11.927  21.174  0.00  0.00    +0.000 N 
ATOM     25  H   UNL     1      -1.295  11.894  20.173  0.00  0.00    +0.000 HD
BRANCH  24  26
ATOM     26  C   UNL     1      -1.740  13.230  21.652  0.00  0.00    +0.000 A 
ATOM     27  C   UNL     1      -3.023  13.311  22.238  0.00  0.00    +0.000 A 
ATOM     28  C   UNL     1      -3.546  14.517  22.706  0.00  0.00    +0.000 A 
ATOM     29  C   UNL     1      -2.769  15.661  22.656  0.00  0.00    +0.000 A 
ATOM     30  C   UNL     1      -1.483  15.593  22.124  0.00  0.00    +0.000 A 
ATOM     31  C   UNL     1      -0.948  14.393  21.589  0.00  0.00    +0.000 A 
BRANCH  31  32
ATOM     32  C   UNL     1       0.440  14.514  21.001  0.00  0.00    +0.000 C 
BRANCH  32  33
ATOM     33  P   UNL     1       0.762  14.505  19.262  0.00  0.00    +0.000 P 
ATOM     34  O   UNL     1       1.466  13.347  18.629  0.00  0.00    +0.000 OA
BRANCH  33  35
ATOM     35  O   UNL     1      -0.701  14.693  18.612  0.00  0.00    +0.000 OA
ATOM     36  H   UNL     1      -1.093  13.856  18.306  0.00  0.00    +0.000 HD
ENDBRANCH  33  35
BRANCH  33  37
ATOM     37  O   UNL     1       1.418  15.906  18.836  0.00  0.00    +0.000 OA
ATOM     38  H   UNL     1       1.749  16.409  19.596  0.00  0.00    +0.000 HD
ENDBRANCH  33  37
ENDBRANCH  32  33
ENDBRANCH  31  32
ENDBRANCH  24  26
ENDBRANCH   4  22
TORSDOF 15
ENDMDL
