MODEL 1
REMARK VINA RESULT:      -8.3      0.000      0.000
REMARK  Name = 
REMARK  5 active torsions:
REMARK  status: ('A' for Active; 'I' for Inactive)
REMARK    1  A    between atoms: C_1  and  N_2
REMARK    2  A    between atoms: N_2  and  C_10
REMARK    3  A    between atoms: N_22  and  C_23
REMARK    4  A    between atoms: C_23  and  C_24
REMARK    5  A    between atoms: C_24  and  O_26
REMARK                            x       y       z     vdW  Elec       q    Type
REMARK                         _______ _______ _______ _____ _____    ______ ____
ROOT
ATOM      1  C   UNL     1       5.694   5.684  16.326  0.00  0.00    +0.000 C 
ATOM      2  C   UNL     1       5.119   4.247  16.161  0.00  0.00    +0.000 C 
ATOM      3  C   UNL     1       4.476   3.675  17.434  0.00  0.00    +0.000 C 
ATOM      4  C   UNL     1       3.694   4.732  18.138  0.00  0.00    +0.000 A 
ATOM      5  C   UNL     1       3.698   6.066  17.792  0.00  0.00    +0.000 A 
ATOM      6  C   UNL     1       2.822   6.745  18.656  0.00  0.00    +0.000 A 
ATOM      7  C   UNL     1       2.394   8.087  18.694  0.00  0.00    +0.000 A 
ATOM      8  C   UNL     1       1.574   8.501  19.728  0.00  0.00    +0.000 A 
ATOM      9  F   UNL     1       1.147   9.771  19.755  0.00  0.00    +0.000 F 
ATOM     10  C   UNL     1       1.209   7.625  20.736  0.00  0.00    +0.000 A 
ATOM     11  C   UNL     1       1.634   6.280  20.726  0.00  0.00    +0.000 A 
ATOM     12  C   UNL     1       2.420   5.829  19.643  0.00  0.00    +0.000 A 
ATOM     13  N   UNL     1       2.972   4.586  19.305  0.00  0.00    +0.000 N 
ATOM     14  C   UNL     1       4.538   6.637  16.701  0.00  0.00    +0.000 C 
ENDROOT
BRANCH   1  16
ATOM     15  C   UNL     1       7.424   4.512  17.842  0.00  0.00    +0.000 C 
ATOM     16  N   UNL     1       6.887   5.719  17.215  0.00  0.00    +0.000 N 
ATOM     17  C   UNL     1       7.381   6.934  17.677  0.00  0.00    +0.000 A 
ATOM     18  C   UNL     1       6.951   8.148  17.133  0.00  0.00    +0.000 A 
ATOM     19  C   UNL     1       7.524   9.360  17.501  0.00  0.00    +0.000 A 
ATOM     20  C   UNL     1       8.509   9.349  18.465  0.00  0.00    +0.000 A 
ATOM     21 CL   UNL     1       9.276  10.811  18.931  0.00  0.00    +0.000 Cl
ATOM     22  C   UNL     1       8.860   8.140  19.020  0.00  0.00    +0.000 A 
ATOM     23  N   UNL     1       8.325   6.952  18.643  0.00  0.00    +0.000 NA
ENDBRANCH   1  16
BRANCH  13  24
ATOM     24  C   UNL     1       2.996   3.369  20.128  0.00  0.00    +0.000 C 
BRANCH  24  25
ATOM     25  C   UNL     1       1.762   3.061  20.950  0.00  0.00    +0.000 C 
ATOM     26  O   UNL     1       1.791   2.982  22.183  0.00  0.00    +0.000 OA
BRANCH  25  27
ATOM     27  O   UNL     1       0.598   2.961  20.280  0.00  0.00    +0.000 OA
ATOM     28  H   UNL     1       0.671   2.493  19.426  0.00  0.00    +0.000 HD
ENDBRANCH  25  27
ENDBRANCH  24  25
ENDBRANCH  13  24
TORSDOF 4
ENDMDL
MODEL 2
REMARK VINA RESULT:      -8.0      1.054      1.207
REMARK  Name = 
REMARK  5 active torsions:
REMARK  status: ('A' for Active; 'I' for Inactive)
REMARK    1  A    between atoms: C_1  and  N_2
REMARK    2  A    between atoms: N_2  and  C_10
REMARK    3  A    between atoms: N_22  and  C_23
REMARK    4  A    between atoms: C_23  and  C_24
REMARK    5  A    between atoms: C_24  and  O_26
REMARK                            x       y       z     vdW  Elec       q    Type
REMARK                         _______ _______ _______ _____ _____    ______ ____
ROOT
ATOM      1  C   UNL     1       5.650   6.024  16.131  0.00  0.00    +0.000 C 
ATOM      2  C   UNL     1       5.117   4.660  15.601  0.00  0.00    +0.000 C 
ATOM      3  C   UNL     1       4.483   3.768  16.680  0.00  0.00    +0.000 C 
ATOM      4  C   UNL     1       3.667   4.592  17.619  0.00  0.00    +0.000 A 
ATOM      5  C   UNL     1       3.636   5.970  17.621  0.00  0.00    +0.000 A 
ATOM      6  C   UNL     1       2.736   6.385  18.618  0.00  0.00    +0.000 A 
ATOM      7  C   UNL     1       2.271   7.663  18.988  0.00  0.00    +0.000 A 
ATOM      8  C   UNL     1       1.434   7.780  20.084  0.00  0.00    +0.000 A 
ATOM      9  F   UNL     1       0.971   8.991  20.425  0.00  0.00    +0.000 F 
ATOM     10  C   UNL     1       1.089   6.668  20.833  0.00  0.00    +0.000 A 
ATOM     11  C   UNL     1       1.551   5.381  20.489  0.00  0.00    +0.000 A 
ATOM     12  C   UNL     1       2.355   5.240  19.337  0.00  0.00    +0.000 A 
ATOM     13  N   UNL     1       2.944   4.138  18.702  0.00  0.00    +0.000 N 
ATOM     14  C   UNL     1       4.465   6.820  16.720  0.00  0.00    +0.000 C 
ENDROOT
BRANCH   1  16
ATOM     15  C   UNL     1       7.290   4.551  17.475  0.00  0.00    +0.000 C 
ATOM     16  N   UNL     1       6.836   5.863  17.014  0.00  0.00    +0.000 N 
ATOM     17  C   UNL     1       7.405   6.972  17.631  0.00  0.00    +0.000 A 
ATOM     18  C   UNL     1       7.058   8.272  17.253  0.00  0.00    +0.000 A 
ATOM     19  C   UNL     1       7.705   9.385  17.778  0.00  0.00    +0.000 A 
ATOM     20  C   UNL     1       8.682   9.183  18.730  0.00  0.00    +0.000 A 
ATOM     21 CL   UNL     1       9.538  10.519  19.383  0.00  0.00    +0.000 Cl
ATOM     22  C   UNL     1       8.950   7.892  19.119  0.00  0.00    +0.000 A 
ATOM     23  N   UNL     1       8.342   6.801  18.590  0.00  0.00    +0.000 NA
ENDBRANCH   1  16
BRANCH  13  24
ATOM     24  C   UNL     1       2.998   2.752  19.191  0.00  0.00    +0.000 C 
BRANCH  24  25
ATOM     25  C   UNL     1       3.901   2.467  20.373  0.00  0.00    +0.000 C 
ATOM     26  O   UNL     1       3.479   2.426  21.533  0.00  0.00    +0.000 OA
BRANCH  25  27
ATOM     27  O   UNL     1       5.185   2.170  20.096  0.00  0.00    +0.000 OA
ATOM     28  H   UNL     1       5.648   1.700  20.815  0.00  0.00    +0.000 HD
ENDBRANCH  25  27
ENDBRANCH  24  25
ENDBRANCH  13  24
TORSDOF 4
ENDMDL
MODEL 3
REMARK VINA RESULT:      -7.7      0.869      1.004
REMARK  Name = 
REMARK  5 active torsions:
REMARK  status: ('A' for Active; 'I' for Inactive)
REMARK    1  A    between atoms: C_1  and  N_2
REMARK    2  A    between atoms: N_2  and  C_10
REMARK    3  A    between atoms: N_22  and  C_23
REMARK    4  A    between atoms: C_23  and  C_24
REMARK    5  A    between atoms: C_24  and  O_26
REMARK                            x       y       z     vdW  Elec       q    Type
REMARK                         _______ _______ _______ _____ _____    ______ ____
ROOT
ATOM      1  C   UNL     1       5.182   5.002  16.920  0.00  0.00    +0.000 C 
ATOM      2  C   UNL     1       4.404   3.697  17.264  0.00  0.00    +0.000 C 
ATOM      3  C   UNL     1       3.725   3.713  18.642  0.00  0.00    +0.000 C 
ATOM      4  C   UNL     1       3.122   5.051  18.907  0.00  0.00    +0.000 A 
ATOM      5  C   UNL     1       3.305   6.160  18.109  0.00  0.00    +0.000 A 
ATOM      6  C   UNL     1       2.560   7.219  18.656  0.00  0.00    +0.000 A 
ATOM      7  C   UNL     1       2.328   8.534  18.204  0.00  0.00    +0.000 A 
ATOM      8  C   UNL     1       1.607   9.401  19.005  0.00  0.00    +0.000 A 
ATOM      9  F   UNL     1       1.365  10.645  18.569  0.00  0.00    +0.000 F 
ATOM     10  C   UNL     1       1.152   9.001  20.251  0.00  0.00    +0.000 A 
ATOM     11  C   UNL     1       1.380   7.694  20.729  0.00  0.00    +0.000 A 
ATOM     12  C   UNL     1       2.062   6.781  19.894  0.00  0.00    +0.000 A 
ATOM     13  N   UNL     1       2.422   5.434  20.032  0.00  0.00    +0.000 N 
ATOM     14  C   UNL     1       4.185   6.181  16.906  0.00  0.00    +0.000 C 
ENDROOT
BRANCH   1  16
ATOM     15  C   UNL     1       6.877   4.126  18.660  0.00  0.00    +0.000 C 
ATOM     16  N   UNL     1       6.394   5.178  17.765  0.00  0.00    +0.000 N 
ATOM     17  C   UNL     1       6.963   6.438  17.920  0.00  0.00    +0.000 A 
ATOM     18  C   UNL     1       6.588   7.509  17.104  0.00  0.00    +0.000 A 
ATOM     19  C   UNL     1       7.234   8.739  17.167  0.00  0.00    +0.000 A 
ATOM     20  C   UNL     1       8.238   8.901  18.098  0.00  0.00    +0.000 A 
ATOM     21 CL   UNL     1       9.093  10.385  18.194  0.00  0.00    +0.000 Cl
ATOM     22  C   UNL     1       8.534   7.841  18.924  0.00  0.00    +0.000 A 
ATOM     23  N   UNL     1       7.928   6.631  18.846  0.00  0.00    +0.000 NA
ENDBRANCH   1  16
BRANCH  13  24
ATOM     24  C   UNL     1       2.298   4.597  21.234  0.00  0.00    +0.000 C 
BRANCH  24  25
ATOM     25  C   UNL     1       1.468   3.335  21.121  0.00  0.00    +0.000 C 
ATOM     26  O   UNL     1       1.631   2.367  21.869  0.00  0.00    +0.000 OA
BRANCH  25  27
ATOM     27  O   UNL     1       0.472   3.346  20.213  0.00  0.00    +0.000 OA
ATOM     28  H   UNL     1       0.118   4.235  20.024  0.00  0.00    +0.000 HD
ENDBRANCH  25  27
ENDBRANCH  24  25
ENDBRANCH  13  24
TORSDOF 4
ENDMDL
MODEL 4
REMARK VINA RESULT:      -7.5      5.651      8.097
REMARK  Name = 
REMARK  5 active torsions:
REMARK  status: ('A' for Active; 'I' for Inactive)
REMARK    1  A    between atoms: C_1  and  N_2
REMARK    2  A    between atoms: N_2  and  C_10
REMARK    3  A    between atoms: N_22  and  C_23
REMARK    4  A    between atoms: C_23  and  C_24
REMARK    5  A    between atoms: C_24  and  O_26
REMARK                            x       y       z     vdW  Elec       q    Type
REMARK                         _______ _______ _______ _____ _____    ______ ____
ROOT
ATOM      1  C   UNL     1       1.422   9.964  19.749  0.00  0.00    +0.000 C 
ATOM      2  C   UNL     1       1.137   9.940  18.219  0.00  0.00    +0.000 C 
ATOM      3  C   UNL     1      -0.354   9.984  17.854  0.00  0.00    +0.000 C 
ATOM      4  C   UNL     1      -1.078  10.934  18.748  0.00  0.00    +0.000 A 
ATOM      5  C   UNL     1      -0.521  11.543  19.852  0.00  0.00    +0.000 A 
ATOM      6  C   UNL     1      -1.490  12.388  20.420  0.00  0.00    +0.000 A 
ATOM      7  C   UNL     1      -1.429  13.293  21.498  0.00  0.00    +0.000 A 
ATOM      8  C   UNL     1      -2.585  13.943  21.895  0.00  0.00    +0.000 A 
ATOM      9  F   UNL     1      -2.526  14.821  22.906  0.00  0.00    +0.000 F 
ATOM     10  C   UNL     1      -3.793  13.680  21.273  0.00  0.00    +0.000 A 
ATOM     11  C   UNL     1      -3.882  12.771  20.199  0.00  0.00    +0.000 A 
ATOM     12  C   UNL     1      -2.698  12.148  19.744  0.00  0.00    +0.000 A 
ATOM     13  N   UNL     1      -2.422  11.242  18.711  0.00  0.00    +0.000 N 
ATOM     14  C   UNL     1       0.865  11.281  20.333  0.00  0.00    +0.000 C 
ENDROOT
BRANCH   1  16
ATOM     15  C   UNL     1       0.052   8.720  21.549  0.00  0.00    +0.000 C 
ATOM     16  N   UNL     1       0.989   8.712  20.426  0.00  0.00    +0.000 N 
ATOM     17  C   UNL     1       1.652   7.516  20.176  0.00  0.00    +0.000 A 
ATOM     18  C   UNL     1       2.554   7.392  19.115  0.00  0.00    +0.000 A 
ATOM     19  C   UNL     1       3.130   6.171  18.782  0.00  0.00    +0.000 A 
ATOM     20  C   UNL     1       2.827   5.073  19.558  0.00  0.00    +0.000 A 
ATOM     21 CL   UNL     1       3.481   3.536  19.169  0.00  0.00    +0.000 Cl
ATOM     22  C   UNL     1       1.984   5.250  20.630  0.00  0.00    +0.000 A 
ATOM     23  N   UNL     1       1.396   6.432  20.943  0.00  0.00    +0.000 NA
ENDBRANCH   1  16
BRANCH  13  24
ATOM     24  C   UNL     1      -3.393  10.543  17.857  0.00  0.00    +0.000 C 
BRANCH  24  25
ATOM     25  C   UNL     1      -4.002  11.325  16.712  0.00  0.00    +0.000 C 
ATOM     26  O   UNL     1      -5.117  11.852  16.791  0.00  0.00    +0.000 OA
BRANCH  25  27
ATOM     27  O   UNL     1      -3.232  11.499  15.621  0.00  0.00    +0.000 OA
ATOM     28  H   UNL     1      -3.422  10.872  14.898  0.00  0.00    +0.000 HD
ENDBRANCH  25  27
ENDBRANCH  24  25
ENDBRANCH  13  24
TORSDOF 4
ENDMDL
MODEL 5
REMARK VINA RESULT:      -7.4      1.537      1.779
REMARK  Name = 
REMARK  5 active torsions:
REMARK  status: ('A' for Active; 'I' for Inactive)
REMARK    1  A    between atoms: C_1  and  N_2
REMARK    2  A    between atoms: N_2  and  C_10
REMARK    3  A    between atoms: N_22  and  C_23
REMARK    4  A    between atoms: C_23  and  C_24
REMARK    5  A    between atoms: C_24  and  O_26
REMARK                            x       y       z     vdW  Elec       q    Type
REMARK                         _______ _______ _______ _____ _____    ______ ____
ROOT
ATOM      1  C   UNL     1       6.204   6.863  16.658  0.00  0.00    +0.000 C 
ATOM      2  C   UNL     1       6.056   5.449  16.021  0.00  0.00    +0.000 C 
ATOM      3  C   UNL     1       5.602   4.359  17.004  0.00  0.00    +0.000 C 
ATOM      4  C   UNL     1       4.556   4.894  17.923  0.00  0.00    +0.000 A 
ATOM      5  C   UNL     1       4.184   6.219  17.994  0.00  0.00    +0.000 A 
ATOM      6  C   UNL     1       3.155   6.334  18.944  0.00  0.00    +0.000 A 
ATOM      7  C   UNL     1       2.366   7.431  19.345  0.00  0.00    +0.000 A 
ATOM      8  C   UNL     1       1.466   7.267  20.383  0.00  0.00    +0.000 A 
ATOM      9  F   UNL     1       0.699   8.302  20.752  0.00  0.00    +0.000 F 
ATOM     10  C   UNL     1       1.365   6.056  21.047  0.00  0.00    +0.000 A 
ATOM     11  C   UNL     1       2.150   4.947  20.670  0.00  0.00    +0.000 A 
ATOM     12  C   UNL     1       3.028   5.084  19.573  0.00  0.00    +0.000 A 
ATOM     13  N   UNL     1       3.907   4.204  18.926  0.00  0.00    +0.000 N 
ATOM     14  C   UNL     1       4.827   7.305  17.201  0.00  0.00    +0.000 C 
ENDROOT
BRANCH   1  16
ATOM     15  C   UNL     1       7.779   5.777  18.391  0.00  0.00    +0.000 C 
ATOM     16  N   UNL     1       7.341   6.937  17.614  0.00  0.00    +0.000 N 
ATOM     17  C   UNL     1       7.864   8.170  17.986  0.00  0.00    +0.000 A 
ATOM     18  C   UNL     1       7.527   9.340  17.299  0.00  0.00    +0.000 A 
ATOM     19  C   UNL     1       8.135  10.558  17.583  0.00  0.00    +0.000 A 
ATOM     20  C   UNL     1       9.058  10.602  18.606  0.00  0.00    +0.000 A 
ATOM     21 CL   UNL     1       9.865  12.071  18.975  0.00  0.00    +0.000 Cl
ATOM     22  C   UNL     1       9.316   9.442  19.298  0.00  0.00    +0.000 A 
ATOM     23  N   UNL     1       8.748   8.246  19.006  0.00  0.00    +0.000 NA
ENDBRANCH   1  16
BRANCH  13  24
ATOM     24  C   UNL     1       4.274   2.844  19.346  0.00  0.00    +0.000 C 
BRANCH  24  25
ATOM     25  C   UNL     1       3.441   1.701  18.804  0.00  0.00    +0.000 C 
ATOM     26  O   UNL     1       2.213   1.772  18.692  0.00  0.00    +0.000 OA
BRANCH  25  27
ATOM     27  O   UNL     1       4.113   0.620  18.362  0.00  0.00    +0.000 OA
ATOM     28  H   UNL     1       3.729   0.215  17.561  0.00  0.00    +0.000 HD
ENDBRANCH  25  27
ENDBRANCH  24  25
ENDBRANCH  13  24
TORSDOF 4
ENDMDL
MODEL 6
REMARK VINA RESULT:      -7.3      4.041      6.209
REMARK  Name = 
REMARK  5 active torsions:
REMARK  status: ('A' for Active; 'I' for Inactive)
REMARK    1  A    between atoms: C_1  and  N_2
REMARK    2  A    between atoms: N_2  and  C_10
REMARK    3  A    between atoms: N_22  and  C_23
REMARK    4  A    between atoms: C_23  and  C_24
REMARK    5  A    between atoms: C_24  and  O_26
REMARK                            x       y       z     vdW  Elec       q    Type
REMARK                         _______ _______ _______ _____ _____    ______ ____
ROOT
ATOM      1  C   UNL     1       1.753   8.169  17.973  0.00  0.00    +0.000 C 
ATOM      2  C   UNL     1       3.169   8.433  17.380  0.00  0.00    +0.000 C 
ATOM      3  C   UNL     1       4.283   7.579  18.004  0.00  0.00    +0.000 C 
ATOM      4  C   UNL     1       3.802   6.186  18.233  0.00  0.00    +0.000 A 
ATOM      5  C   UNL     1       2.495   5.778  18.075  0.00  0.00    +0.000 A 
ATOM      6  C   UNL     1       2.432   4.400  18.348  0.00  0.00    +0.000 A 
ATOM      7  C   UNL     1       1.373   3.474  18.259  0.00  0.00    +0.000 A 
ATOM      8  C   UNL     1       1.583   2.172  18.679  0.00  0.00    +0.000 A 
ATOM      9  F   UNL     1       0.585   1.283  18.575  0.00  0.00    +0.000 F 
ATOM     10  C   UNL     1       2.801   1.790  19.216  0.00  0.00    +0.000 A 
ATOM     11  C   UNL     1       3.872   2.701  19.325  0.00  0.00    +0.000 A 
ATOM     12  C   UNL     1       3.689   4.016  18.843  0.00  0.00    +0.000 A 
ATOM     13  N   UNL     1       4.525   5.139  18.765  0.00  0.00    +0.000 N 
ATOM     14  C   UNL     1       1.377   6.694  17.712  0.00  0.00    +0.000 C 
ENDROOT
BRANCH   1  16
ATOM     15  C   UNL     1       1.770   7.726  20.516  0.00  0.00    +0.000 C 
ATOM     16  N   UNL     1       1.633   8.637  19.380  0.00  0.00    +0.000 N 
ATOM     17  C   UNL     1       1.139   9.907  19.656  0.00  0.00    +0.000 A 
ATOM     18  C   UNL     1       0.987  10.863  18.647  0.00  0.00    +0.000 A 
ATOM     19  C   UNL     1       0.610  12.172  18.928  0.00  0.00    +0.000 A 
ATOM     20  C   UNL     1       0.338  12.505  20.238  0.00  0.00    +0.000 A 
ATOM     21 CL   UNL     1      -0.096  14.114  20.645  0.00  0.00    +0.000 Cl
ATOM     22  C   UNL     1       0.439  11.520  21.192  0.00  0.00    +0.000 A 
ATOM     23  N   UNL     1       0.835  10.249  20.928  0.00  0.00    +0.000 NA
ENDBRANCH   1  16
BRANCH  13  24
ATOM     24  C   UNL     1       5.869   5.290  19.340  0.00  0.00    +0.000 C 
BRANCH  24  25
ATOM     25  C   UNL     1       7.042   5.267  18.382  0.00  0.00    +0.000 C 
ATOM     26  O   UNL     1       7.738   6.264  18.166  0.00  0.00    +0.000 OA
BRANCH  25  27
ATOM     27  O   UNL     1       7.352   4.077  17.834  0.00  0.00    +0.000 OA
ATOM     28  H   UNL     1       8.116   4.107  17.227  0.00  0.00    +0.000 HD
ENDBRANCH  25  27
ENDBRANCH  24  25
ENDBRANCH  13  24
TORSDOF 4
ENDMDL
MODEL 7
REMARK VINA RESULT:      -7.1      7.296     10.204
REMARK  Name = 
REMARK  5 active torsions:
REMARK  status: ('A' for Active; 'I' for Inactive)
REMARK    1  A    between atoms: C_1  and  N_2
REMARK    2  A    between atoms: N_2  and  C_10
REMARK    3  A    between atoms: N_22  and  C_23
REMARK    4  A    between atoms: C_23  and  C_24
REMARK    5  A    between atoms: C_24  and  O_26
REMARK                            x       y       z     vdW  Elec       q    Type
REMARK                         _______ _______ _______ _____ _____    ______ ____
ROOT
ATOM      1  C   UNL     1      -1.414  12.462  22.868  0.00  0.00    +0.000 C 
ATOM      2  C   UNL     1      -2.776  12.530  22.116  0.00  0.00    +0.000 C 
ATOM      3  C   UNL     1      -2.655  12.482  20.585  0.00  0.00    +0.000 C 
ATOM      4  C   UNL     1      -1.610  11.498  20.180  0.00  0.00    +0.000 A 
ATOM      5  C   UNL     1      -0.756  10.862  21.055  0.00  0.00    +0.000 A 
ATOM      6  C   UNL     1       0.060   9.990  20.314  0.00  0.00    +0.000 A 
ATOM      7  C   UNL     1       1.035   9.053  20.711  0.00  0.00    +0.000 A 
ATOM      8  C   UNL     1       1.754   8.380  19.739  0.00  0.00    +0.000 A 
ATOM      9  F   UNL     1       2.666   7.471  20.113  0.00  0.00    +0.000 F 
ATOM     10  C   UNL     1       1.551   8.649  18.396  0.00  0.00    +0.000 A 
ATOM     11  C   UNL     1       0.589   9.590  17.974  0.00  0.00    +0.000 A 
ATOM     12  C   UNL     1      -0.194  10.238  18.955  0.00  0.00    +0.000 A 
ATOM     13  N   UNL     1      -1.232  11.178  18.892  0.00  0.00    +0.000 N 
ATOM     14  C   UNL     1      -0.728  11.122  22.523  0.00  0.00    +0.000 C 
ENDROOT
BRANCH   1  16
ATOM     15  C   UNL     1       0.519  13.734  21.724  0.00  0.00    +0.000 C 
ATOM     16  N   UNL     1      -0.596  13.688  22.670  0.00  0.00    +0.000 N 
ATOM     17  C   UNL     1      -0.705  14.754  23.557  0.00  0.00    +0.000 A 
ATOM     18  C   UNL     1      -1.744  14.820  24.489  0.00  0.00    +0.000 A 
ATOM     19  C   UNL     1      -1.933  15.936  25.297  0.00  0.00    +0.000 A 
ATOM     20  C   UNL     1      -1.034  16.975  25.195  0.00  0.00    +0.000 A 
ATOM     21 CL   UNL     1      -1.241  18.390  26.142  0.00  0.00    +0.000 Cl
ATOM     22  C   UNL     1       0.010  16.844  24.310  0.00  0.00    +0.000 A 
ATOM     23  N   UNL     1       0.183  15.771  23.498  0.00  0.00    +0.000 NA
ENDBRANCH   1  16
BRANCH  13  24
ATOM     24  C   UNL     1      -1.715  11.893  17.702  0.00  0.00    +0.000 C 
BRANCH  24  25
ATOM     25  C   UNL     1      -2.604  11.129  16.744  0.00  0.00    +0.000 C 
ATOM     26  O   UNL     1      -3.337  10.206  17.115  0.00  0.00    +0.000 OA
BRANCH  25  27
ATOM     27  O   UNL     1      -2.628  11.558  15.468  0.00  0.00    +0.000 OA
ATOM     28  H   UNL     1      -2.435  12.509  15.366  0.00  0.00    +0.000 HD
ENDBRANCH  25  27
ENDBRANCH  24  25
ENDBRANCH  13  24
TORSDOF 4
ENDMDL
MODEL 8
REMARK VINA RESULT:      -7.0      7.253     10.610
REMARK  Name = 
REMARK  5 active torsions:
REMARK  status: ('A' for Active; 'I' for Inactive)
REMARK    1  A    between atoms: C_1  and  N_2
REMARK    2  A    between atoms: N_2  and  C_10
REMARK    3  A    between atoms: N_22  and  C_23
REMARK    4  A    between atoms: C_23  and  C_24
REMARK    5  A    between atoms: C_24  and  O_26
REMARK                            x       y       z     vdW  Elec       q    Type
REMARK                         _______ _______ _______ _____ _____    ______ ____
ROOT
ATOM      1  C   UNL     1      -1.301  12.161  22.570  0.00  0.00    +0.000 C 
ATOM      2  C   UNL     1      -0.917  10.652  22.553  0.00  0.00    +0.000 C 
ATOM      3  C   UNL     1      -0.437  10.139  21.187  0.00  0.00    +0.000 C 
ATOM      4  C   UNL     1       0.436  11.154  20.530  0.00  0.00    +0.000 A 
ATOM      5  C   UNL     1       0.634  12.434  21.001  0.00  0.00    +0.000 A 
ATOM      6  C   UNL     1       1.539  13.081  20.142  0.00  0.00    +0.000 A 
ATOM      7  C   UNL     1       2.142  14.353  20.201  0.00  0.00    +0.000 A 
ATOM      8  C   UNL     1       2.945  14.765  19.152  0.00  0.00    +0.000 A 
ATOM      9  F   UNL     1       3.537  15.965  19.215  0.00  0.00    +0.000 F 
ATOM     10  C   UNL     1       3.124  13.959  18.040  0.00  0.00    +0.000 A 
ATOM     11  C   UNL     1       2.523  12.686  17.954  0.00  0.00    +0.000 A 
ATOM     12  C   UNL     1       1.752  12.229  19.045  0.00  0.00    +0.000 A 
ATOM     13  N   UNL     1       1.058  11.039  19.304  0.00  0.00    +0.000 N 
ATOM     14  C   UNL     1      -0.052  12.991  22.202  0.00  0.00    +0.000 C 
ENDROOT
BRANCH   1  16
ATOM     15  C   UNL     1      -2.492  12.666  20.336  0.00  0.00    +0.000 C 
ATOM     16  N   UNL     1      -2.531  12.441  21.780  0.00  0.00    +0.000 N 
ATOM     17  C   UNL     1      -3.724  12.745  22.427  0.00  0.00    +0.000 A 
ATOM     18  C   UNL     1      -3.876  12.549  23.803  0.00  0.00    +0.000 A 
ATOM     19  C   UNL     1      -5.099  12.734  24.439  0.00  0.00    +0.000 A 
ATOM     20  C   UNL     1      -6.167  13.168  23.683  0.00  0.00    +0.000 A 
ATOM     21 CL   UNL     1      -7.707  13.378  24.410  0.00  0.00    +0.000 Cl
ATOM     22  C   UNL     1      -5.960  13.409  22.345  0.00  0.00    +0.000 A 
ATOM     23  N   UNL     1      -4.778  13.202  21.714  0.00  0.00    +0.000 NA
ENDBRANCH   1  16
BRANCH  13  24
ATOM     24  C   UNL     1       0.818   9.928  18.372  0.00  0.00    +0.000 C 
BRANCH  24  25
ATOM     25  C   UNL     1       1.861   8.831  18.316  0.00  0.00    +0.000 C 
ATOM     26  O   UNL     1       2.589   8.660  17.333  0.00  0.00    +0.000 OA
BRANCH  25  27
ATOM     27  O   UNL     1       2.025   8.094  19.432  0.00  0.00    +0.000 OA
ATOM     28  H   UNL     1       2.942   7.797  19.580  0.00  0.00    +0.000 HD
ENDBRANCH  25  27
ENDBRANCH  24  25
ENDBRANCH  13  24
TORSDOF 4
ENDMDL
MODEL 9
REMARK VINA RESULT:      -7.0      6.912      9.389
REMARK  Name = 
REMARK  5 active torsions:
REMARK  status: ('A' for Active; 'I' for Inactive)
REMARK    1  A    between atoms: C_1  and  N_2
REMARK    2  A    between atoms: N_2  and  C_10
REMARK    3  A    between atoms: N_22  and  C_23
REMARK    4  A    between atoms: C_23  and  C_24
REMARK    5  A    between atoms: C_24  and  O_26
REMARK                            x       y       z     vdW  Elec       q    Type
REMARK                         _______ _______ _______ _____ _____    ______ ____
ROOT
ATOM      1  C   UNL     1      -0.020  12.078  19.868  0.00  0.00    +0.000 C 
ATOM      2  C   UNL     1      -0.524  12.081  18.394  0.00  0.00    +0.000 C 
ATOM      3  C   UNL     1      -1.993  11.664  18.229  0.00  0.00    +0.000 C 
ATOM      4  C   UNL     1      -2.824  12.252  19.319  0.00  0.00    +0.000 A 
ATOM      5  C   UNL     1      -2.316  12.921  20.412  0.00  0.00    +0.000 A 
ATOM      6  C   UNL     1      -3.397  13.355  21.199  0.00  0.00    +0.000 A 
ATOM      7  C   UNL     1      -3.450  14.144  22.366  0.00  0.00    +0.000 A 
ATOM      8  C   UNL     1      -4.671  14.347  22.983  0.00  0.00    +0.000 A 
ATOM      9  F   UNL     1      -4.729  15.115  24.081  0.00  0.00    +0.000 F 
ATOM     10  C   UNL     1      -5.821  13.753  22.490  0.00  0.00    +0.000 A 
ATOM     11  C   UNL     1      -5.792  12.952  21.330  0.00  0.00    +0.000 A 
ATOM     12  C   UNL     1      -4.562  12.788  20.655  0.00  0.00    +0.000 A 
ATOM     13  N   UNL     1      -4.185  12.106  19.490  0.00  0.00    +0.000 N 
ATOM     14  C   UNL     1      -0.860  13.090  20.678  0.00  0.00    +0.000 C 
ENDROOT
BRANCH   1  16
ATOM     15  C   UNL     1      -0.480  10.363  21.742  0.00  0.00    +0.000 C 
ATOM     16  N   UNL     1       0.072  10.704  20.431  0.00  0.00    +0.000 N 
ATOM     17  C   UNL     1       0.904   9.759  19.840  0.00  0.00    +0.000 A 
ATOM     18  C   UNL     1       1.469   9.975  18.580  0.00  0.00    +0.000 A 
ATOM     19  C   UNL     1       2.203   8.990  17.928  0.00  0.00    +0.000 A 
ATOM     20  C   UNL     1       2.408   7.791  18.577  0.00  0.00    +0.000 A 
ATOM     21 CL   UNL     1       3.275   6.529  17.804  0.00  0.00    +0.000 Cl
ATOM     22  C   UNL     1       1.887   7.642  19.842  0.00  0.00    +0.000 A 
ATOM     23  N   UNL     1       1.146   8.588  20.471  0.00  0.00    +0.000 NA
ENDBRANCH   1  16
BRANCH  13  24
ATOM     24  C   UNL     1      -5.013  11.197  18.684  0.00  0.00    +0.000 C 
BRANCH  24  25
ATOM     25  C   UNL     1      -5.463  11.689  17.324  0.00  0.00    +0.000 C 
ATOM     26  O   UNL     1      -6.287  12.600  17.190  0.00  0.00    +0.000 OA
BRANCH  25  27
ATOM     27  O   UNL     1      -4.856  11.145  16.252  0.00  0.00    +0.000 OA
ATOM     28  H   UNL     1      -4.034  10.663  16.464  0.00  0.00    +0.000 HD
ENDBRANCH  25  27
ENDBRANCH  24  25
ENDBRANCH  13  24
TORSDOF 4
ENDMDL
