MODEL 1
REMARK VINA RESULT:      -8.4      0.000      0.000
REMARK  Name = 
REMARK  5 active torsions:
REMARK  status: ('A' for Active; 'I' for Inactive)
REMARK    1  A    between atoms: C_2  and  C_15
REMARK    2  A    between atoms: N_3  and  C_4
REMARK    3  A    between atoms: C_7  and  C_8
REMARK    4  A    between atoms: C_18  and  C_19
REMARK    5  A    between atoms: C_19  and  N_20
REMARK                            x       y       z     vdW  Elec       q    Type
REMARK                         _______ _______ _______ _____ _____    ______ ____
ROOT
ATOM      1  O   UNL     1       1.521   8.873  19.168  0.00  0.00    +0.000 OA
ATOM      2  C   UNL     1       1.237   8.554  20.318  0.00  0.00    +0.000 C 
ATOM      3  N   UNL     1       1.442   7.318  20.915  0.00  0.00    +0.000 N 
ATOM      4  H   UNL     1       0.946   7.136  21.779  0.00  0.00    +0.000 HD
ENDROOT
BRANCH   3   5
ATOM      5  C   UNL     1       2.055   6.218  20.287  0.00  0.00    +0.000 A 
ATOM      6  C   UNL     1       3.079   6.372  19.359  0.00  0.00    +0.000 A 
ATOM      7  C   UNL     1       3.581   5.276  18.667  0.00  0.00    +0.000 A 
ATOM      8  C   UNL     1       3.079   3.988  18.906  0.00  0.00    +0.000 A 
ATOM      9  C   UNL     1       2.098   3.829  19.891  0.00  0.00    +0.000 A 
ATOM     10 CL   UNL     1       1.441   2.278  20.273  0.00  0.00    +0.000 Cl
ATOM     11  C   UNL     1       1.595   4.933  20.591  0.00  0.00    +0.000 A 
BRANCH   8  12
ATOM     12  C   UNL     1       3.602   2.843  18.089  0.00  0.00    +0.000 C 
ATOM     13  F   UNL     1       4.174   1.864  18.849  0.00  0.00    +0.000 F 
ATOM     14  F   UNL     1       2.635   2.217  17.366  0.00  0.00    +0.000 F 
ATOM     15  F   UNL     1       4.568   3.215  17.204  0.00  0.00    +0.000 F 
ENDBRANCH   8  12
ENDBRANCH   3   5
BRANCH   2  16
ATOM     16  C   UNL     1       0.514   9.536  21.153  0.00  0.00    +0.000 A 
ATOM     17  C   UNL     1       0.439  10.853  20.694  0.00  0.00    +0.000 A 
ATOM     18  C   UNL     1      -0.293  11.790  21.414  0.00  0.00    +0.000 A 
ATOM     19  C   UNL     1      -0.948  11.412  22.594  0.00  0.00    +0.000 A 
ATOM     20  C   UNL     1      -0.822  10.101  23.074  0.00  0.00    +0.000 A 
ATOM     21  C   UNL     1      -0.083   9.160  22.356  0.00  0.00    +0.000 A 
BRANCH  19  22
ATOM     22  C   UNL     1      -1.792  12.425  23.335  0.00  0.00    +0.000 C 
BRANCH  22  23
ATOM     23  N   UNL     1      -3.244  12.155  23.245  0.00  0.00    +0.000 NA
ATOM     24  C   UNL     1      -3.937  12.584  24.473  0.00  0.00    +0.000 C 
ATOM     25  C   UNL     1      -5.462  12.543  24.364  0.00  0.00    +0.000 C 
ATOM     26  C   UNL     1      -5.941  13.325  23.153  0.00  0.00    +0.000 C 
ATOM     27  C   UNL     1      -5.283  12.760  21.905  0.00  0.00    +0.000 C 
ATOM     28  C   UNL     1      -3.761  12.795  22.026  0.00  0.00    +0.000 C 
ENDBRANCH  22  23
ENDBRANCH  19  22
ENDBRANCH   2  16
TORSDOF 5
ENDMDL
MODEL 2
REMARK VINA RESULT:      -8.1      1.803      2.411
REMARK  Name = 
REMARK  5 active torsions:
REMARK  status: ('A' for Active; 'I' for Inactive)
REMARK    1  A    between atoms: C_2  and  C_15
REMARK    2  A    between atoms: N_3  and  C_4
REMARK    3  A    between atoms: C_7  and  C_8
REMARK    4  A    between atoms: C_18  and  C_19
REMARK    5  A    between atoms: C_19  and  N_20
REMARK                            x       y       z     vdW  Elec       q    Type
REMARK                         _______ _______ _______ _____ _____    ______ ____
ROOT
ATOM      1  O   UNL     1       1.657   9.598  22.170  0.00  0.00    +0.000 OA
ATOM      2  C   UNL     1       0.745   9.790  21.372  0.00  0.00    +0.000 C 
ATOM      3  N   UNL     1       0.650   9.297  20.077  0.00  0.00    +0.000 N 
ATOM      4  H   UNL     1      -0.033   9.729  19.469  0.00  0.00    +0.000 HD
ENDROOT
BRANCH   3   5
ATOM      5  C   UNL     1       1.598   8.449  19.474  0.00  0.00    +0.000 A 
ATOM      6  C   UNL     1       2.215   8.768  18.269  0.00  0.00    +0.000 A 
ATOM      7  C   UNL     1       3.054   7.857  17.638  0.00  0.00    +0.000 A 
ATOM      8  C   UNL     1       3.313   6.605  18.214  0.00  0.00    +0.000 A 
ATOM      9  C   UNL     1       2.746   6.317  19.460  0.00  0.00    +0.000 A 
ATOM     10 CL   UNL     1       3.030   4.813  20.259  0.00  0.00    +0.000 Cl
ATOM     11  C   UNL     1       1.903   7.237  20.098  0.00  0.00    +0.000 A 
BRANCH   8  12
ATOM     12  C   UNL     1       4.171   5.626  17.467  0.00  0.00    +0.000 C 
ATOM     13  F   UNL     1       3.519   4.464  17.171  0.00  0.00    +0.000 F 
ATOM     14  F   UNL     1       4.610   6.105  16.272  0.00  0.00    +0.000 F 
ATOM     15  F   UNL     1       5.277   5.246  18.163  0.00  0.00    +0.000 F 
ENDBRANCH   8  12
ENDBRANCH   3   5
BRANCH   2  16
ATOM     16  C   UNL     1      -0.340  10.715  21.764  0.00  0.00    +0.000 A 
ATOM     17  C   UNL     1      -0.722  11.697  20.848  0.00  0.00    +0.000 A 
ATOM     18  C   UNL     1      -1.785  12.540  21.150  0.00  0.00    +0.000 A 
ATOM     19  C   UNL     1      -2.466  12.403  22.367  0.00  0.00    +0.000 A 
ATOM     20  C   UNL     1      -2.040  11.448  23.302  0.00  0.00    +0.000 A 
ATOM     21  C   UNL     1      -0.969  10.606  23.003  0.00  0.00    +0.000 A 
BRANCH  19  22
ATOM     22  C   UNL     1      -3.660  13.284  22.656  0.00  0.00    +0.000 C 
BRANCH  22  23
ATOM     23  N   UNL     1      -4.937  12.538  22.718  0.00  0.00    +0.000 NA
ATOM     24  C   UNL     1      -5.775  13.018  23.831  0.00  0.00    +0.000 C 
ATOM     25  C   UNL     1      -7.196  12.452  23.819  0.00  0.00    +0.000 C 
ATOM     26  C   UNL     1      -7.865  12.691  22.475  0.00  0.00    +0.000 C 
ATOM     27  C   UNL     1      -7.013  12.071  21.380  0.00  0.00    +0.000 C 
ATOM     28  C   UNL     1      -5.594  12.634  21.406  0.00  0.00    +0.000 C 
ENDBRANCH  22  23
ENDBRANCH  19  22
ENDBRANCH   2  16
TORSDOF 5
ENDMDL
MODEL 3
REMARK VINA RESULT:      -7.9      6.244     10.526
REMARK  Name = 
REMARK  5 active torsions:
REMARK  status: ('A' for Active; 'I' for Inactive)
REMARK    1  A    between atoms: C_2  and  C_15
REMARK    2  A    between atoms: N_3  and  C_4
REMARK    3  A    between atoms: C_7  and  C_8
REMARK    4  A    between atoms: C_18  and  C_19
REMARK    5  A    between atoms: C_19  and  N_20
REMARK                            x       y       z     vdW  Elec       q    Type
REMARK                         _______ _______ _______ _____ _____    ______ ____
ROOT
ATOM      1  O   UNL     1      -1.252  11.256  19.546  0.00  0.00    +0.000 OA
ATOM      2  C   UNL     1      -0.437  10.756  20.315  0.00  0.00    +0.000 C 
ATOM      3  N   UNL     1      -0.192  11.130  21.629  0.00  0.00    +0.000 N 
ATOM      4  H   UNL     1       0.662  10.788  22.053  0.00  0.00    +0.000 HD
ENDROOT
BRANCH   3   5
ATOM      5  C   UNL     1      -0.882  12.147  22.313  0.00  0.00    +0.000 A 
ATOM      6  C   UNL     1      -0.394  13.448  22.393  0.00  0.00    +0.000 A 
ATOM      7  C   UNL     1      -1.036  14.399  23.176  0.00  0.00    +0.000 A 
ATOM      8  C   UNL     1      -2.201  14.075  23.886  0.00  0.00    +0.000 A 
ATOM      9  C   UNL     1      -2.727  12.786  23.746  0.00  0.00    +0.000 A 
ATOM     10 CL   UNL     1      -4.172  12.304  24.558  0.00  0.00    +0.000 Cl
ATOM     11  C   UNL     1      -2.082  11.827  22.953  0.00  0.00    +0.000 A 
BRANCH   8  12
ATOM     12  C   UNL     1      -2.824  15.114  24.772  0.00  0.00    +0.000 C 
ATOM     13  F   UNL     1      -4.120  15.388  24.441  0.00  0.00    +0.000 F 
ATOM     14  F   UNL     1      -2.859  14.747  26.081  0.00  0.00    +0.000 F 
ATOM     15  F   UNL     1      -2.183  16.313  24.721  0.00  0.00    +0.000 F 
ENDBRANCH   8  12
ENDBRANCH   3   5
BRANCH   2  16
ATOM     16  C   UNL     1       0.459   9.704  19.791  0.00  0.00    +0.000 A 
ATOM     17  C   UNL     1       0.788   9.744  18.434  0.00  0.00    +0.000 A 
ATOM     18  C   UNL     1       1.685   8.816  17.917  0.00  0.00    +0.000 A 
ATOM     19  C   UNL     1       2.252   7.847  18.755  0.00  0.00    +0.000 A 
ATOM     20  C   UNL     1       1.875   7.782  20.104  0.00  0.00    +0.000 A 
ATOM     21  C   UNL     1       0.970   8.709  20.623  0.00  0.00    +0.000 A 
BRANCH  19  22
ATOM     22  C   UNL     1       3.273   6.883  18.195  0.00  0.00    +0.000 C 
BRANCH  22  23
ATOM     23  N   UNL     1       3.075   5.489  18.651  0.00  0.00    +0.000 NA
ATOM     24  C   UNL     1       2.040   4.814  17.848  0.00  0.00    +0.000 C 
ATOM     25  C   UNL     1       1.940   3.311  18.113  0.00  0.00    +0.000 C 
ATOM     26  C   UNL     1       3.294   2.640  17.954  0.00  0.00    +0.000 C 
ATOM     27  C   UNL     1       4.289   3.302  18.892  0.00  0.00    +0.000 C 
ATOM     28  C   UNL     1       4.375   4.803  18.628  0.00  0.00    +0.000 C 
ENDBRANCH  22  23
ENDBRANCH  19  22
ENDBRANCH   2  16
TORSDOF 5
ENDMDL
MODEL 4
REMARK VINA RESULT:      -7.9      1.194      1.686
REMARK  Name = 
REMARK  5 active torsions:
REMARK  status: ('A' for Active; 'I' for Inactive)
REMARK    1  A    between atoms: C_2  and  C_15
REMARK    2  A    between atoms: N_3  and  C_4
REMARK    3  A    between atoms: C_7  and  C_8
REMARK    4  A    between atoms: C_18  and  C_19
REMARK    5  A    between atoms: C_19  and  N_20
REMARK                            x       y       z     vdW  Elec       q    Type
REMARK                         _______ _______ _______ _____ _____    ______ ____
ROOT
ATOM      1  O   UNL     1       1.472   8.698  19.247  0.00  0.00    +0.000 OA
ATOM      2  C   UNL     1       1.190   8.452  20.415  0.00  0.00    +0.000 C 
ATOM      3  N   UNL     1       1.328   7.235  21.069  0.00  0.00    +0.000 N 
ATOM      4  H   UNL     1       0.839   7.127  21.948  0.00  0.00    +0.000 HD
ENDROOT
BRANCH   3   5
ATOM      5  C   UNL     1       1.859   6.071  20.485  0.00  0.00    +0.000 A 
ATOM      6  C   UNL     1       1.158   4.869  20.461  0.00  0.00    +0.000 A 
ATOM      7  C   UNL     1       1.756   3.708  19.987  0.00  0.00    +0.000 A 
ATOM      8  C   UNL     1       3.072   3.727  19.502  0.00  0.00    +0.000 A 
ATOM      9  C   UNL     1       3.748   4.951  19.463  0.00  0.00    +0.000 A 
ATOM     10 CL   UNL     1       5.361   5.077  18.857  0.00  0.00    +0.000 Cl
ATOM     11  C   UNL     1       3.144   6.123  19.938  0.00  0.00    +0.000 A 
BRANCH   8  12
ATOM     12  C   UNL     1       3.702   2.438  19.062  0.00  0.00    +0.000 C 
ATOM     13  F   UNL     1       4.226   2.504  17.803  0.00  0.00    +0.000 F 
ATOM     14  F   UNL     1       4.733   2.047  19.859  0.00  0.00    +0.000 F 
ATOM     15  F   UNL     1       2.823   1.399  19.027  0.00  0.00    +0.000 F 
ENDBRANCH   8  12
ENDBRANCH   3   5
BRANCH   2  16
ATOM     16  C   UNL     1       0.546   9.517  21.214  0.00  0.00    +0.000 A 
ATOM     17  C   UNL     1       0.629  10.828  20.740  0.00  0.00    +0.000 A 
ATOM     18  C   UNL     1      -0.024  11.847  21.423  0.00  0.00    +0.000 A 
ATOM     19  C   UNL     1      -0.759  11.557  22.581  0.00  0.00    +0.000 A 
ATOM     20  C   UNL     1      -0.791  10.246  23.078  0.00  0.00    +0.000 A 
ATOM     21  C   UNL     1      -0.130   9.223  22.397  0.00  0.00    +0.000 A 
BRANCH  19  22
ATOM     22  C   UNL     1      -1.516  12.664  23.280  0.00  0.00    +0.000 C 
BRANCH  22  23
ATOM     23  N   UNL     1      -2.970  12.642  23.006  0.00  0.00    +0.000 NA
ATOM     24  C   UNL     1      -3.739  12.502  24.255  0.00  0.00    +0.000 C 
ATOM     25  C   UNL     1      -5.246  12.696  24.074  0.00  0.00    +0.000 C 
ATOM     26  C   UNL     1      -5.544  14.016  23.382  0.00  0.00    +0.000 C 
ATOM     27  C   UNL     1      -4.817  14.052  22.048  0.00  0.00    +0.000 C 
ATOM     28  C   UNL     1      -3.316  13.846  22.237  0.00  0.00    +0.000 C 
ENDBRANCH  22  23
ENDBRANCH  19  22
ENDBRANCH   2  16
TORSDOF 5
ENDMDL
MODEL 5
REMARK VINA RESULT:      -7.8      6.142     10.483
REMARK  Name = 
REMARK  5 active torsions:
REMARK  status: ('A' for Active; 'I' for Inactive)
REMARK    1  A    between atoms: C_2  and  C_15
REMARK    2  A    between atoms: N_3  and  C_4
REMARK    3  A    between atoms: C_7  and  C_8
REMARK    4  A    between atoms: C_18  and  C_19
REMARK    5  A    between atoms: C_19  and  N_20
REMARK                            x       y       z     vdW  Elec       q    Type
REMARK                         _______ _______ _______ _____ _____    ______ ____
ROOT
ATOM      1  O   UNL     1      -1.135  10.620  19.471  0.00  0.00    +0.000 OA
ATOM      2  C   UNL     1      -0.112  10.407  20.115  0.00  0.00    +0.000 C 
ATOM      3  N   UNL     1       0.305  11.067  21.263  0.00  0.00    +0.000 N 
ATOM      4  H   UNL     1       1.270  10.943  21.540  0.00  0.00    +0.000 HD
ENDROOT
BRANCH   3   5
ATOM      5  C   UNL     1      -0.418  12.090  21.903  0.00  0.00    +0.000 A 
ATOM      6  C   UNL     1       0.022  13.410  21.917  0.00  0.00    +0.000 A 
ATOM      7  C   UNL     1      -0.649  14.373  22.660  0.00  0.00    +0.000 A 
ATOM      8  C   UNL     1      -1.797  14.041  23.393  0.00  0.00    +0.000 A 
ATOM      9  C   UNL     1      -2.276  12.729  23.319  0.00  0.00    +0.000 A 
ATOM     10 CL   UNL     1      -3.698  12.234  24.165  0.00  0.00    +0.000 Cl
ATOM     11  C   UNL     1      -1.602  11.757  22.567  0.00  0.00    +0.000 A 
BRANCH   8  12
ATOM     12  C   UNL     1      -2.452  15.098  24.234  0.00  0.00    +0.000 C 
ATOM     13  F   UNL     1      -1.822  16.306  24.158  0.00  0.00    +0.000 F 
ATOM     14  F   UNL     1      -3.741  15.343  23.875  0.00  0.00    +0.000 F 
ATOM     15  F   UNL     1      -2.470  14.790  25.560  0.00  0.00    +0.000 F 
ENDBRANCH   8  12
ENDBRANCH   3   5
BRANCH   2  16
ATOM     16  C   UNL     1       0.846   9.411  19.588  0.00  0.00    +0.000 A 
ATOM     17  C   UNL     1       1.284   8.407  20.454  0.00  0.00    +0.000 A 
ATOM     18  C   UNL     1       2.128   7.411  19.978  0.00  0.00    +0.000 A 
ATOM     19  C   UNL     1       2.536   7.418  18.637  0.00  0.00    +0.000 A 
ATOM     20  C   UNL     1       2.132   8.460  17.790  0.00  0.00    +0.000 A 
ATOM     21  C   UNL     1       1.290   9.465  18.268  0.00  0.00    +0.000 A 
BRANCH  19  22
ATOM     22  C   UNL     1       3.403   6.295  18.115  0.00  0.00    +0.000 C 
BRANCH  22  23
ATOM     23  N   UNL     1       3.020   4.966  18.643  0.00  0.00    +0.000 NA
ATOM     24  C   UNL     1       1.991   4.338  17.796  0.00  0.00    +0.000 C 
ATOM     25  C   UNL     1       1.711   2.877  18.150  0.00  0.00    +0.000 C 
ATOM     26  C   UNL     1       2.995   2.064  18.160  0.00  0.00    +0.000 C 
ATOM     27  C   UNL     1       3.972   2.693  19.140  0.00  0.00    +0.000 C 
ATOM     28  C   UNL     1       4.238   4.154  18.785  0.00  0.00    +0.000 C 
ENDBRANCH  22  23
ENDBRANCH  19  22
ENDBRANCH   2  16
TORSDOF 5
ENDMDL
MODEL 6
REMARK VINA RESULT:      -7.8      6.302     10.636
REMARK  Name = 
REMARK  5 active torsions:
REMARK  status: ('A' for Active; 'I' for Inactive)
REMARK    1  A    between atoms: C_2  and  C_15
REMARK    2  A    between atoms: N_3  and  C_4
REMARK    3  A    between atoms: C_7  and  C_8
REMARK    4  A    between atoms: C_18  and  C_19
REMARK    5  A    between atoms: C_19  and  N_20
REMARK                            x       y       z     vdW  Elec       q    Type
REMARK                         _______ _______ _______ _____ _____    ______ ____
ROOT
ATOM      1  O   UNL     1       0.330  10.037  23.188  0.00  0.00    +0.000 OA
ATOM      2  C   UNL     1       0.242  10.370  22.011  0.00  0.00    +0.000 C 
ATOM      3  N   UNL     1      -0.428  11.475  21.504  0.00  0.00    +0.000 N 
ATOM      4  H   UNL     1      -0.610  11.487  20.509  0.00  0.00    +0.000 HD
ENDROOT
BRANCH   3   5
ATOM      5  C   UNL     1      -1.101  12.430  22.288  0.00  0.00    +0.000 A 
ATOM      6  C   UNL     1      -0.607  13.717  22.474  0.00  0.00    +0.000 A 
ATOM      7  C   UNL     1      -1.231  14.597  23.350  0.00  0.00    +0.000 A 
ATOM      8  C   UNL     1      -2.385  14.213  24.049  0.00  0.00    +0.000 A 
ATOM      9  C   UNL     1      -2.919  12.944  23.805  0.00  0.00    +0.000 A 
ATOM     10 CL   UNL     1      -4.352  12.395  24.597  0.00  0.00    +0.000 Cl
ATOM     11  C   UNL     1      -2.292  12.057  22.919  0.00  0.00    +0.000 A 
BRANCH   8  12
ATOM     12  C   UNL     1      -2.988  15.171  25.035  0.00  0.00    +0.000 C 
ATOM     13  F   UNL     1      -2.327  16.364  25.091  0.00  0.00    +0.000 F 
ATOM     14  F   UNL     1      -4.279  15.490  24.748  0.00  0.00    +0.000 F 
ATOM     15  F   UNL     1      -2.980  14.699  26.312  0.00  0.00    +0.000 F 
ENDBRANCH   8  12
ENDBRANCH   3   5
BRANCH   2  16
ATOM     16  C   UNL     1       0.820   9.472  20.989  0.00  0.00    +0.000 A 
ATOM     17  C   UNL     1       0.892   9.940  19.675  0.00  0.00    +0.000 A 
ATOM     18  C   UNL     1       1.494   9.155  18.699  0.00  0.00    +0.000 A 
ATOM     19  C   UNL     1       2.024   7.902  19.034  0.00  0.00    +0.000 A 
ATOM     20  C   UNL     1       1.900   7.419  20.344  0.00  0.00    +0.000 A 
ATOM     21  C   UNL     1       1.289   8.203  21.324  0.00  0.00    +0.000 A 
BRANCH  19  22
ATOM     22  C   UNL     1       2.732   7.085  17.977  0.00  0.00    +0.000 C 
BRANCH  22  23
ATOM     23  N   UNL     1       2.977   5.684  18.386  0.00  0.00    +0.000 NA
ATOM     24  C   UNL     1       1.973   4.780  17.797  0.00  0.00    +0.000 C 
ATOM     25  C   UNL     1       2.292   3.297  17.992  0.00  0.00    +0.000 C 
ATOM     26  C   UNL     1       3.691   2.973  17.497  0.00  0.00    +0.000 C 
ATOM     27  C   UNL     1       4.692   3.854  18.225  0.00  0.00    +0.000 C 
ATOM     28  C   UNL     1       4.360   5.332  18.034  0.00  0.00    +0.000 C 
ENDBRANCH  22  23
ENDBRANCH  19  22
ENDBRANCH   2  16
TORSDOF 5
ENDMDL
MODEL 7
REMARK VINA RESULT:      -7.8      2.147      3.016
REMARK  Name = 
REMARK  5 active torsions:
REMARK  status: ('A' for Active; 'I' for Inactive)
REMARK    1  A    between atoms: C_2  and  C_15
REMARK    2  A    between atoms: N_3  and  C_4
REMARK    3  A    between atoms: C_7  and  C_8
REMARK    4  A    between atoms: C_18  and  C_19
REMARK    5  A    between atoms: C_19  and  N_20
REMARK                            x       y       z     vdW  Elec       q    Type
REMARK                         _______ _______ _______ _____ _____    ______ ____
ROOT
ATOM      1  O   UNL     1       1.697   8.964  17.482  0.00  0.00    +0.000 OA
ATOM      2  C   UNL     1       1.849   8.553  18.628  0.00  0.00    +0.000 C 
ATOM      3  N   UNL     1       2.646   7.492  19.035  0.00  0.00    +0.000 N 
ATOM      4  H   UNL     1       2.487   7.128  19.966  0.00  0.00    +0.000 HD
ENDROOT
BRANCH   3   5
ATOM      5  C   UNL     1       3.451   6.722  18.176  0.00  0.00    +0.000 A 
ATOM      6  C   UNL     1       4.551   7.257  17.513  0.00  0.00    +0.000 A 
ATOM      7  C   UNL     1       5.252   6.504  16.579  0.00  0.00    +0.000 A 
ATOM      8  C   UNL     1       4.880   5.181  16.301  0.00  0.00    +0.000 A 
ATOM      9  C   UNL     1       3.818   4.624  17.021  0.00  0.00    +0.000 A 
ATOM     10 CL   UNL     1       3.306   2.995  16.766  0.00  0.00    +0.000 Cl
ATOM     11  C   UNL     1       3.112   5.382  17.965  0.00  0.00    +0.000 A 
BRANCH   8  12
ATOM     12  C   UNL     1       5.623   4.427  15.237  0.00  0.00    +0.000 C 
ATOM     13  F   UNL     1       4.848   4.131  14.153  0.00  0.00    +0.000 F 
ATOM     14  F   UNL     1       6.687   5.114  14.740  0.00  0.00    +0.000 F 
ATOM     15  F   UNL     1       6.103   3.228  15.669  0.00  0.00    +0.000 F 
ENDBRANCH   8  12
ENDBRANCH   3   5
BRANCH   2  16
ATOM     16  C   UNL     1       1.042   9.172  19.701  0.00  0.00    +0.000 A 
ATOM     17  C   UNL     1       1.135   8.626  20.983  0.00  0.00    +0.000 A 
ATOM     18  C   UNL     1       0.449   9.222  22.034  0.00  0.00    +0.000 A 
ATOM     19  C   UNL     1      -0.331  10.364  21.805  0.00  0.00    +0.000 A 
ATOM     20  C   UNL     1      -0.460  10.872  20.505  0.00  0.00    +0.000 A 
ATOM     21  C   UNL     1       0.223  10.270  19.447  0.00  0.00    +0.000 A 
BRANCH  19  22
ATOM     22  C   UNL     1      -1.022  11.039  22.968  0.00  0.00    +0.000 C 
BRANCH  22  23
ATOM     23  N   UNL     1      -1.754  12.267  22.581  0.00  0.00    +0.000 NA
ATOM     24  C   UNL     1      -3.150  12.218  23.050  0.00  0.00    +0.000 C 
ATOM     25  C   UNL     1      -3.900  13.540  22.884  0.00  0.00    +0.000 C 
ATOM     26  C   UNL     1      -3.135  14.684  23.530  0.00  0.00    +0.000 C 
ATOM     27  C   UNL     1      -1.745  14.757  22.921  0.00  0.00    +0.000 C 
ATOM     28  C   UNL     1      -1.007  13.430  23.082  0.00  0.00    +0.000 C 
ENDBRANCH  22  23
ENDBRANCH  19  22
ENDBRANCH   2  16
TORSDOF 5
ENDMDL
MODEL 8
REMARK VINA RESULT:      -7.8      0.907      1.342
REMARK  Name = 
REMARK  5 active torsions:
REMARK  status: ('A' for Active; 'I' for Inactive)
REMARK    1  A    between atoms: C_2  and  C_15
REMARK    2  A    between atoms: N_3  and  C_4
REMARK    3  A    between atoms: C_7  and  C_8
REMARK    4  A    between atoms: C_18  and  C_19
REMARK    5  A    between atoms: C_19  and  N_20
REMARK                            x       y       z     vdW  Elec       q    Type
REMARK                         _______ _______ _______ _____ _____    ______ ____
ROOT
ATOM      1  O   UNL     1       1.606   8.769  19.042  0.00  0.00    +0.000 OA
ATOM      2  C   UNL     1       1.355   8.497  20.212  0.00  0.00    +0.000 C 
ATOM      3  N   UNL     1       1.559   7.279  20.847  0.00  0.00    +0.000 N 
ATOM      4  H   UNL     1       1.090   7.138  21.733  0.00  0.00    +0.000 HD
ENDROOT
BRANCH   3   5
ATOM      5  C   UNL     1       2.132   6.147  20.240  0.00  0.00    +0.000 A 
ATOM      6  C   UNL     1       3.176   6.245  19.326  0.00  0.00    +0.000 A 
ATOM      7  C   UNL     1       3.638   5.121  18.653  0.00  0.00    +0.000 A 
ATOM      8  C   UNL     1       3.077   3.859  18.897  0.00  0.00    +0.000 A 
ATOM      9  C   UNL     1       2.076   3.754  19.868  0.00  0.00    +0.000 A 
ATOM     10 CL   UNL     1       1.345   2.238  20.257  0.00  0.00    +0.000 Cl
ATOM     11  C   UNL     1       1.611   4.887  20.550  0.00  0.00    +0.000 A 
BRANCH   8  12
ATOM     12  C   UNL     1       3.561   2.683  18.100  0.00  0.00    +0.000 C 
ATOM     13  F   UNL     1       2.563   2.068  17.399  0.00  0.00    +0.000 F 
ATOM     14  F   UNL     1       4.498   3.016  17.172  0.00  0.00    +0.000 F 
ATOM     15  F   UNL     1       4.108   1.704  18.871  0.00  0.00    +0.000 F 
ENDBRANCH   8  12
ENDBRANCH   3   5
BRANCH   2  16
ATOM     16  C   UNL     1       0.678   9.521  21.035  0.00  0.00    +0.000 A 
ATOM     17  C   UNL     1       0.664  10.834  20.560  0.00  0.00    +0.000 A 
ATOM     18  C   UNL     1      -0.024  11.813  21.267  0.00  0.00    +0.000 A 
ATOM     19  C   UNL     1      -0.698  11.480  22.450  0.00  0.00    +0.000 A 
ATOM     20  C   UNL     1      -0.634  10.170  22.946  0.00  0.00    +0.000 A 
ATOM     21  C   UNL     1       0.062   9.188  22.240  0.00  0.00    +0.000 A 
BRANCH  19  22
ATOM     22  C   UNL     1      -1.495  12.540  23.177  0.00  0.00    +0.000 C 
BRANCH  22  23
ATOM     23  N   UNL     1      -2.512  13.195  22.325  0.00  0.00    +0.000 NA
ATOM     24  C   UNL     1      -3.867  12.728  22.668  0.00  0.00    +0.000 C 
ATOM     25  C   UNL     1      -4.982  13.523  21.987  0.00  0.00    +0.000 C 
ATOM     26  C   UNL     1      -4.824  15.012  22.246  0.00  0.00    +0.000 C 
ATOM     27  C   UNL     1      -3.453  15.457  21.764  0.00  0.00    +0.000 C 
ATOM     28  C   UNL     1      -2.347  14.651  22.441  0.00  0.00    +0.000 C 
ENDBRANCH  22  23
ENDBRANCH  19  22
ENDBRANCH   2  16
TORSDOF 5
ENDMDL
MODEL 9
REMARK VINA RESULT:      -7.8      6.203     10.414
REMARK  Name = 
REMARK  5 active torsions:
REMARK  status: ('A' for Active; 'I' for Inactive)
REMARK    1  A    between atoms: C_2  and  C_15
REMARK    2  A    between atoms: N_3  and  C_4
REMARK    3  A    between atoms: C_7  and  C_8
REMARK    4  A    between atoms: C_18  and  C_19
REMARK    5  A    between atoms: C_19  and  N_20
REMARK                            x       y       z     vdW  Elec       q    Type
REMARK                         _______ _______ _______ _____ _____    ______ ____
ROOT
ATOM      1  O   UNL     1      -0.824  11.294  19.496  0.00  0.00    +0.000 OA
ATOM      2  C   UNL     1      -0.188  10.707  20.366  0.00  0.00    +0.000 C 
ATOM      3  N   UNL     1      -0.151  11.008  21.720  0.00  0.00    +0.000 N 
ATOM      4  H   UNL     1       0.593  10.589  22.265  0.00  0.00    +0.000 HD
ENDROOT
BRANCH   3   5
ATOM      5  C   UNL     1      -0.884  12.042  22.329  0.00  0.00    +0.000 A 
ATOM      6  C   UNL     1      -0.447  13.363  22.322  0.00  0.00    +0.000 A 
ATOM      7  C   UNL     1      -1.130  14.341  23.035  0.00  0.00    +0.000 A 
ATOM      8  C   UNL     1      -2.287  14.021  23.760  0.00  0.00    +0.000 A 
ATOM      9  C   UNL     1      -2.763  12.707  23.707  0.00  0.00    +0.000 A 
ATOM     10 CL   UNL     1      -4.194  12.226  24.544  0.00  0.00    +0.000 Cl
ATOM     11  C   UNL     1      -2.076  11.721  22.985  0.00  0.00    +0.000 A 
BRANCH   8  12
ATOM     12  C   UNL     1      -2.955  15.094  24.569  0.00  0.00    +0.000 C 
ATOM     13  F   UNL     1      -3.017  14.796  25.900  0.00  0.00    +0.000 F 
ATOM     14  F   UNL     1      -2.316  16.292  24.499  0.00  0.00    +0.000 F 
ATOM     15  F   UNL     1      -4.245  15.320  24.195  0.00  0.00    +0.000 F 
ENDBRANCH   8  12
ENDBRANCH   3   5
BRANCH   2  16
ATOM     16  C   UNL     1       0.718   9.616  19.947  0.00  0.00    +0.000 A 
ATOM     17  C   UNL     1       1.084   8.668  20.905  0.00  0.00    +0.000 A 
ATOM     18  C   UNL     1       1.875   7.587  20.534  0.00  0.00    +0.000 A 
ATOM     19  C   UNL     1       2.303   7.454  19.206  0.00  0.00    +0.000 A 
ATOM     20  C   UNL     1       1.974   8.439  18.264  0.00  0.00    +0.000 A 
ATOM     21  C   UNL     1       1.185   9.528  18.636  0.00  0.00    +0.000 A 
BRANCH  19  22
ATOM     22  C   UNL     1       3.111   6.241  18.802  0.00  0.00    +0.000 C 
BRANCH  22  23
ATOM     23  N   UNL     1       2.277   5.059  18.489  0.00  0.00    +0.000 NA
ATOM     24  C   UNL     1       3.036   4.072  17.703  0.00  0.00    +0.000 C 
ATOM     25  C   UNL     1       2.315   2.734  17.535  0.00  0.00    +0.000 C 
ATOM     26  C   UNL     1       1.896   2.169  18.883  0.00  0.00    +0.000 C 
ATOM     27  C   UNL     1       1.019   3.185  19.595  0.00  0.00    +0.000 C 
ATOM     28  C   UNL     1       1.743   4.521  19.749  0.00  0.00    +0.000 C 
ENDBRANCH  22  23
ENDBRANCH  19  22
ENDBRANCH   2  16
TORSDOF 5
ENDMDL
