MODEL 1
REMARK VINA RESULT:      -7.8      0.000      0.000
REMARK  Name = 
REMARK  9 active torsions:
REMARK  status: ('A' for Active; 'I' for Inactive)
REMARK    1  A    between atoms: C_1  and  O_2
REMARK    2  A    between atoms: O_2  and  C_3
REMARK    3  A    between atoms: C_7  and  O_8
REMARK    4  A    between atoms: O_8  and  C_9
REMARK    5  A    between atoms: C_9  and  C_10
REMARK    6  A    between atoms: C_10  and  O_11
REMARK    7  A    between atoms: C_10  and  C_12
REMARK    8  A    between atoms: C_12  and  N_13
REMARK    9  A    between atoms: C_16  and  N_17
REMARK                            x       y       z     vdW  Elec       q    Type
REMARK                         _______ _______ _______ _____ _____    ______ ____
ROOT
ATOM      1  N   UNL     1       1.509   2.532  18.757  0.00  0.00    +0.000 NA
ATOM      2  C   UNL     1       1.677   3.756  17.957  0.00  0.00    +0.000 C 
ATOM      3  C   UNL     1       2.394   3.464  16.645  0.00  0.00    +0.000 C 
ATOM      4  C   UNL     1       3.796   2.907  16.896  0.00  0.00    +0.000 C 
ATOM      5  C   UNL     1       3.692   1.679  17.803  0.00  0.00    +0.000 C 
ATOM      6  C   UNL     1       2.813   1.898  19.039  0.00  0.00    +0.000 C 
ENDROOT
BRANCH   4   7
ATOM      7  N   UNL     1       4.749   3.956  17.295  0.00  0.00    +0.000 N 
ATOM      8  C   UNL     1       5.035   5.061  16.385  0.00  0.00    +0.000 C 
ATOM      9  C   UNL     1       6.136   5.789  17.068  0.00  0.00    +0.000 A 
ATOM     10  C   UNL     1       6.924   6.832  16.618  0.00  0.00    +0.000 A 
ATOM     11  C   UNL     1       7.871   7.368  17.497  0.00  0.00    +0.000 A 
ATOM     12  C   UNL     1       7.997   6.879  18.812  0.00  0.00    +0.000 A 
ATOM     13  C   UNL     1       7.212   5.811  19.250  0.00  0.00    +0.000 A 
ATOM     14  C   UNL     1       6.313   5.273  18.347  0.00  0.00    +0.000 A 
ATOM     15  C   UNL     1       5.467   4.082  18.483  0.00  0.00    +0.000 C 
ATOM     16  O   UNL     1       5.499   3.371  19.460  0.00  0.00    +0.000 OA
ENDBRANCH   4   7
BRANCH   1  17
ATOM     17  C   UNL     1       0.871   2.848  20.055  0.00  0.00    +0.000 C 
BRANCH  17  18
ATOM     18  C   UNL     1       1.785   3.438  21.148  0.00  0.00    +0.000 C 
BRANCH  18  19
ATOM     19  O   UNL     1       1.410   2.852  22.406  0.00  0.00    +0.000 OA
ATOM     20  H   UNL     1       0.862   2.071  22.221  0.00  0.00    +0.000 HD
ENDBRANCH  18  19
BRANCH  18  21
ATOM     21  C   UNL     1       1.672   4.966  21.201  0.00  0.00    +0.000 C 
BRANCH  21  22
ATOM     22  O   UNL     1       2.655   5.544  20.335  0.00  0.00    +0.000 OA
BRANCH  22  27
ATOM     23  C   UNL     1       1.327   8.963  19.743  0.00  0.00    +0.000 A 
ATOM     24  C   UNL     1       1.836   9.162  18.458  0.00  0.00    +0.000 A 
ATOM     25  C   UNL     1       2.601   8.173  17.841  0.00  0.00    +0.000 A 
ATOM     26  C   UNL     1       2.852   6.975  18.508  0.00  0.00    +0.000 A 
ATOM     27  C   UNL     1       2.349   6.764  19.793  0.00  0.00    +0.000 A 
ATOM     28  C   UNL     1       1.594   7.765  20.410  0.00  0.00    +0.000 A 
BRANCH  23  30
ATOM     29  C   UNL     1      -0.505  10.448  19.431  0.00  0.00    +0.000 C 
ATOM     30  O   UNL     1       0.582  10.002  20.234  0.00  0.00    +0.000 OA
ENDBRANCH  23  30
ENDBRANCH  22  27
ENDBRANCH  21  22
ENDBRANCH  18  21
ENDBRANCH  17  18
ENDBRANCH   1  17
TORSDOF 8
ENDMDL
MODEL 2
REMARK VINA RESULT:      -7.8      4.428      7.635
REMARK  Name = 
REMARK  9 active torsions:
REMARK  status: ('A' for Active; 'I' for Inactive)
REMARK    1  A    between atoms: C_1  and  O_2
REMARK    2  A    between atoms: O_2  and  C_3
REMARK    3  A    between atoms: C_7  and  O_8
REMARK    4  A    between atoms: O_8  and  C_9
REMARK    5  A    between atoms: C_9  and  C_10
REMARK    6  A    between atoms: C_10  and  O_11
REMARK    7  A    between atoms: C_10  and  C_12
REMARK    8  A    between atoms: C_12  and  N_13
REMARK    9  A    between atoms: C_16  and  N_17
REMARK                            x       y       z     vdW  Elec       q    Type
REMARK                         _______ _______ _______ _____ _____    ______ ____
ROOT
ATOM      1  N   UNL     1       6.819   6.728  16.778  0.00  0.00    +0.000 NA
ATOM      2  C   UNL     1       7.023   5.589  17.690  0.00  0.00    +0.000 C 
ATOM      3  C   UNL     1       6.863   4.262  16.960  0.00  0.00    +0.000 C 
ATOM      4  C   UNL     1       5.453   4.117  16.386  0.00  0.00    +0.000 C 
ATOM      5  C   UNL     1       5.147   5.325  15.497  0.00  0.00    +0.000 C 
ATOM      6  C   UNL     1       5.484   6.670  16.148  0.00  0.00    +0.000 C 
ENDROOT
BRANCH   4   7
ATOM      7  N   UNL     1       4.461   3.780  17.420  0.00  0.00    +0.000 N 
ATOM      8  C   UNL     1       3.060   3.602  17.050  0.00  0.00    +0.000 C 
ATOM      9  C   UNL     1       2.380   3.442  18.362  0.00  0.00    +0.000 A 
ATOM     10  C   UNL     1       1.030   3.392  18.662  0.00  0.00    +0.000 A 
ATOM     11  C   UNL     1       0.661   3.185  19.996  0.00  0.00    +0.000 A 
ATOM     12  C   UNL     1       1.634   3.002  20.997  0.00  0.00    +0.000 A 
ATOM     13  C   UNL     1       2.993   3.076  20.688  0.00  0.00    +0.000 A 
ATOM     14  C   UNL     1       3.330   3.323  19.370  0.00  0.00    +0.000 A 
ATOM     15  C   UNL     1       4.651   3.581  18.786  0.00  0.00    +0.000 C 
ATOM     16  O   UNL     1       5.656   3.646  19.457  0.00  0.00    +0.000 OA
ENDBRANCH   4   7
BRANCH   1  17
ATOM     17  C   UNL     1       6.914   8.006  17.520  0.00  0.00    +0.000 C 
BRANCH  17  18
ATOM     18  C   UNL     1       8.327   8.456  17.939  0.00  0.00    +0.000 C 
BRANCH  18  19
ATOM     19  O   UNL     1       8.690   7.735  19.129  0.00  0.00    +0.000 OA
ATOM     20  H   UNL     1       8.059   7.005  19.240  0.00  0.00    +0.000 HD
ENDBRANCH  18  19
BRANCH  18  21
ATOM     21  C   UNL     1       8.378   9.970  18.181  0.00  0.00    +0.000 C 
BRANCH  21  22
ATOM     22  O   UNL     1       9.341  10.255  19.202  0.00  0.00    +0.000 OA
BRANCH  22  27
ATOM     23  C   UNL     1      10.354  13.718  18.318  0.00  0.00    +0.000 A 
ATOM     24  C   UNL     1      11.556  13.768  19.026  0.00  0.00    +0.000 A 
ATOM     25  C   UNL     1      11.982  12.669  19.773  0.00  0.00    +0.000 A 
ATOM     26  C   UNL     1      11.207  11.512  19.804  0.00  0.00    +0.000 A 
ATOM     27  C   UNL     1      10.003  11.449  19.100  0.00  0.00    +0.000 A 
ATOM     28  C   UNL     1       9.577  12.558  18.364  0.00  0.00    +0.000 A 
BRANCH  23  30
ATOM     29  C   UNL     1      11.126  15.483  16.922  0.00  0.00    +0.000 C 
ATOM     30  O   UNL     1      10.054  14.854  17.614  0.00  0.00    +0.000 OA
ENDBRANCH  23  30
ENDBRANCH  22  27
ENDBRANCH  21  22
ENDBRANCH  18  21
ENDBRANCH  17  18
ENDBRANCH   1  17
TORSDOF 8
ENDMDL
MODEL 3
REMARK VINA RESULT:      -7.4      4.249      7.243
REMARK  Name = 
REMARK  9 active torsions:
REMARK  status: ('A' for Active; 'I' for Inactive)
REMARK    1  A    between atoms: C_1  and  O_2
REMARK    2  A    between atoms: O_2  and  C_3
REMARK    3  A    between atoms: C_7  and  O_8
REMARK    4  A    between atoms: O_8  and  C_9
REMARK    5  A    between atoms: C_9  and  C_10
REMARK    6  A    between atoms: C_10  and  O_11
REMARK    7  A    between atoms: C_10  and  C_12
REMARK    8  A    between atoms: C_12  and  N_13
REMARK    9  A    between atoms: C_16  and  N_17
REMARK                            x       y       z     vdW  Elec       q    Type
REMARK                         _______ _______ _______ _____ _____    ______ ____
ROOT
ATOM      1  N   UNL     1       6.798   6.677  16.762  0.00  0.00    +0.000 NA
ATOM      2  C   UNL     1       6.839   5.565  17.727  0.00  0.00    +0.000 C 
ATOM      3  C   UNL     1       6.643   4.224  17.033  0.00  0.00    +0.000 C 
ATOM      4  C   UNL     1       5.280   4.156  16.342  0.00  0.00    +0.000 C 
ATOM      5  C   UNL     1       5.142   5.345  15.388  0.00  0.00    +0.000 C 
ATOM      6  C   UNL     1       5.522   6.689  16.019  0.00  0.00    +0.000 C 
ENDROOT
BRANCH   4   7
ATOM      7  N   UNL     1       4.182   3.933  17.296  0.00  0.00    +0.000 N 
ATOM      8  C   UNL     1       3.435   5.073  17.822  0.00  0.00    +0.000 C 
ATOM      9  C   UNL     1       2.552   4.458  18.846  0.00  0.00    +0.000 A 
ATOM     10  C   UNL     1       1.727   5.056  19.782  0.00  0.00    +0.000 A 
ATOM     11  C   UNL     1       0.960   4.227  20.607  0.00  0.00    +0.000 A 
ATOM     12  C   UNL     1       1.002   2.826  20.468  0.00  0.00    +0.000 A 
ATOM     13  C   UNL     1       1.854   2.232  19.536  0.00  0.00    +0.000 A 
ATOM     14  C   UNL     1       2.633   3.072  18.762  0.00  0.00    +0.000 A 
ATOM     15  C   UNL     1       3.697   2.732  17.811  0.00  0.00    +0.000 C 
ATOM     16  O   UNL     1       4.057   1.594  17.619  0.00  0.00    +0.000 OA
ENDBRANCH   4   7
BRANCH   1  17
ATOM     17  C   UNL     1       6.924   7.974  17.464  0.00  0.00    +0.000 C 
BRANCH  17  18
ATOM     18  C   UNL     1       8.343   8.384  17.907  0.00  0.00    +0.000 C 
BRANCH  18  19
ATOM     19  O   UNL     1       8.679   7.629  19.083  0.00  0.00    +0.000 OA
ATOM     20  H   UNL     1       7.867   7.204  19.408  0.00  0.00    +0.000 HD
ENDBRANCH  18  19
BRANCH  18  21
ATOM     21  C   UNL     1       8.425   9.891  18.182  0.00  0.00    +0.000 C 
BRANCH  21  22
ATOM     22  O   UNL     1       9.744  10.219  18.632  0.00  0.00    +0.000 OA
BRANCH  22  27
ATOM     23  C   UNL     1       9.444  12.359  21.654  0.00  0.00    +0.000 A 
ATOM     24  C   UNL     1      10.157  13.468  21.193  0.00  0.00    +0.000 A 
ATOM     25  C   UNL     1      10.716  13.466  19.915  0.00  0.00    +0.000 A 
ATOM     26  C   UNL     1      10.553  12.355  19.090  0.00  0.00    +0.000 A 
ATOM     27  C   UNL     1       9.842  11.240  19.539  0.00  0.00    +0.000 A 
ATOM     28  C   UNL     1       9.296  11.244  20.825  0.00  0.00    +0.000 A 
BRANCH  23  30
ATOM     29  C   UNL     1       8.346  13.741  23.249  0.00  0.00    +0.000 C 
ATOM     30  O   UNL     1       8.934  12.488  22.919  0.00  0.00    +0.000 OA
ENDBRANCH  23  30
ENDBRANCH  22  27
ENDBRANCH  21  22
ENDBRANCH  18  21
ENDBRANCH  17  18
ENDBRANCH   1  17
TORSDOF 8
ENDMDL
MODEL 4
REMARK VINA RESULT:      -7.3      2.952      8.020
REMARK  Name = 
REMARK  9 active torsions:
REMARK  status: ('A' for Active; 'I' for Inactive)
REMARK    1  A    between atoms: C_1  and  O_2
REMARK    2  A    between atoms: O_2  and  C_3
REMARK    3  A    between atoms: C_7  and  O_8
REMARK    4  A    between atoms: O_8  and  C_9
REMARK    5  A    between atoms: C_9  and  C_10
REMARK    6  A    between atoms: C_10  and  O_11
REMARK    7  A    between atoms: C_10  and  C_12
REMARK    8  A    between atoms: C_12  and  N_13
REMARK    9  A    between atoms: C_16  and  N_17
REMARK                            x       y       z     vdW  Elec       q    Type
REMARK                         _______ _______ _______ _____ _____    ______ ____
ROOT
ATOM      1  N   UNL     1       2.325   7.969  18.867  0.00  0.00    +0.000 NA
ATOM      2  C   UNL     1       2.069   8.969  17.817  0.00  0.00    +0.000 C 
ATOM      3  C   UNL     1       1.976  10.372  18.403  0.00  0.00    +0.000 C 
ATOM      4  C   UNL     1       0.821  10.476  19.400  0.00  0.00    +0.000 C 
ATOM      5  C   UNL     1       0.985   9.395  20.471  0.00  0.00    +0.000 C 
ATOM      6  C   UNL     1       1.271   8.002  19.901  0.00  0.00    +0.000 C 
ENDROOT
BRANCH   4   7
ATOM      7  N   UNL     1      -0.487  10.563  18.731  0.00  0.00    +0.000 N 
ATOM      8  C   UNL     1      -0.753   9.748  17.549  0.00  0.00    +0.000 C 
ATOM      9  C   UNL     1      -2.080  10.235  17.091  0.00  0.00    +0.000 A 
ATOM     10  C   UNL     1      -2.780   9.948  15.933  0.00  0.00    +0.000 A 
ATOM     11  C   UNL     1      -4.047  10.518  15.773  0.00  0.00    +0.000 A 
ATOM     12  C   UNL     1      -4.607  11.334  16.775  0.00  0.00    +0.000 A 
ATOM     13  C   UNL     1      -3.884  11.636  17.929  0.00  0.00    +0.000 A 
ATOM     14  C   UNL     1      -2.617  11.094  18.044  0.00  0.00    +0.000 A 
ATOM     15  C   UNL     1      -1.594  11.341  19.066  0.00  0.00    +0.000 C 
ATOM     16  O   UNL     1      -1.753  12.135  19.965  0.00  0.00    +0.000 OA
ENDBRANCH   4   7
BRANCH   1  17
ATOM     17  C   UNL     1       2.346   6.606  18.287  0.00  0.00    +0.000 C 
BRANCH  17  18
ATOM     18  C   UNL     1       2.508   5.437  19.278  0.00  0.00    +0.000 C 
BRANCH  18  19
ATOM     19  O   UNL     1       3.544   5.785  20.213  0.00  0.00    +0.000 OA
ATOM     20  H   UNL     1       3.212   5.605  21.108  0.00  0.00    +0.000 HD
ENDBRANCH  18  19
BRANCH  18  21
ATOM     21  C   UNL     1       2.847   4.132  18.547  0.00  0.00    +0.000 C 
BRANCH  21  22
ATOM     22  O   UNL     1       4.254   3.885  18.646  0.00  0.00    +0.000 OA
BRANCH  22  27
ATOM     23  C   UNL     1       6.775   5.778  16.680  0.00  0.00    +0.000 A 
ATOM     24  C   UNL     1       6.463   5.281  15.413  0.00  0.00    +0.000 A 
ATOM     25  C   UNL     1       5.446   4.340  15.254  0.00  0.00    +0.000 A 
ATOM     26  C   UNL     1       4.732   3.899  16.367  0.00  0.00    +0.000 A 
ATOM     27  C   UNL     1       5.034   4.388  17.639  0.00  0.00    +0.000 A 
ATOM     28  C   UNL     1       6.063   5.321  17.792  0.00  0.00    +0.000 A 
BRANCH  23  30
ATOM     29  C   UNL     1       7.555   7.882  17.471  0.00  0.00    +0.000 C 
ATOM     30  O   UNL     1       7.783   6.706  16.703  0.00  0.00    +0.000 OA
ENDBRANCH  23  30
ENDBRANCH  22  27
ENDBRANCH  21  22
ENDBRANCH  18  21
ENDBRANCH  17  18
ENDBRANCH   1  17
TORSDOF 8
ENDMDL
MODEL 5
REMARK VINA RESULT:      -7.2      4.502      7.578
REMARK  Name = 
REMARK  9 active torsions:
REMARK  status: ('A' for Active; 'I' for Inactive)
REMARK    1  A    between atoms: C_1  and  O_2
REMARK    2  A    between atoms: O_2  and  C_3
REMARK    3  A    between atoms: C_7  and  O_8
REMARK    4  A    between atoms: O_8  and  C_9
REMARK    5  A    between atoms: C_9  and  C_10
REMARK    6  A    between atoms: C_10  and  O_11
REMARK    7  A    between atoms: C_10  and  C_12
REMARK    8  A    between atoms: C_12  and  N_13
REMARK    9  A    between atoms: C_16  and  N_17
REMARK                            x       y       z     vdW  Elec       q    Type
REMARK                         _______ _______ _______ _____ _____    ______ ____
ROOT
ATOM      1  N   UNL     1       6.933   6.889  16.761  0.00  0.00    +0.000 NA
ATOM      2  C   UNL     1       7.007   5.778  17.724  0.00  0.00    +0.000 C 
ATOM      3  C   UNL     1       6.777   4.437  17.039  0.00  0.00    +0.000 C 
ATOM      4  C   UNL     1       5.388   4.375  16.403  0.00  0.00    +0.000 C 
ATOM      5  C   UNL     1       5.217   5.565  15.455  0.00  0.00    +0.000 C 
ATOM      6  C   UNL     1       5.627   6.907  16.069  0.00  0.00    +0.000 C 
ENDROOT
BRANCH   4   7
ATOM      7  N   UNL     1       4.327   4.158  17.400  0.00  0.00    +0.000 N 
ATOM      8  C   UNL     1       3.816   2.809  17.632  0.00  0.00    +0.000 C 
ATOM      9  C   UNL     1       2.678   3.032  18.561  0.00  0.00    +0.000 A 
ATOM     10  C   UNL     1       1.715   2.148  19.014  0.00  0.00    +0.000 A 
ATOM     11  C   UNL     1       0.771   2.618  19.933  0.00  0.00    +0.000 A 
ATOM     12  C   UNL     1       0.818   3.944  20.406  0.00  0.00    +0.000 A 
ATOM     13  C   UNL     1       1.779   4.834  19.926  0.00  0.00    +0.000 A 
ATOM     14  C   UNL     1       2.674   4.355  18.987  0.00  0.00    +0.000 A 
ATOM     15  C   UNL     1       3.691   5.086  18.222  0.00  0.00    +0.000 C 
ATOM     16  O   UNL     1       3.837   6.283  18.313  0.00  0.00    +0.000 OA
ENDBRANCH   4   7
BRANCH   1  17
ATOM     17  C   UNL     1       7.093   8.186  17.457  0.00  0.00    +0.000 C 
BRANCH  17  18
ATOM     18  C   UNL     1       8.504   8.520  17.979  0.00  0.00    +0.000 C 
BRANCH  18  19
ATOM     19  O   UNL     1       8.769   7.682  19.117  0.00  0.00    +0.000 OA
ATOM     20  H   UNL     1       9.312   6.934  18.818  0.00  0.00    +0.000 HD
ENDBRANCH  18  19
BRANCH  18  21
ATOM     21  C   UNL     1       8.622  10.003  18.352  0.00  0.00    +0.000 C 
BRANCH  21  22
ATOM     22  O   UNL     1       9.280  10.121  19.618  0.00  0.00    +0.000 OA
BRANCH  22  27
ATOM     23  C   UNL     1      10.017  13.401  21.200  0.00  0.00    +0.000 A 
ATOM     24  C   UNL     1      10.995  13.845  20.307  0.00  0.00    +0.000 A 
ATOM     25  C   UNL     1      11.382  13.048  19.230  0.00  0.00    +0.000 A 
ATOM     26  C   UNL     1      10.780  11.806  19.037  0.00  0.00    +0.000 A 
ATOM     27  C   UNL     1       9.801  11.351  19.922  0.00  0.00    +0.000 A 
ATOM     28  C   UNL     1       9.429  12.149  21.007  0.00  0.00    +0.000 A 
BRANCH  23  30
ATOM     29  C   UNL     1      10.400  15.528  22.196  0.00  0.00    +0.000 C 
ATOM     30  O   UNL     1       9.717  14.279  22.208  0.00  0.00    +0.000 OA
ENDBRANCH  23  30
ENDBRANCH  22  27
ENDBRANCH  21  22
ENDBRANCH  18  21
ENDBRANCH  17  18
ENDBRANCH   1  17
TORSDOF 8
ENDMDL
MODEL 6
REMARK VINA RESULT:      -7.2      2.990      7.924
REMARK  Name = 
REMARK  9 active torsions:
REMARK  status: ('A' for Active; 'I' for Inactive)
REMARK    1  A    between atoms: C_1  and  O_2
REMARK    2  A    between atoms: O_2  and  C_3
REMARK    3  A    between atoms: C_7  and  O_8
REMARK    4  A    between atoms: O_8  and  C_9
REMARK    5  A    between atoms: C_9  and  C_10
REMARK    6  A    between atoms: C_10  and  O_11
REMARK    7  A    between atoms: C_10  and  C_12
REMARK    8  A    between atoms: C_12  and  N_13
REMARK    9  A    between atoms: C_16  and  N_17
REMARK                            x       y       z     vdW  Elec       q    Type
REMARK                         _______ _______ _______ _____ _____    ______ ____
ROOT
ATOM      1  N   UNL     1       1.952   7.622  20.294  0.00  0.00    +0.000 NA
ATOM      2  C   UNL     1       1.806   8.072  18.900  0.00  0.00    +0.000 C 
ATOM      3  C   UNL     1       2.071   9.566  18.771  0.00  0.00    +0.000 C 
ATOM      4  C   UNL     1       1.072  10.375  19.600  0.00  0.00    +0.000 C 
ATOM      5  C   UNL     1       1.112   9.886  21.050  0.00  0.00    +0.000 C 
ATOM      6  C   UNL     1       1.039   8.362  21.189  0.00  0.00    +0.000 C 
ENDROOT
BRANCH   4   7
ATOM      7  N   UNL     1      -0.250  10.454  18.958  0.00  0.00    +0.000 N 
ATOM      8  C   UNL     1      -0.482   9.772  17.687  0.00  0.00    +0.000 C 
ATOM      9  C   UNL     1      -1.845  10.222  17.303  0.00  0.00    +0.000 A 
ATOM     10  C   UNL     1      -2.544  10.031  16.124  0.00  0.00    +0.000 A 
ATOM     11  C   UNL     1      -3.848  10.530  16.045  0.00  0.00    +0.000 A 
ATOM     12  C   UNL     1      -4.443  11.181  17.144  0.00  0.00    +0.000 A 
ATOM     13  C   UNL     1      -3.722  11.388  18.320  0.00  0.00    +0.000 A 
ATOM     14  C   UNL     1      -2.421  10.921  18.357  0.00  0.00    +0.000 A 
ATOM     15  C   UNL     1      -1.400  11.111  19.394  0.00  0.00    +0.000 C 
ATOM     16  O   UNL     1      -1.595  11.778  20.383  0.00  0.00    +0.000 OA
ENDBRANCH   4   7
BRANCH   1  17
ATOM     17  C   UNL     1       1.627   6.182  20.408  0.00  0.00    +0.000 C 
BRANCH  17  18
ATOM     18  C   UNL     1       2.239   5.250  19.344  0.00  0.00    +0.000 C 
BRANCH  18  19
ATOM     19  O   UNL     1       1.312   4.177  19.104  0.00  0.00    +0.000 OA
ATOM     20  H   UNL     1       0.639   4.202  19.804  0.00  0.00    +0.000 HD
ENDBRANCH  18  19
BRANCH  18  21
ATOM     21  C   UNL     1       3.599   4.706  19.800  0.00  0.00    +0.000 C 
BRANCH  21  22
ATOM     22  O   UNL     1       4.638   5.572  19.330  0.00  0.00    +0.000 OA
BRANCH  22  27
ATOM     23  C   UNL     1       5.559   4.493  15.896  0.00  0.00    +0.000 A 
ATOM     24  C   UNL     1       5.419   5.723  15.250  0.00  0.00    +0.000 A 
ATOM     25  C   UNL     1       5.019   6.854  15.962  0.00  0.00    +0.000 A 
ATOM     26  C   UNL     1       4.767   6.757  17.329  0.00  0.00    +0.000 A 
ATOM     27  C   UNL     1       4.903   5.533  17.987  0.00  0.00    +0.000 A 
ATOM     28  C   UNL     1       5.292   4.402  17.264  0.00  0.00    +0.000 A 
BRANCH  23  30
ATOM     29  C   UNL     1       6.404   3.807  13.781  0.00  0.00    +0.000 C 
ATOM     30  O   UNL     1       5.969   3.463  15.092  0.00  0.00    +0.000 OA
ENDBRANCH  23  30
ENDBRANCH  22  27
ENDBRANCH  21  22
ENDBRANCH  18  21
ENDBRANCH  17  18
ENDBRANCH   1  17
TORSDOF 8
ENDMDL
MODEL 7
REMARK VINA RESULT:      -7.1      4.654      7.569
REMARK  Name = 
REMARK  9 active torsions:
REMARK  status: ('A' for Active; 'I' for Inactive)
REMARK    1  A    between atoms: C_1  and  O_2
REMARK    2  A    between atoms: O_2  and  C_3
REMARK    3  A    between atoms: C_7  and  O_8
REMARK    4  A    between atoms: O_8  and  C_9
REMARK    5  A    between atoms: C_9  and  C_10
REMARK    6  A    between atoms: C_10  and  O_11
REMARK    7  A    between atoms: C_10  and  C_12
REMARK    8  A    between atoms: C_12  and  N_13
REMARK    9  A    between atoms: C_16  and  N_17
REMARK                            x       y       z     vdW  Elec       q    Type
REMARK                         _______ _______ _______ _____ _____    ______ ____
ROOT
ATOM      1  N   UNL     1       7.185   6.946  17.143  0.00  0.00    +0.000 NA
ATOM      2  C   UNL     1       7.250   5.994  18.265  0.00  0.00    +0.000 C 
ATOM      3  C   UNL     1       7.183   4.555  17.771  0.00  0.00    +0.000 C 
ATOM      4  C   UNL     1       5.867   4.285  17.042  0.00  0.00    +0.000 C 
ATOM      5  C   UNL     1       5.699   5.308  15.916  0.00  0.00    +0.000 C 
ATOM      6  C   UNL     1       5.952   6.753  16.354  0.00  0.00    +0.000 C 
ENDROOT
BRANCH   4   7
ATOM      7  N   UNL     1       4.737   4.122  17.972  0.00  0.00    +0.000 N 
ATOM      8  C   UNL     1       3.551   4.961  17.825  0.00  0.00    +0.000 C 
ATOM      9  C   UNL     1       2.738   4.613  19.020  0.00  0.00    +0.000 A 
ATOM     10  C   UNL     1       1.580   5.193  19.506  0.00  0.00    +0.000 A 
ATOM     11  C   UNL     1       0.989   4.629  20.642  0.00  0.00    +0.000 A 
ATOM     12  C   UNL     1       1.539   3.486  21.253  0.00  0.00    +0.000 A 
ATOM     13  C   UNL     1       2.720   2.921  20.768  0.00  0.00    +0.000 A 
ATOM     14  C   UNL     1       3.306   3.523  19.670  0.00  0.00    +0.000 A 
ATOM     15  C   UNL     1       4.598   3.234  19.036  0.00  0.00    +0.000 C 
ATOM     16  O   UNL     1       5.359   2.398  19.466  0.00  0.00    +0.000 OA
ENDBRANCH   4   7
BRANCH   1  17
ATOM     17  C   UNL     1       7.186   8.338  17.648  0.00  0.00    +0.000 C 
BRANCH  17  18
ATOM     18  C   UNL     1       8.560   8.948  17.990  0.00  0.00    +0.000 C 
BRANCH  18  19
ATOM     19  O   UNL     1       8.912   8.534  19.321  0.00  0.00    +0.000 OA
ATOM     20  H   UNL     1       9.579   7.830  19.249  0.00  0.00    +0.000 HD
ENDBRANCH  18  19
BRANCH  18  21
ATOM     21  C   UNL     1       8.531  10.478  17.883  0.00  0.00    +0.000 C 
BRANCH  21  22
ATOM     22  O   UNL     1       9.802  11.004  18.279  0.00  0.00    +0.000 OA
BRANCH  22  27
ATOM     23  C   UNL     1       9.469  14.685  17.901  0.00  0.00    +0.000 A 
ATOM     24  C   UNL     1      10.712  14.945  17.319  0.00  0.00    +0.000 A 
ATOM     25  C   UNL     1      11.612  13.907  17.083  0.00  0.00    +0.000 A 
ATOM     26  C   UNL     1      11.266  12.600  17.422  0.00  0.00    +0.000 A 
ATOM     27  C   UNL     1      10.027  12.327  18.004  0.00  0.00    +0.000 A 
ATOM     28  C   UNL     1       9.135  13.374  18.249  0.00  0.00    +0.000 A 
BRANCH  23  30
ATOM     29  C   UNL     1       7.277  15.548  18.231  0.00  0.00    +0.000 C 
ATOM     30  O   UNL     1       8.671  15.786  18.068  0.00  0.00    +0.000 OA
ENDBRANCH  23  30
ENDBRANCH  22  27
ENDBRANCH  21  22
ENDBRANCH  18  21
ENDBRANCH  17  18
ENDBRANCH   1  17
TORSDOF 8
ENDMDL
MODEL 8
REMARK VINA RESULT:      -7.1      5.141      8.185
REMARK  Name = 
REMARK  9 active torsions:
REMARK  status: ('A' for Active; 'I' for Inactive)
REMARK    1  A    between atoms: C_1  and  O_2
REMARK    2  A    between atoms: O_2  and  C_3
REMARK    3  A    between atoms: C_7  and  O_8
REMARK    4  A    between atoms: O_8  and  C_9
REMARK    5  A    between atoms: C_9  and  C_10
REMARK    6  A    between atoms: C_10  and  O_11
REMARK    7  A    between atoms: C_10  and  C_12
REMARK    8  A    between atoms: C_12  and  N_13
REMARK    9  A    between atoms: C_16  and  N_17
REMARK                            x       y       z     vdW  Elec       q    Type
REMARK                         _______ _______ _______ _____ _____    ______ ____
ROOT
ATOM      1  N   UNL     1       7.444   7.322  17.364  0.00  0.00    +0.000 NA
ATOM      2  C   UNL     1       7.506   6.388  18.500  0.00  0.00    +0.000 C 
ATOM      3  C   UNL     1       7.464   4.940  18.027  0.00  0.00    +0.000 C 
ATOM      4  C   UNL     1       6.160   4.643  17.285  0.00  0.00    +0.000 C 
ATOM      5  C   UNL     1       5.994   5.647  16.141  0.00  0.00    +0.000 C 
ATOM      6  C   UNL     1       6.223   7.102  16.561  0.00  0.00    +0.000 C 
ENDROOT
BRANCH   4   7
ATOM      7  N   UNL     1       5.021   4.479  18.202  0.00  0.00    +0.000 N 
ATOM      8  C   UNL     1       5.062   3.443  19.231  0.00  0.00    +0.000 C 
ATOM      9  C   UNL     1       3.698   3.494  19.819  0.00  0.00    +0.000 A 
ATOM     10  C   UNL     1       3.092   2.648  20.731  0.00  0.00    +0.000 A 
ATOM     11  C   UNL     1       1.795   2.959  21.155  0.00  0.00    +0.000 A 
ATOM     12  C   UNL     1       1.138   4.115  20.690  0.00  0.00    +0.000 A 
ATOM     13  C   UNL     1       1.750   4.949  19.754  0.00  0.00    +0.000 A 
ATOM     14  C   UNL     1       3.015   4.597  19.320  0.00  0.00    +0.000 A 
ATOM     15  C   UNL     1       3.831   5.201  18.261  0.00  0.00    +0.000 C 
ATOM     16  O   UNL     1       3.435   6.119  17.580  0.00  0.00    +0.000 OA
ENDBRANCH   4   7
BRANCH   1  17
ATOM     17  C   UNL     1       7.420   8.722  17.848  0.00  0.00    +0.000 C 
BRANCH  17  18
ATOM     18  C   UNL     1       8.783   9.362  18.174  0.00  0.00    +0.000 C 
BRANCH  18  19
ATOM     19  O   UNL     1       9.071   9.115  19.561  0.00  0.00    +0.000 OA
ATOM     20  H   UNL     1       8.306   8.658  19.948  0.00  0.00    +0.000 HD
ENDBRANCH  18  19
BRANCH  18  21
ATOM     21  C   UNL     1       8.775  10.867  17.877  0.00  0.00    +0.000 C 
BRANCH  21  22
ATOM     22  O   UNL     1      10.124  11.331  17.749  0.00  0.00    +0.000 OA
BRANCH  22  27
ATOM     23  C   UNL     1      11.025  14.838  18.580  0.00  0.00    +0.000 A 
ATOM     24  C   UNL     1      11.075  14.714  19.970  0.00  0.00    +0.000 A 
ATOM     25  C   UNL     1      10.802  13.490  20.580  0.00  0.00    +0.000 A 
ATOM     26  C   UNL     1      10.487  12.381  19.796  0.00  0.00    +0.000 A 
ATOM     27  C   UNL     1      10.433  12.493  18.405  0.00  0.00    +0.000 A 
ATOM     28  C   UNL     1      10.696  13.726  17.802  0.00  0.00    +0.000 A 
BRANCH  23  30
ATOM     29  C   UNL     1      10.666  16.493  16.908  0.00  0.00    +0.000 C 
ATOM     30  O   UNL     1      11.325  16.087  18.102  0.00  0.00    +0.000 OA
ENDBRANCH  23  30
ENDBRANCH  22  27
ENDBRANCH  21  22
ENDBRANCH  18  21
ENDBRANCH  17  18
ENDBRANCH   1  17
TORSDOF 8
ENDMDL
MODEL 9
REMARK VINA RESULT:      -7.1      2.582      4.430
REMARK  Name = 
REMARK  9 active torsions:
REMARK  status: ('A' for Active; 'I' for Inactive)
REMARK    1  A    between atoms: C_1  and  O_2
REMARK    2  A    between atoms: O_2  and  C_3
REMARK    3  A    between atoms: C_7  and  O_8
REMARK    4  A    between atoms: O_8  and  C_9
REMARK    5  A    between atoms: C_9  and  C_10
REMARK    6  A    between atoms: C_10  and  O_11
REMARK    7  A    between atoms: C_10  and  C_12
REMARK    8  A    between atoms: C_12  and  N_13
REMARK    9  A    between atoms: C_16  and  N_17
REMARK                            x       y       z     vdW  Elec       q    Type
REMARK                         _______ _______ _______ _____ _____    ______ ____
ROOT
ATOM      1  N   UNL     1       3.186   5.581  18.824  0.00  0.00    +0.000 NA
ATOM      2  C   UNL     1       3.040   4.569  17.764  0.00  0.00    +0.000 C 
ATOM      3  C   UNL     1       4.023   3.421  17.958  0.00  0.00    +0.000 C 
ATOM      4  C   UNL     1       5.467   3.918  17.894  0.00  0.00    +0.000 C 
ATOM      5  C   UNL     1       5.657   5.041  18.916  0.00  0.00    +0.000 C 
ATOM      6  C   UNL     1       4.564   6.113  18.863  0.00  0.00    +0.000 C 
ENDROOT
BRANCH   4   7
ATOM      7  N   UNL     1       5.904   4.188  16.515  0.00  0.00    +0.000 N 
ATOM      8  C   UNL     1       5.261   3.495  15.401  0.00  0.00    +0.000 C 
ATOM      9  C   UNL     1       6.075   3.906  14.229  0.00  0.00    +0.000 A 
ATOM     10  C   UNL     1       6.043   3.452  12.922  0.00  0.00    +0.000 A 
ATOM     11  C   UNL     1       6.902   4.054  11.996  0.00  0.00    +0.000 A 
ATOM     12  C   UNL     1       7.751   5.111  12.375  0.00  0.00    +0.000 A 
ATOM     13  C   UNL     1       7.792   5.547  13.700  0.00  0.00    +0.000 A 
ATOM     14  C   UNL     1       6.963   4.907  14.604  0.00  0.00    +0.000 A 
ATOM     15  C   UNL     1       6.892   5.061  16.062  0.00  0.00    +0.000 C 
ATOM     16  O   UNL     1       7.633   5.793  16.675  0.00  0.00    +0.000 OA
ENDBRANCH   4   7
BRANCH   1  17
ATOM     17  C   UNL     1       2.269   6.718  18.581  0.00  0.00    +0.000 C 
BRANCH  17  18
ATOM     18  C   UNL     1       2.240   7.822  19.656  0.00  0.00    +0.000 C 
BRANCH  18  19
ATOM     19  O   UNL     1       1.717   7.251  20.867  0.00  0.00    +0.000 OA
ATOM     20  H   UNL     1       1.958   7.839  21.603  0.00  0.00    +0.000 HD
ENDBRANCH  18  19
BRANCH  18  21
ATOM     21  C   UNL     1       1.391   9.016  19.202  0.00  0.00    +0.000 C 
BRANCH  21  22
ATOM     22  O   UNL     1       0.422   9.319  20.212  0.00  0.00    +0.000 OA
BRANCH  22  27
ATOM     23  C   UNL     1      -2.119  11.377  18.449  0.00  0.00    +0.000 A 
ATOM     24  C   UNL     1      -2.387  12.292  19.469  0.00  0.00    +0.000 A 
ATOM     25  C   UNL     1      -1.732  12.193  20.697  0.00  0.00    +0.000 A 
ATOM     26  C   UNL     1      -0.797  11.180  20.903  0.00  0.00    +0.000 A 
ATOM     27  C   UNL     1      -0.521  10.258  19.891  0.00  0.00    +0.000 A 
ATOM     28  C   UNL     1      -1.191  10.357  18.668  0.00  0.00    +0.000 A 
BRANCH  23  30
ATOM     29  C   UNL     1      -2.622  10.644  16.243  0.00  0.00    +0.000 C 
ATOM     30  O   UNL     1      -2.816  11.588  17.289  0.00  0.00    +0.000 OA
ENDBRANCH  23  30
ENDBRANCH  22  27
ENDBRANCH  21  22
ENDBRANCH  18  21
ENDBRANCH  17  18
ENDBRANCH   1  17
TORSDOF 8
ENDMDL
