MODEL 1
REMARK VINA RESULT:      -8.0      0.000      0.000
REMARK  Name = 
REMARK  14 active torsions:
REMARK  status: ('A' for Active; 'I' for Inactive)
REMARK    1  A    between atoms: C_2  and  O_3
REMARK    2  A    between atoms: C_2  and  C_4
REMARK    3  A    between atoms: C_4  and  C_5
REMARK    4  A    between atoms: C_5  and  C_6
REMARK    5  A    between atoms: C_6  and  C_7
REMARK    6  A    between atoms: N_9  and  C_10
REMARK    7  A    between atoms: C_10  and  C_11
REMARK    8  A    between atoms: C_10  and  C_18
REMARK    9  A    between atoms: C_11  and  C_12
REMARK   10  A    between atoms: C_18  and  C_19
REMARK   11  A    between atoms: C_19  and  C_20
REMARK   12  A    between atoms: C_19  and  C_27
REMARK   13  A    between atoms: C_20  and  C_21
REMARK   14  A    between atoms: C_27  and  O_29
REMARK                            x       y       z     vdW  Elec       q    Type
REMARK                         _______ _______ _______ _____ _____    ______ ____
ROOT
ATOM      1  C   UNL     1       3.530   5.903  17.863  0.00  0.00    +0.000 C 
ENDROOT
BRANCH   1   4
ATOM      2  C   UNL     1       2.130   3.846  17.634  0.00  0.00    +0.000 C 
ATOM      3  O   UNL     1       1.137   4.441  17.228  0.00  0.00    +0.000 OA
ATOM      4  N   UNL     1       3.338   4.450  17.905  0.00  0.00    +0.000 N 
ATOM      5  H   UNL     1       4.091   3.876  18.262  0.00  0.00    +0.000 HD
BRANCH   2   6
ATOM      6  C   UNL     1       2.101   2.354  17.867  0.00  0.00    +0.000 C 
BRANCH   6   7
ATOM      7  C   UNL     1       2.594   1.997  19.270  0.00  0.00    +0.000 C 
BRANCH   7   8
ATOM      8  C   UNL     1       1.498   2.131  20.328  0.00  0.00    +0.000 C 
BRANCH   8  10
ATOM      9  O   UNL     1       2.407   3.168  22.322  0.00  0.00    +0.000 OA
ATOM     10  C   UNL     1       1.759   3.265  21.291  0.00  0.00    +0.000 C 
BRANCH  10  11
ATOM     11  O   UNL     1       1.215   4.433  20.886  0.00  0.00    +0.000 OA
ATOM     12  H   UNL     1       1.837   5.186  20.876  0.00  0.00    +0.000 HD
ENDBRANCH  10  11
ENDBRANCH   8  10
ENDBRANCH   7   8
ENDBRANCH   6   7
ENDBRANCH   2   6
ENDBRANCH   1   4
BRANCH   1  13
ATOM     13  C   UNL     1       3.200   6.523  19.255  0.00  0.00    +0.000 C 
BRANCH  13  14
ATOM     14  C   UNL     1       2.229   7.686  19.228  0.00  0.00    +0.000 A 
ATOM     15  C   UNL     1       1.632   8.154  20.412  0.00  0.00    +0.000 A 
ATOM     16  C   UNL     1       0.781   9.262  20.390  0.00  0.00    +0.000 A 
ATOM     17  C   UNL     1       0.518   9.919  19.190  0.00  0.00    +0.000 A 
ATOM     18  C   UNL     1       1.112   9.472  18.012  0.00  0.00    +0.000 A 
ATOM     19  C   UNL     1       1.964   8.366  18.033  0.00  0.00    +0.000 A 
ENDBRANCH  13  14
ENDBRANCH   1  13
BRANCH   1  20
ATOM     20  C   UNL     1       4.979   6.290  17.477  0.00  0.00    +0.000 C 
BRANCH  20  21
ATOM     21  C   UNL     1       5.927   5.164  16.992  0.00  0.00    +0.000 C 
BRANCH  21  22
ATOM     22  C   UNL     1       6.692   4.597  18.185  0.00  0.00    +0.000 C 
ATOM     23  O   UNL     1       6.213   4.401  19.292  0.00  0.00    +0.000 OA
BRANCH  22  24
ATOM     24  O   UNL     1       7.972   4.252  17.907  0.00  0.00    +0.000 OA
ATOM     25  H   UNL     1       8.294   3.458  18.372  0.00  0.00    +0.000 HD
ENDBRANCH  22  24
ENDBRANCH  21  22
BRANCH  21  26
ATOM     26  C   UNL     1       6.887   5.538  15.847  0.00  0.00    +0.000 C 
BRANCH  26  27
ATOM     27  C   UNL     1       6.771   4.811  14.530  0.00  0.00    +0.000 A 
ATOM     28  C   UNL     1       5.717   3.922  14.280  0.00  0.00    +0.000 A 
ATOM     29  C   UNL     1       5.543   3.375  13.007  0.00  0.00    +0.000 A 
ATOM     30  C   UNL     1       6.421   3.702  11.976  0.00  0.00    +0.000 A 
ATOM     31  C   UNL     1       7.486   4.564  12.220  0.00  0.00    +0.000 A 
ATOM     32  C   UNL     1       7.660   5.114  13.489  0.00  0.00    +0.000 A 
ENDBRANCH  26  27
ENDBRANCH  21  26
ENDBRANCH  20  21
ENDBRANCH   1  20
TORSDOF 14
ENDMDL
MODEL 2
REMARK VINA RESULT:      -7.7      0.625      1.138
REMARK  Name = 
REMARK  14 active torsions:
REMARK  status: ('A' for Active; 'I' for Inactive)
REMARK    1  A    between atoms: C_2  and  O_3
REMARK    2  A    between atoms: C_2  and  C_4
REMARK    3  A    between atoms: C_4  and  C_5
REMARK    4  A    between atoms: C_5  and  C_6
REMARK    5  A    between atoms: C_6  and  C_7
REMARK    6  A    between atoms: N_9  and  C_10
REMARK    7  A    between atoms: C_10  and  C_11
REMARK    8  A    between atoms: C_10  and  C_18
REMARK    9  A    between atoms: C_11  and  C_12
REMARK   10  A    between atoms: C_18  and  C_19
REMARK   11  A    between atoms: C_19  and  C_20
REMARK   12  A    between atoms: C_19  and  C_27
REMARK   13  A    between atoms: C_20  and  C_21
REMARK   14  A    between atoms: C_27  and  O_29
REMARK                            x       y       z     vdW  Elec       q    Type
REMARK                         _______ _______ _______ _____ _____    ______ ____
ROOT
ATOM      1  C   UNL     1       3.572   5.981  17.693  0.00  0.00    +0.000 C 
ENDROOT
BRANCH   1   4
ATOM      2  C   UNL     1       2.337   3.821  17.463  0.00  0.00    +0.000 C 
ATOM      3  O   UNL     1       1.246   4.346  17.262  0.00  0.00    +0.000 OA
ATOM      4  N   UNL     1       3.515   4.518  17.618  0.00  0.00    +0.000 N 
ATOM      5  H   UNL     1       4.359   3.994  17.807  0.00  0.00    +0.000 HD
BRANCH   2   6
ATOM      6  C   UNL     1       2.472   2.320  17.550  0.00  0.00    +0.000 C 
BRANCH   6   7
ATOM      7  C   UNL     1       1.935   1.785  18.878  0.00  0.00    +0.000 C 
BRANCH   7   8
ATOM      8  C   UNL     1       2.728   2.297  20.081  0.00  0.00    +0.000 C 
BRANCH   8  10
ATOM      9  O   UNL     1       2.208   3.199  22.270  0.00  0.00    +0.000 OA
ATOM     10  C   UNL     1       1.843   2.910  21.141  0.00  0.00    +0.000 C 
BRANCH  10  11
ATOM     11  O   UNL     1       0.585   3.137  20.706  0.00  0.00    +0.000 OA
ATOM     12  H   UNL     1       0.423   2.872  19.780  0.00  0.00    +0.000 HD
ENDBRANCH  10  11
ENDBRANCH   8  10
ENDBRANCH   7   8
ENDBRANCH   6   7
ENDBRANCH   2   6
ENDBRANCH   1   4
BRANCH   1  13
ATOM     13  C   UNL     1       3.135   6.459  19.111  0.00  0.00    +0.000 C 
BRANCH  13  14
ATOM     14  C   UNL     1       2.218   7.665  19.131  0.00  0.00    +0.000 A 
ATOM     15  C   UNL     1       1.744   8.190  20.346  0.00  0.00    +0.000 A 
ATOM     16  C   UNL     1       0.944   9.335  20.363  0.00  0.00    +0.000 A 
ATOM     17  C   UNL     1       0.610   9.973  19.170  0.00  0.00    +0.000 A 
ATOM     18  C   UNL     1       1.083   9.470  17.960  0.00  0.00    +0.000 A 
ATOM     19  C   UNL     1       1.884   8.326  17.942  0.00  0.00    +0.000 A 
ENDBRANCH  13  14
ENDBRANCH   1  13
BRANCH   1  20
ATOM     20  C   UNL     1       4.991   6.526  17.400  0.00  0.00    +0.000 C 
BRANCH  20  21
ATOM     21  C   UNL     1       6.085   5.513  16.973  0.00  0.00    +0.000 C 
BRANCH  21  22
ATOM     22  C   UNL     1       7.041   5.279  18.140  0.00  0.00    +0.000 C 
ATOM     23  O   UNL     1       7.789   6.124  18.610  0.00  0.00    +0.000 OA
BRANCH  22  24
ATOM     24  O   UNL     1       6.956   4.041  18.684  0.00  0.00    +0.000 OA
ATOM     25  H   UNL     1       6.062   3.651  18.678  0.00  0.00    +0.000 HD
ENDBRANCH  22  24
ENDBRANCH  21  22
BRANCH  21  26
ATOM     26  C   UNL     1       6.858   5.857  15.686  0.00  0.00    +0.000 C 
BRANCH  26  27
ATOM     27  C   UNL     1       6.563   5.079  14.428  0.00  0.00    +0.000 A 
ATOM     28  C   UNL     1       7.461   5.065  13.353  0.00  0.00    +0.000 A 
ATOM     29  C   UNL     1       7.243   4.221  12.261  0.00  0.00    +0.000 A 
ATOM     30  C   UNL     1       6.123   3.392  12.228  0.00  0.00    +0.000 A 
ATOM     31  C   UNL     1       5.212   3.416  13.279  0.00  0.00    +0.000 A 
ATOM     32  C   UNL     1       5.430   4.255  14.372  0.00  0.00    +0.000 A 
ENDBRANCH  26  27
ENDBRANCH  21  26
ENDBRANCH  20  21
ENDBRANCH   1  20
TORSDOF 14
ENDMDL
MODEL 3
REMARK VINA RESULT:      -7.7      1.975      4.561
REMARK  Name = 
REMARK  14 active torsions:
REMARK  status: ('A' for Active; 'I' for Inactive)
REMARK    1  A    between atoms: C_2  and  O_3
REMARK    2  A    between atoms: C_2  and  C_4
REMARK    3  A    between atoms: C_4  and  C_5
REMARK    4  A    between atoms: C_5  and  C_6
REMARK    5  A    between atoms: C_6  and  C_7
REMARK    6  A    between atoms: N_9  and  C_10
REMARK    7  A    between atoms: C_10  and  C_11
REMARK    8  A    between atoms: C_10  and  C_18
REMARK    9  A    between atoms: C_11  and  C_12
REMARK   10  A    between atoms: C_18  and  C_19
REMARK   11  A    between atoms: C_19  and  C_20
REMARK   12  A    between atoms: C_19  and  C_27
REMARK   13  A    between atoms: C_20  and  C_21
REMARK   14  A    between atoms: C_27  and  O_29
REMARK                            x       y       z     vdW  Elec       q    Type
REMARK                         _______ _______ _______ _____ _____    ______ ____
ROOT
ATOM      1  C   UNL     1       4.209   6.349  18.006  0.00  0.00    +0.000 C 
ENDROOT
BRANCH   1   4
ATOM      2  C   UNL     1       2.364   7.985  18.409  0.00  0.00    +0.000 C 
ATOM      3  O   UNL     1       2.164   7.634  19.567  0.00  0.00    +0.000 OA
ATOM      4  N   UNL     1       3.358   7.473  17.605  0.00  0.00    +0.000 N 
ATOM      5  H   UNL     1       3.424   7.810  16.653  0.00  0.00    +0.000 HD
BRANCH   2   6
ATOM      6  C   UNL     1       1.508   9.047  17.761  0.00  0.00    +0.000 C 
BRANCH   6   7
ATOM      7  C   UNL     1       1.485  10.331  18.591  0.00  0.00    +0.000 C 
BRANCH   7   8
ATOM      8  C   UNL     1       0.147  10.549  19.298  0.00  0.00    +0.000 C 
BRANCH   8  10
ATOM      9  O   UNL     1      -0.283   9.217  21.278  0.00  0.00    +0.000 OA
ATOM     10  C   UNL     1       0.208  10.214  20.770  0.00  0.00    +0.000 C 
BRANCH  10  11
ATOM     11  O   UNL     1       0.895  11.129  21.488  0.00  0.00    +0.000 OA
ATOM     12  H   UNL     1       1.681  10.775  21.946  0.00  0.00    +0.000 HD
ENDBRANCH  10  11
ENDBRANCH   8  10
ENDBRANCH   7   8
ENDBRANCH   6   7
ENDBRANCH   2   6
ENDBRANCH   1   4
BRANCH   1  13
ATOM     13  C   UNL     1       3.606   5.012  17.479  0.00  0.00    +0.000 C 
BRANCH  13  14
ATOM     14  C   UNL     1       2.792   4.229  18.489  0.00  0.00    +0.000 A 
ATOM     15  C   UNL     1       3.171   4.187  19.842  0.00  0.00    +0.000 A 
ATOM     16  C   UNL     1       2.387   3.510  20.780  0.00  0.00    +0.000 A 
ATOM     17  C   UNL     1       1.215   2.871  20.382  0.00  0.00    +0.000 A 
ATOM     18  C   UNL     1       0.823   2.914  19.046  0.00  0.00    +0.000 A 
ATOM     19  C   UNL     1       1.604   3.592  18.107  0.00  0.00    +0.000 A 
ENDBRANCH  13  14
ENDBRANCH   1  13
BRANCH   1  20
ATOM     20  C   UNL     1       5.654   6.490  17.469  0.00  0.00    +0.000 C 
BRANCH  20  21
ATOM     21  C   UNL     1       6.284   5.270  16.747  0.00  0.00    +0.000 C 
BRANCH  21  22
ATOM     22  C   UNL     1       7.177   4.510  17.724  0.00  0.00    +0.000 C 
ATOM     23  O   UNL     1       8.317   4.142  17.485  0.00  0.00    +0.000 OA
BRANCH  22  24
ATOM     24  O   UNL     1       6.621   4.318  18.944  0.00  0.00    +0.000 OA
ATOM     25  H   UNL     1       5.805   3.785  18.945  0.00  0.00    +0.000 HD
ENDBRANCH  22  24
ENDBRANCH  21  22
BRANCH  21  26
ATOM     26  C   UNL     1       7.032   5.575  15.436  0.00  0.00    +0.000 C 
BRANCH  26  27
ATOM     27  C   UNL     1       6.606   4.870  14.172  0.00  0.00    +0.000 A 
ATOM     28  C   UNL     1       7.462   4.776  13.066  0.00  0.00    +0.000 A 
ATOM     29  C   UNL     1       7.110   3.993  11.965  0.00  0.00    +0.000 A 
ATOM     30  C   UNL     1       5.898   3.304  11.953  0.00  0.00    +0.000 A 
ATOM     31  C   UNL     1       5.030   3.410  13.035  0.00  0.00    +0.000 A 
ATOM     32  C   UNL     1       5.381   4.188  14.137  0.00  0.00    +0.000 A 
ENDBRANCH  26  27
ENDBRANCH  21  26
ENDBRANCH  20  21
ENDBRANCH   1  20
TORSDOF 14
ENDMDL
MODEL 4
REMARK VINA RESULT:      -7.6      1.160      1.828
REMARK  Name = 
REMARK  14 active torsions:
REMARK  status: ('A' for Active; 'I' for Inactive)
REMARK    1  A    between atoms: C_2  and  O_3
REMARK    2  A    between atoms: C_2  and  C_4
REMARK    3  A    between atoms: C_4  and  C_5
REMARK    4  A    between atoms: C_5  and  C_6
REMARK    5  A    between atoms: C_6  and  C_7
REMARK    6  A    between atoms: N_9  and  C_10
REMARK    7  A    between atoms: C_10  and  C_11
REMARK    8  A    between atoms: C_10  and  C_18
REMARK    9  A    between atoms: C_11  and  C_12
REMARK   10  A    between atoms: C_18  and  C_19
REMARK   11  A    between atoms: C_19  and  C_20
REMARK   12  A    between atoms: C_19  and  C_27
REMARK   13  A    between atoms: C_20  and  C_21
REMARK   14  A    between atoms: C_27  and  O_29
REMARK                            x       y       z     vdW  Elec       q    Type
REMARK                         _______ _______ _______ _____ _____    ______ ____
ROOT
ATOM      1  C   UNL     1       3.492   5.971  17.689  0.00  0.00    +0.000 C 
ENDROOT
BRANCH   1   4
ATOM      2  C   UNL     1       2.228   3.822  17.520  0.00  0.00    +0.000 C 
ATOM      3  O   UNL     1       1.168   4.350  17.199  0.00  0.00    +0.000 OA
ATOM      4  N   UNL     1       3.406   4.507  17.715  0.00  0.00    +0.000 N 
ATOM      5  H   UNL     1       4.222   3.983  18.005  0.00  0.00    +0.000 HD
BRANCH   2   6
ATOM      6  C   UNL     1       2.321   2.329  17.724  0.00  0.00    +0.000 C 
BRANCH   6   7
ATOM      7  C   UNL     1       1.553   1.884  18.969  0.00  0.00    +0.000 C 
BRANCH   7   8
ATOM      8  C   UNL     1       1.491   2.974  20.040  0.00  0.00    +0.000 C 
BRANCH   8  10
ATOM      9  O   UNL     1       2.444   2.899  22.267  0.00  0.00    +0.000 OA
ATOM     10  C   UNL     1       2.601   2.851  21.057  0.00  0.00    +0.000 C 
BRANCH  10  11
ATOM     11  O   UNL     1       3.811   2.653  20.491  0.00  0.00    +0.000 OA
ATOM     12  H   UNL     1       4.068   3.333  19.840  0.00  0.00    +0.000 HD
ENDBRANCH  10  11
ENDBRANCH   8  10
ENDBRANCH   7   8
ENDBRANCH   6   7
ENDBRANCH   2   6
ENDBRANCH   1   4
BRANCH   1  13
ATOM     13  C   UNL     1       3.229   6.544  19.114  0.00  0.00    +0.000 C 
BRANCH  13  14
ATOM     14  C   UNL     1       2.304   7.743  19.167  0.00  0.00    +0.000 A 
ATOM     15  C   UNL     1       2.014   8.480  18.005  0.00  0.00    +0.000 A 
ATOM     16  C   UNL     1       1.118   9.551  18.047  0.00  0.00    +0.000 A 
ATOM     17  C   UNL     1       0.498   9.899  19.246  0.00  0.00    +0.000 A 
ATOM     18  C   UNL     1       0.769   9.170  20.401  0.00  0.00    +0.000 A 
ATOM     19  C   UNL     1       1.663   8.097  20.360  0.00  0.00    +0.000 A 
ENDBRANCH  13  14
ENDBRANCH   1  13
BRANCH   1  20
ATOM     20  C   UNL     1       4.875   6.466  17.201  0.00  0.00    +0.000 C 
BRANCH  20  21
ATOM     21  C   UNL     1       6.139   5.766  17.762  0.00  0.00    +0.000 C 
BRANCH  21  22
ATOM     22  C   UNL     1       7.269   6.784  17.886  0.00  0.00    +0.000 C 
ATOM     23  O   UNL     1       7.428   7.744  17.147  0.00  0.00    +0.000 OA
BRANCH  22  24
ATOM     24  O   UNL     1       8.081   6.580  18.951  0.00  0.00    +0.000 OA
ATOM     25  H   UNL     1       8.018   5.693  19.351  0.00  0.00    +0.000 HD
ENDBRANCH  22  24
ENDBRANCH  21  22
BRANCH  21  26
ATOM     26  C   UNL     1       6.606   4.509  17.003  0.00  0.00    +0.000 C 
BRANCH  26  27
ATOM     27  C   UNL     1       6.564   4.510  15.495  0.00  0.00    +0.000 A 
ATOM     28  C   UNL     1       7.576   5.116  14.739  0.00  0.00    +0.000 A 
ATOM     29  C   UNL     1       7.599   4.976  13.349  0.00  0.00    +0.000 A 
ATOM     30  C   UNL     1       6.609   4.240  12.702  0.00  0.00    +0.000 A 
ATOM     31  C   UNL     1       5.585   3.654  13.441  0.00  0.00    +0.000 A 
ATOM     32  C   UNL     1       5.563   3.789  14.828  0.00  0.00    +0.000 A 
ENDBRANCH  26  27
ENDBRANCH  21  26
ENDBRANCH  20  21
ENDBRANCH   1  20
TORSDOF 14
ENDMDL
MODEL 5
REMARK VINA RESULT:      -7.4      1.414      1.825
REMARK  Name = 
REMARK  14 active torsions:
REMARK  status: ('A' for Active; 'I' for Inactive)
REMARK    1  A    between atoms: C_2  and  O_3
REMARK    2  A    between atoms: C_2  and  C_4
REMARK    3  A    between atoms: C_4  and  C_5
REMARK    4  A    between atoms: C_5  and  C_6
REMARK    5  A    between atoms: C_6  and  C_7
REMARK    6  A    between atoms: N_9  and  C_10
REMARK    7  A    between atoms: C_10  and  C_11
REMARK    8  A    between atoms: C_10  and  C_18
REMARK    9  A    between atoms: C_11  and  C_12
REMARK   10  A    between atoms: C_18  and  C_19
REMARK   11  A    between atoms: C_19  and  C_20
REMARK   12  A    between atoms: C_19  and  C_27
REMARK   13  A    between atoms: C_20  and  C_21
REMARK   14  A    between atoms: C_27  and  O_29
REMARK                            x       y       z     vdW  Elec       q    Type
REMARK                         _______ _______ _______ _____ _____    ______ ____
ROOT
ATOM      1  C   UNL     1       3.641   5.864  17.369  0.00  0.00    +0.000 C 
ENDROOT
BRANCH   1   4
ATOM      2  C   UNL     1       2.240   3.795  17.350  0.00  0.00    +0.000 C 
ATOM      3  O   UNL     1       1.170   4.395  17.333  0.00  0.00    +0.000 OA
ATOM      4  N   UNL     1       3.472   4.409  17.307  0.00  0.00    +0.000 N 
ATOM      5  H   UNL     1       4.298   3.826  17.354  0.00  0.00    +0.000 HD
BRANCH   2   6
ATOM      6  C   UNL     1       2.284   2.287  17.415  0.00  0.00    +0.000 C 
BRANCH   6   7
ATOM      7  C   UNL     1       3.572   1.793  18.076  0.00  0.00    +0.000 C 
BRANCH   7   8
ATOM      8  C   UNL     1       3.505   1.843  19.602  0.00  0.00    +0.000 C 
BRANCH   8  10
ATOM      9  O   UNL     1       5.302   3.444  19.893  0.00  0.00    +0.000 OA
ATOM     10  C   UNL     1       4.768   2.395  20.220  0.00  0.00    +0.000 C 
BRANCH  10  11
ATOM     11  O   UNL     1       5.252   1.615  21.210  0.00  0.00    +0.000 OA
ATOM     12  H   UNL     1       4.765   1.684  22.053  0.00  0.00    +0.000 HD
ENDBRANCH  10  11
ENDBRANCH   8  10
ENDBRANCH   7   8
ENDBRANCH   6   7
ENDBRANCH   2   6
ENDBRANCH   1   4
BRANCH   1  13
ATOM     13  C   UNL     1       3.433   6.361  18.832  0.00  0.00    +0.000 C 
BRANCH  13  14
ATOM     14  C   UNL     1       2.452   7.505  18.990  0.00  0.00    +0.000 A 
ATOM     15  C   UNL     1       1.893   7.807  20.244  0.00  0.00    +0.000 A 
ATOM     16  C   UNL     1       1.032   8.896  20.396  0.00  0.00    +0.000 A 
ATOM     17  C   UNL     1       0.720   9.700  19.302  0.00  0.00    +0.000 A 
ATOM     18  C   UNL     1       1.275   9.418  18.056  0.00  0.00    +0.000 A 
ATOM     19  C   UNL     1       2.138   8.330  17.903  0.00  0.00    +0.000 A 
ENDBRANCH  13  14
ENDBRANCH   1  13
BRANCH   1  20
ATOM     20  C   UNL     1       5.044   6.310  16.887  0.00  0.00    +0.000 C 
BRANCH  20  21
ATOM     21  C   UNL     1       6.283   5.713  17.603  0.00  0.00    +0.000 C 
BRANCH  21  22
ATOM     22  C   UNL     1       7.312   6.816  17.836  0.00  0.00    +0.000 C 
ATOM     23  O   UNL     1       8.121   6.833  18.752  0.00  0.00    +0.000 OA
BRANCH  22  24
ATOM     24  O   UNL     1       7.312   7.781  16.885  0.00  0.00    +0.000 OA
ATOM     25  H   UNL     1       6.503   8.324  16.851  0.00  0.00    +0.000 HD
ENDBRANCH  22  24
ENDBRANCH  21  22
BRANCH  21  26
ATOM     26  C   UNL     1       6.927   4.488  16.927  0.00  0.00    +0.000 C 
BRANCH  26  27
ATOM     27  C   UNL     1       6.862   4.365  15.425  0.00  0.00    +0.000 A 
ATOM     28  C   UNL     1       5.871   3.596  14.799  0.00  0.00    +0.000 A 
ATOM     29  C   UNL     1       5.735   3.615  13.410  0.00  0.00    +0.000 A 
ATOM     30  C   UNL     1       6.590   4.393  12.632  0.00  0.00    +0.000 A 
ATOM     31  C   UNL     1       7.593   5.141  13.240  0.00  0.00    +0.000 A 
ATOM     32  C   UNL     1       7.729   5.127  14.628  0.00  0.00    +0.000 A 
ENDBRANCH  26  27
ENDBRANCH  21  26
ENDBRANCH  20  21
ENDBRANCH   1  20
TORSDOF 14
ENDMDL
MODEL 6
REMARK VINA RESULT:      -7.4      2.673      5.275
REMARK  Name = 
REMARK  14 active torsions:
REMARK  status: ('A' for Active; 'I' for Inactive)
REMARK    1  A    between atoms: C_2  and  O_3
REMARK    2  A    between atoms: C_2  and  C_4
REMARK    3  A    between atoms: C_4  and  C_5
REMARK    4  A    between atoms: C_5  and  C_6
REMARK    5  A    between atoms: C_6  and  C_7
REMARK    6  A    between atoms: N_9  and  C_10
REMARK    7  A    between atoms: C_10  and  C_11
REMARK    8  A    between atoms: C_10  and  C_18
REMARK    9  A    between atoms: C_11  and  C_12
REMARK   10  A    between atoms: C_18  and  C_19
REMARK   11  A    between atoms: C_19  and  C_20
REMARK   12  A    between atoms: C_19  and  C_27
REMARK   13  A    between atoms: C_20  and  C_21
REMARK   14  A    between atoms: C_27  and  O_29
REMARK                            x       y       z     vdW  Elec       q    Type
REMARK                         _______ _______ _______ _____ _____    ______ ____
ROOT
ATOM      1  C   UNL     1       3.408   6.744  18.182  0.00  0.00    +0.000 C 
ENDROOT
BRANCH   1   4
ATOM      2  C   UNL     1       1.783   8.560  18.737  0.00  0.00    +0.000 C 
ATOM      3  O   UNL     1       1.685   8.253  19.921  0.00  0.00    +0.000 OA
ATOM      4  N   UNL     1       2.626   7.938  17.843  0.00  0.00    +0.000 N 
ATOM      5  H   UNL     1       2.615   8.248  16.880  0.00  0.00    +0.000 HD
BRANCH   2   6
ATOM      6  C   UNL     1       0.963   9.687  18.156  0.00  0.00    +0.000 C 
BRANCH   6   7
ATOM      7  C   UNL     1       1.541  11.052  18.534  0.00  0.00    +0.000 C 
BRANCH   7   8
ATOM      8  C   UNL     1       0.677  11.792  19.555  0.00  0.00    +0.000 C 
BRANCH   8  10
ATOM      9  O   UNL     1      -1.667  12.410  19.520  0.00  0.00    +0.000 OA
ATOM     10  C   UNL     1      -0.590  12.348  18.948  0.00  0.00    +0.000 C 
BRANCH  10  11
ATOM     11  O   UNL     1      -0.412  12.805  17.689  0.00  0.00    +0.000 OA
ATOM     12  H   UNL     1      -1.113  13.407  17.376  0.00  0.00    +0.000 HD
ENDBRANCH  10  11
ENDBRANCH   8  10
ENDBRANCH   7   8
ENDBRANCH   6   7
ENDBRANCH   2   6
ENDBRANCH   1   4
BRANCH   1  13
ATOM     13  C   UNL     1       2.623   5.462  17.770  0.00  0.00    +0.000 C 
BRANCH  13  14
ATOM     14  C   UNL     1       2.132   4.609  18.923  0.00  0.00    +0.000 A 
ATOM     15  C   UNL     1       1.375   3.448  18.688  0.00  0.00    +0.000 A 
ATOM     16  C   UNL     1       0.971   2.635  19.750  0.00  0.00    +0.000 A 
ATOM     17  C   UNL     1       1.319   2.968  21.058  0.00  0.00    +0.000 A 
ATOM     18  C   UNL     1       2.077   4.110  21.303  0.00  0.00    +0.000 A 
ATOM     19  C   UNL     1       2.484   4.922  20.241  0.00  0.00    +0.000 A 
ENDBRANCH  13  14
ENDBRANCH   1  13
BRANCH   1  20
ATOM     20  C   UNL     1       4.788   6.731  17.479  0.00  0.00    +0.000 C 
BRANCH  20  21
ATOM     21  C   UNL     1       5.522   5.372  17.346  0.00  0.00    +0.000 C 
BRANCH  21  22
ATOM     22  C   UNL     1       5.872   4.847  18.736  0.00  0.00    +0.000 C 
ATOM     23  O   UNL     1       6.335   5.524  19.642  0.00  0.00    +0.000 OA
BRANCH  22  24
ATOM     24  O   UNL     1       5.563   3.542  18.927  0.00  0.00    +0.000 OA
ATOM     25  H   UNL     1       4.790   3.226  18.424  0.00  0.00    +0.000 HD
ENDBRANCH  22  24
ENDBRANCH  21  22
BRANCH  21  26
ATOM     26  C   UNL     1       6.756   5.360  16.424  0.00  0.00    +0.000 C 
BRANCH  26  27
ATOM     27  C   UNL     1       6.591   4.922  14.990  0.00  0.00    +0.000 A 
ATOM     28  C   UNL     1       7.579   5.180  14.030  0.00  0.00    +0.000 A 
ATOM     29  C   UNL     1       7.477   4.637  12.748  0.00  0.00    +0.000 A 
ATOM     30  C   UNL     1       6.386   3.839  12.409  0.00  0.00    +0.000 A 
ATOM     31  C   UNL     1       5.386   3.597  13.346  0.00  0.00    +0.000 A 
ATOM     32  C   UNL     1       5.488   4.135  14.628  0.00  0.00    +0.000 A 
ENDBRANCH  26  27
ENDBRANCH  21  26
ENDBRANCH  20  21
ENDBRANCH   1  20
TORSDOF 14
ENDMDL
MODEL 7
REMARK VINA RESULT:      -7.4      3.103      6.075
REMARK  Name = 
REMARK  14 active torsions:
REMARK  status: ('A' for Active; 'I' for Inactive)
REMARK    1  A    between atoms: C_2  and  O_3
REMARK    2  A    between atoms: C_2  and  C_4
REMARK    3  A    between atoms: C_4  and  C_5
REMARK    4  A    between atoms: C_5  and  C_6
REMARK    5  A    between atoms: C_6  and  C_7
REMARK    6  A    between atoms: N_9  and  C_10
REMARK    7  A    between atoms: C_10  and  C_11
REMARK    8  A    between atoms: C_10  and  C_18
REMARK    9  A    between atoms: C_11  and  C_12
REMARK   10  A    between atoms: C_18  and  C_19
REMARK   11  A    between atoms: C_19  and  C_20
REMARK   12  A    between atoms: C_19  and  C_27
REMARK   13  A    between atoms: C_20  and  C_21
REMARK   14  A    between atoms: C_27  and  O_29
REMARK                            x       y       z     vdW  Elec       q    Type
REMARK                         _______ _______ _______ _____ _____    ______ ____
ROOT
ATOM      1  C   UNL     1       3.157   6.856  18.192  0.00  0.00    +0.000 C 
ENDROOT
BRANCH   1   4
ATOM      2  C   UNL     1       1.825   8.897  18.741  0.00  0.00    +0.000 C 
ATOM      3  O   UNL     1       1.562   8.545  19.886  0.00  0.00    +0.000 OA
ATOM      4  N   UNL     1       2.630   8.188  17.878  0.00  0.00    +0.000 N 
ATOM      5  H   UNL     1       2.764   8.549  16.942  0.00  0.00    +0.000 HD
BRANCH   2   6
ATOM      6  C   UNL     1       1.271  10.184  18.178  0.00  0.00    +0.000 C 
BRANCH   6   7
ATOM      7  C   UNL     1       0.884  11.161  19.289  0.00  0.00    +0.000 C 
BRANCH   7   8
ATOM      8  C   UNL     1      -0.585  11.577  19.219  0.00  0.00    +0.000 C 
BRANCH   8  10
ATOM      9  O   UNL     1      -0.445  13.899  18.536  0.00  0.00    +0.000 OA
ATOM     10  C   UNL     1      -0.810  12.757  18.302  0.00  0.00    +0.000 C 
BRANCH  10  11
ATOM     11  O   UNL     1      -1.447  12.420  17.160  0.00  0.00    +0.000 OA
ATOM     12  H   UNL     1      -2.029  13.117  16.801  0.00  0.00    +0.000 HD
ENDBRANCH  10  11
ENDBRANCH   8  10
ENDBRANCH   7   8
ENDBRANCH   6   7
ENDBRANCH   2   6
ENDBRANCH   1   4
BRANCH   1  13
ATOM     13  C   UNL     1       2.062   5.777  17.937  0.00  0.00    +0.000 C 
BRANCH  13  14
ATOM     14  C   UNL     1       1.768   4.868  19.113  0.00  0.00    +0.000 A 
ATOM     15  C   UNL     1       0.973   3.719  18.955  0.00  0.00    +0.000 A 
ATOM     16  C   UNL     1       0.749   2.854  20.029  0.00  0.00    +0.000 A 
ATOM     17  C   UNL     1       1.319   3.121  21.273  0.00  0.00    +0.000 A 
ATOM     18  C   UNL     1       2.117   4.250  21.440  0.00  0.00    +0.000 A 
ATOM     19  C   UNL     1       2.343   5.114  20.366  0.00  0.00    +0.000 A 
ENDBRANCH  13  14
ENDBRANCH   1  13
BRANCH   1  20
ATOM     20  C   UNL     1       4.406   6.508  17.345  0.00  0.00    +0.000 C 
BRANCH  20  21
ATOM     21  C   UNL     1       5.780   6.461  18.060  0.00  0.00    +0.000 C 
BRANCH  21  22
ATOM     22  C   UNL     1       6.887   6.754  17.051  0.00  0.00    +0.000 C 
ATOM     23  O   UNL     1       7.281   5.970  16.200  0.00  0.00    +0.000 OA
BRANCH  22  24
ATOM     24  O   UNL     1       7.379   8.014  17.121  0.00  0.00    +0.000 OA
ATOM     25  H   UNL     1       8.323   8.100  16.893  0.00  0.00    +0.000 HD
ENDBRANCH  22  24
ENDBRANCH  21  22
BRANCH  21  26
ATOM     26  C   UNL     1       6.083   5.177  18.856  0.00  0.00    +0.000 C 
BRANCH  26  27
ATOM     27  C   UNL     1       5.303   3.924  18.543  0.00  0.00    +0.000 A 
ATOM     28  C   UNL     1       4.961   3.009  19.548  0.00  0.00    +0.000 A 
ATOM     29  C   UNL     1       4.113   1.936  19.266  0.00  0.00    +0.000 A 
ATOM     30  C   UNL     1       3.607   1.760  17.980  0.00  0.00    +0.000 A 
ATOM     31  C   UNL     1       3.961   2.648  16.968  0.00  0.00    +0.000 A 
ATOM     32  C   UNL     1       4.804   3.723  17.248  0.00  0.00    +0.000 A 
ENDBRANCH  26  27
ENDBRANCH  21  26
ENDBRANCH  20  21
ENDBRANCH   1  20
TORSDOF 14
ENDMDL
MODEL 8
REMARK VINA RESULT:      -7.4      1.185      1.839
REMARK  Name = 
REMARK  14 active torsions:
REMARK  status: ('A' for Active; 'I' for Inactive)
REMARK    1  A    between atoms: C_2  and  O_3
REMARK    2  A    between atoms: C_2  and  C_4
REMARK    3  A    between atoms: C_4  and  C_5
REMARK    4  A    between atoms: C_5  and  C_6
REMARK    5  A    between atoms: C_6  and  C_7
REMARK    6  A    between atoms: N_9  and  C_10
REMARK    7  A    between atoms: C_10  and  C_11
REMARK    8  A    between atoms: C_10  and  C_18
REMARK    9  A    between atoms: C_11  and  C_12
REMARK   10  A    between atoms: C_18  and  C_19
REMARK   11  A    between atoms: C_19  and  C_20
REMARK   12  A    between atoms: C_19  and  C_27
REMARK   13  A    between atoms: C_20  and  C_21
REMARK   14  A    between atoms: C_27  and  O_29
REMARK                            x       y       z     vdW  Elec       q    Type
REMARK                         _______ _______ _______ _____ _____    ______ ____
ROOT
ATOM      1  C   UNL     1       3.565   5.975  17.525  0.00  0.00    +0.000 C 
ENDROOT
BRANCH   1   4
ATOM      2  C   UNL     1       2.283   3.832  17.449  0.00  0.00    +0.000 C 
ATOM      3  O   UNL     1       1.195   4.368  17.264  0.00  0.00    +0.000 OA
ATOM      4  N   UNL     1       3.478   4.511  17.525  0.00  0.00    +0.000 N 
ATOM      5  H   UNL     1       4.320   3.980  17.706  0.00  0.00    +0.000 HD
BRANCH   2   6
ATOM      6  C   UNL     1       2.394   2.334  17.604  0.00  0.00    +0.000 C 
BRANCH   6   7
ATOM      7  C   UNL     1       3.850   1.894  17.765  0.00  0.00    +0.000 C 
BRANCH   7   8
ATOM      8  C   UNL     1       4.123   1.260  19.129  0.00  0.00    +0.000 C 
BRANCH   8  10
ATOM      9  O   UNL     1       3.763   2.172  21.346  0.00  0.00    +0.000 OA
ATOM     10  C   UNL     1       4.248   2.286  20.231  0.00  0.00    +0.000 C 
BRANCH  10  11
ATOM     11  O   UNL     1       4.986   3.358  19.868  0.00  0.00    +0.000 OA
ATOM     12  H   UNL     1       5.889   3.143  19.566  0.00  0.00    +0.000 HD
ENDBRANCH  10  11
ENDBRANCH   8  10
ENDBRANCH   7   8
ENDBRANCH   6   7
ENDBRANCH   2   6
ENDBRANCH   1   4
BRANCH   1  13
ATOM     13  C   UNL     1       3.327   6.521  18.966  0.00  0.00    +0.000 C 
BRANCH  13  14
ATOM     14  C   UNL     1       2.377   7.697  19.061  0.00  0.00    +0.000 A 
ATOM     15  C   UNL     1       2.033   8.440  17.918  0.00  0.00    +0.000 A 
ATOM     16  C   UNL     1       1.114   9.489  18.000  0.00  0.00    +0.000 A 
ATOM     17  C   UNL     1       0.523   9.807  19.221  0.00  0.00    +0.000 A 
ATOM     18  C   UNL     1       0.847   9.072  20.359  0.00  0.00    +0.000 A 
ATOM     19  C   UNL     1       1.765   8.022  20.278  0.00  0.00    +0.000 A 
ENDBRANCH  13  14
ENDBRANCH   1  13
BRANCH   1  20
ATOM     20  C   UNL     1       4.941   6.478  17.023  0.00  0.00    +0.000 C 
BRANCH  20  21
ATOM     21  C   UNL     1       6.072   5.436  16.832  0.00  0.00    +0.000 C 
BRANCH  21  22
ATOM     22  C   UNL     1       6.929   5.382  18.094  0.00  0.00    +0.000 C 
ATOM     23  O   UNL     1       7.232   4.358  18.688  0.00  0.00    +0.000 OA
BRANCH  22  24
ATOM     24  O   UNL     1       7.403   6.587  18.490  0.00  0.00    +0.000 OA
ATOM     25  H   UNL     1       7.100   7.343  17.955  0.00  0.00    +0.000 HD
ENDBRANCH  22  24
ENDBRANCH  21  22
BRANCH  21  26
ATOM     26  C   UNL     1       6.946   5.612  15.576  0.00  0.00    +0.000 C 
BRANCH  26  27
ATOM     27  C   UNL     1       6.552   4.898  14.307  0.00  0.00    +0.000 A 
ATOM     28  C   UNL     1       7.443   4.778  13.232  0.00  0.00    +0.000 A 
ATOM     29  C   UNL     1       7.115   3.988  12.128  0.00  0.00    +0.000 A 
ATOM     30  C   UNL     1       5.895   3.317  12.083  0.00  0.00    +0.000 A 
ATOM     31  C   UNL     1       4.992   3.448  13.134  0.00  0.00    +0.000 A 
ATOM     32  C   UNL     1       5.318   4.234  14.238  0.00  0.00    +0.000 A 
ENDBRANCH  26  27
ENDBRANCH  21  26
ENDBRANCH  20  21
ENDBRANCH   1  20
TORSDOF 14
ENDMDL
MODEL 9
REMARK VINA RESULT:      -7.4      2.892      6.026
REMARK  Name = 
REMARK  14 active torsions:
REMARK  status: ('A' for Active; 'I' for Inactive)
REMARK    1  A    between atoms: C_2  and  O_3
REMARK    2  A    between atoms: C_2  and  C_4
REMARK    3  A    between atoms: C_4  and  C_5
REMARK    4  A    between atoms: C_5  and  C_6
REMARK    5  A    between atoms: C_6  and  C_7
REMARK    6  A    between atoms: N_9  and  C_10
REMARK    7  A    between atoms: C_10  and  C_11
REMARK    8  A    between atoms: C_10  and  C_18
REMARK    9  A    between atoms: C_11  and  C_12
REMARK   10  A    between atoms: C_18  and  C_19
REMARK   11  A    between atoms: C_19  and  C_20
REMARK   12  A    between atoms: C_19  and  C_27
REMARK   13  A    between atoms: C_20  and  C_21
REMARK   14  A    between atoms: C_27  and  O_29
REMARK                            x       y       z     vdW  Elec       q    Type
REMARK                         _______ _______ _______ _____ _____    ______ ____
ROOT
ATOM      1  C   UNL     1       2.833   7.090  18.547  0.00  0.00    +0.000 C 
ENDROOT
BRANCH   1   4
ATOM      2  C   UNL     1       1.511   8.762  19.850  0.00  0.00    +0.000 C 
ATOM      3  O   UNL     1       1.636   8.180  20.923  0.00  0.00    +0.000 OA
ATOM      4  N   UNL     1       2.097   8.352  18.674  0.00  0.00    +0.000 N 
ATOM      5  H   UNL     1       1.911   8.886  17.835  0.00  0.00    +0.000 HD
BRANCH   2   6
ATOM      6  C   UNL     1       0.681  10.019  19.740  0.00  0.00    +0.000 C 
BRANCH   6   7
ATOM      7  C   UNL     1       0.027  10.140  18.364  0.00  0.00    +0.000 C 
BRANCH   7   8
ATOM      8  C   UNL     1      -0.671  11.485  18.161  0.00  0.00    +0.000 C 
BRANCH   8  10
ATOM      9  O   UNL     1      -3.053  11.063  18.310  0.00  0.00    +0.000 OA
ATOM     10  C   UNL     1      -2.077  11.335  17.629  0.00  0.00    +0.000 C 
BRANCH  10  11
ATOM     11  O   UNL     1      -2.161  11.558  16.299  0.00  0.00    +0.000 OA
ATOM     12  H   UNL     1      -3.072  11.661  15.965  0.00  0.00    +0.000 HD
ENDBRANCH  10  11
ENDBRANCH   8  10
ENDBRANCH   7   8
ENDBRANCH   6   7
ENDBRANCH   2   6
ENDBRANCH   1   4
BRANCH   1  13
ATOM     13  C   UNL     1       1.861   5.948  18.124  0.00  0.00    +0.000 C 
BRANCH  13  14
ATOM     14  C   UNL     1       1.672   4.849  19.150  0.00  0.00    +0.000 A 
ATOM     15  C   UNL     1       2.134   5.007  20.468  0.00  0.00    +0.000 A 
ATOM     16  C   UNL     1       1.908   4.015  21.425  0.00  0.00    +0.000 A 
ATOM     17  C   UNL     1       1.216   2.855  21.082  0.00  0.00    +0.000 A 
ATOM     18  C   UNL     1       0.743   2.692  19.782  0.00  0.00    +0.000 A 
ATOM     19  C   UNL     1       0.966   3.684  18.824  0.00  0.00    +0.000 A 
ENDBRANCH  13  14
ENDBRANCH   1  13
BRANCH   1  20
ATOM     20  C   UNL     1       3.976   7.182  17.506  0.00  0.00    +0.000 C 
BRANCH  20  21
ATOM     21  C   UNL     1       5.185   6.226  17.666  0.00  0.00    +0.000 C 
BRANCH  21  22
ATOM     22  C   UNL     1       6.459   6.941  17.224  0.00  0.00    +0.000 C 
ATOM     23  O   UNL     1       6.578   8.153  17.119  0.00  0.00    +0.000 OA
BRANCH  22  24
ATOM     24  O   UNL     1       7.509   6.113  17.008  0.00  0.00    +0.000 OA
ATOM     25  H   UNL     1       8.304   6.313  17.536  0.00  0.00    +0.000 HD
ENDBRANCH  22  24
ENDBRANCH  21  22
BRANCH  21  26
ATOM     26  C   UNL     1       5.054   4.853  16.980  0.00  0.00    +0.000 C 
BRANCH  26  27
ATOM     27  C   UNL     1       4.602   3.668  17.798  0.00  0.00    +0.000 A 
ATOM     28  C   UNL     1       3.884   2.614  17.218  0.00  0.00    +0.000 A 
ATOM     29  C   UNL     1       3.605   1.461  17.954  0.00  0.00    +0.000 A 
ATOM     30  C   UNL     1       4.033   1.351  19.276  0.00  0.00    +0.000 A 
ATOM     31  C   UNL     1       4.725   2.402  19.870  0.00  0.00    +0.000 A 
ATOM     32  C   UNL     1       5.007   3.553  19.135  0.00  0.00    +0.000 A 
ENDBRANCH  26  27
ENDBRANCH  21  26
ENDBRANCH  20  21
ENDBRANCH   1  20
TORSDOF 14
ENDMDL
