MODEL 1
REMARK VINA RESULT:      -8.0      0.000      0.000
REMARK  Name = 
REMARK  8 active torsions:
REMARK  status: ('A' for Active; 'I' for Inactive)
REMARK    1  A    between atoms: C_1  and  C_2
REMARK    2  A    between atoms: C_4  and  C_5
REMARK    3  A    between atoms: C_5  and  N_6
REMARK    4  A    between atoms: C_5  and  C_19
REMARK    5  A    between atoms: C_7  and  C_9
REMARK    6  A    between atoms: N_11  and  C_12
REMARK    7  A    between atoms: C_26  and  C_27
REMARK    8  A    between atoms: C_27  and  O_28
REMARK                            x       y       z     vdW  Elec       q    Type
REMARK                         _______ _______ _______ _____ _____    ______ ____
ROOT
ATOM      1  C   UNL     1       6.217   5.371  16.785  0.00  0.00    +0.000 C 
ENDROOT
BRANCH   1   2
ATOM      2  C   UNL     1       4.725   5.412  17.246  0.00  0.00    +0.000 C 
ATOM      3  C   UNL     1       4.456   5.994  18.650  0.00  0.00    +0.000 C 
ATOM      4  C   UNL     1       4.478   4.980  19.799  0.00  0.00    +0.000 C 
ATOM      5  C   UNL     1       3.932   3.597  19.449  0.00  0.00    +0.000 C 
ATOM      6  N   UNL     1       4.336   3.136  18.126  0.00  0.00    +0.000 NA
ATOM      7  C   UNL     1       3.957   4.093  17.096  0.00  0.00    +0.000 C 
ATOM      8  H   UNL     1       3.893   2.237  17.931  0.00  0.00    +0.000 HD
ENDBRANCH   1   2
BRANCH   1  12
ATOM      9  C   UNL     1       8.197   5.430  12.198  0.00  0.00    +0.000 C 
ATOM     10  C   UNL     1       7.292   4.929  13.270  0.00  0.00    +0.000 A 
ATOM     11  N   UNL     1       7.295   5.577  14.500  0.00  0.00    +0.000 NA
ATOM     12  C   UNL     1       6.491   4.948  15.350  0.00  0.00    +0.000 A 
ATOM     13  S   UNL     1       5.927   3.429  14.775  0.00  0.00    +0.000 S 
ATOM     14  C   UNL     1       6.404   3.868  13.183  0.00  0.00    +0.000 A 
BRANCH  14  15
ATOM     15  C   UNL     1       5.924   3.050  12.037  0.00  0.00    +0.000 C 
BRANCH  15  16
ATOM     16  O   UNL     1       6.943   2.131  11.661  0.00  0.00    +0.000 OA
ATOM     17  H   UNL     1       7.749   2.654  11.508  0.00  0.00    +0.000 HD
ENDBRANCH  15  16
ENDBRANCH  14  15
ENDBRANCH   1  12
BRANCH   1  18
ATOM     18  N   UNL     1       6.846   6.674  16.965  0.00  0.00    +0.000 N 
ATOM     19  C   UNL     1       7.645   7.028  18.021  0.00  0.00    +0.000 C 
ATOM     20  O   UNL     1       8.077   6.286  18.890  0.00  0.00    +0.000 OA
ATOM     21  H   UNL     1       6.553   7.417  16.329  0.00  0.00    +0.000 HD
BRANCH  19  22
ATOM     22  C   UNL     1       7.961   8.536  18.048  0.00  0.00    +0.000 C 
ATOM     23  O   UNL     1       7.398   9.248  17.227  0.00  0.00    +0.000 OA
ATOM     24  N   UNL     1       8.886   8.895  19.010  0.00  0.00    +0.000 N 
ATOM     25  H   UNL     1       9.292   8.123  19.533  0.00  0.00    +0.000 HD
BRANCH  24  26
ATOM     26  C   UNL     1       9.390  10.194  19.217  0.00  0.00    +0.000 A 
ATOM     27  C   UNL     1       9.918  10.975  18.183  0.00  0.00    +0.000 A 
ATOM     28  C   UNL     1      10.480  12.226  18.446  0.00  0.00    +0.000 A 
ATOM     29  C   UNL     1      10.514  12.707  19.750  0.00  0.00    +0.000 A 
ATOM     30 CL   UNL     1      11.260  14.219  20.080  0.00  0.00    +0.000 Cl
ATOM     31  C   UNL     1       9.953  11.961  20.783  0.00  0.00    +0.000 A 
ATOM     32  C   UNL     1       9.382  10.710  20.518  0.00  0.00    +0.000 A 
ENDBRANCH  24  26
ENDBRANCH  19  22
ENDBRANCH   1  18
TORSDOF 7
ENDMDL
MODEL 2
REMARK VINA RESULT:      -7.8      4.911      6.542
REMARK  Name = 
REMARK  8 active torsions:
REMARK  status: ('A' for Active; 'I' for Inactive)
REMARK    1  A    between atoms: C_1  and  C_2
REMARK    2  A    between atoms: C_4  and  C_5
REMARK    3  A    between atoms: C_5  and  N_6
REMARK    4  A    between atoms: C_5  and  C_19
REMARK    5  A    between atoms: C_7  and  C_9
REMARK    6  A    between atoms: N_11  and  C_12
REMARK    7  A    between atoms: C_26  and  C_27
REMARK    8  A    between atoms: C_27  and  O_28
REMARK                            x       y       z     vdW  Elec       q    Type
REMARK                         _______ _______ _______ _____ _____    ______ ____
ROOT
ATOM      1  C   UNL     1       4.028   4.820  19.675  0.00  0.00    +0.000 C 
ENDROOT
BRANCH   1   2
ATOM      2  C   UNL     1       3.204   3.514  19.445  0.00  0.00    +0.000 C 
ATOM      3  C   UNL     1       1.679   3.684  19.279  0.00  0.00    +0.000 C 
ATOM      4  C   UNL     1       0.864   3.622  20.576  0.00  0.00    +0.000 C 
ATOM      5  C   UNL     1       1.394   2.646  21.625  0.00  0.00    +0.000 C 
ATOM      6  N   UNL     1       2.848   2.652  21.734  0.00  0.00    +0.000 NA
ATOM      7  C   UNL     1       3.474   2.385  20.447  0.00  0.00    +0.000 C 
ATOM      8  H   UNL     1       3.140   1.942  22.406  0.00  0.00    +0.000 HD
ENDBRANCH   1   2
BRANCH   1  12
ATOM      9  C   UNL     1       7.661   7.347  17.355  0.00  0.00    +0.000 C 
ATOM     10  C   UNL     1       6.548   6.362  17.443  0.00  0.00    +0.000 A 
ATOM     11  N   UNL     1       5.874   6.224  18.651  0.00  0.00    +0.000 NA
ATOM     12  C   UNL     1       4.973   5.251  18.565  0.00  0.00    +0.000 A 
ATOM     13  S   UNL     1       5.102   4.315  17.127  0.00  0.00    +0.000 S 
ATOM     14  C   UNL     1       6.074   5.546  16.427  0.00  0.00    +0.000 A 
BRANCH  14  15
ATOM     15  C   UNL     1       6.339   5.508  14.963  0.00  0.00    +0.000 C 
BRANCH  15  16
ATOM     16  O   UNL     1       7.680   5.085  14.743  0.00  0.00    +0.000 OA
ATOM     17  H   UNL     1       7.970   4.642  15.559  0.00  0.00    +0.000 HD
ENDBRANCH  15  16
ENDBRANCH  14  15
ENDBRANCH   1  12
BRANCH   1  18
ATOM     18  N   UNL     1       3.142   5.949  19.932  0.00  0.00    +0.000 N 
ATOM     19  C   UNL     1       2.591   6.757  18.972  0.00  0.00    +0.000 C 
ATOM     20  O   UNL     1       2.626   6.584  17.763  0.00  0.00    +0.000 OA
ATOM     21  H   UNL     1       3.040   6.240  20.905  0.00  0.00    +0.000 HD
BRANCH  19  22
ATOM     22  C   UNL     1       1.898   7.999  19.567  0.00  0.00    +0.000 C 
ATOM     23  O   UNL     1       1.698   8.013  20.774  0.00  0.00    +0.000 OA
ATOM     24  N   UNL     1       1.558   8.953  18.626  0.00  0.00    +0.000 N 
ATOM     25  H   UNL     1       1.743   8.696  17.659  0.00  0.00    +0.000 HD
BRANCH  24  26
ATOM     26  C   UNL     1       0.873  10.155  18.888  0.00  0.00    +0.000 A 
ATOM     27  C   UNL     1       1.499  11.407  18.851  0.00  0.00    +0.000 A 
ATOM     28  C   UNL     1       0.801  12.566  19.195  0.00  0.00    +0.000 A 
ATOM     29  C   UNL     1      -0.533  12.481  19.576  0.00  0.00    +0.000 A 
ATOM     30 CL   UNL     1      -1.373  13.900  20.058  0.00  0.00    +0.000 Cl
ATOM     31  C   UNL     1      -1.182  11.249  19.575  0.00  0.00    +0.000 A 
ATOM     32  C   UNL     1      -0.484  10.087  19.222  0.00  0.00    +0.000 A 
ENDBRANCH  24  26
ENDBRANCH  19  22
ENDBRANCH   1  18
TORSDOF 7
ENDMDL
MODEL 3
REMARK VINA RESULT:      -7.8      5.191      7.686
REMARK  Name = 
REMARK  8 active torsions:
REMARK  status: ('A' for Active; 'I' for Inactive)
REMARK    1  A    between atoms: C_1  and  C_2
REMARK    2  A    between atoms: C_4  and  C_5
REMARK    3  A    between atoms: C_5  and  N_6
REMARK    4  A    between atoms: C_5  and  C_19
REMARK    5  A    between atoms: C_7  and  C_9
REMARK    6  A    between atoms: N_11  and  C_12
REMARK    7  A    between atoms: C_26  and  C_27
REMARK    8  A    between atoms: C_27  and  O_28
REMARK                            x       y       z     vdW  Elec       q    Type
REMARK                         _______ _______ _______ _____ _____    ______ ____
ROOT
ATOM      1  C   UNL     1       4.043   5.935  18.042  0.00  0.00    +0.000 C 
ENDROOT
BRANCH   1   2
ATOM      2  C   UNL     1       5.514   6.362  18.344  0.00  0.00    +0.000 C 
ATOM      3  C   UNL     1       6.375   6.768  17.129  0.00  0.00    +0.000 C 
ATOM      4  C   UNL     1       7.153   5.628  16.462  0.00  0.00    +0.000 C 
ATOM      5  C   UNL     1       7.673   4.556  17.418  0.00  0.00    +0.000 C 
ATOM      6  N   UNL     1       6.721   4.209  18.467  0.00  0.00    +0.000 NA
ATOM      7  C   UNL     1       6.312   5.386  19.218  0.00  0.00    +0.000 C 
ATOM      8  H   UNL     1       7.148   3.534  19.102  0.00  0.00    +0.000 HD
ENDBRANCH   1   2
BRANCH   1  12
ATOM      9  C   UNL     1       3.375   1.049  18.840  0.00  0.00    +0.000 C 
ATOM     10  C   UNL     1       3.154   2.499  19.094  0.00  0.00    +0.000 A 
ATOM     11  N   UNL     1       3.789   3.424  18.273  0.00  0.00    +0.000 NA
ATOM     12  C   UNL     1       3.539   4.659  18.695  0.00  0.00    +0.000 A 
ATOM     13  S   UNL     1       2.762   4.722  20.228  0.00  0.00    +0.000 S 
ATOM     14  C   UNL     1       2.350   3.060  20.074  0.00  0.00    +0.000 A 
BRANCH  14  15
ATOM     15  C   UNL     1       1.349   2.478  21.008  0.00  0.00    +0.000 C 
BRANCH  15  16
ATOM     16  O   UNL     1       1.753   2.740  22.347  0.00  0.00    +0.000 OA
ATOM     17  H   UNL     1       2.568   3.269  22.294  0.00  0.00    +0.000 HD
ENDBRANCH  15  16
ENDBRANCH  14  15
ENDBRANCH   1  12
BRANCH   1  18
ATOM     18  N   UNL     1       3.113   6.994  18.418  0.00  0.00    +0.000 N 
ATOM     19  C   UNL     1       2.839   8.109  17.671  0.00  0.00    +0.000 C 
ATOM     20  O   UNL     1       3.202   8.328  16.525  0.00  0.00    +0.000 OA
ATOM     21  H   UNL     1       2.750   6.967  19.372  0.00  0.00    +0.000 HD
BRANCH  19  22
ATOM     22  C   UNL     1       2.003   9.150  18.441  0.00  0.00    +0.000 C 
ATOM     23  O   UNL     1       2.014  10.303  18.032  0.00  0.00    +0.000 OA
ATOM     24  N   UNL     1       1.348   8.634  19.544  0.00  0.00    +0.000 N 
ATOM     25  H   UNL     1       1.547   7.658  19.751  0.00  0.00    +0.000 HD
BRANCH  24  26
ATOM     26  C   UNL     1       0.561   9.372  20.448  0.00  0.00    +0.000 A 
ATOM     27  C   UNL     1      -0.309  10.390  20.040  0.00  0.00    +0.000 A 
ATOM     28  C   UNL     1      -1.012  11.150  20.977  0.00  0.00    +0.000 A 
ATOM     29  C   UNL     1      -0.852  10.893  22.333  0.00  0.00    +0.000 A 
ATOM     30 CL   UNL     1      -1.671  11.868  23.487  0.00  0.00    +0.000 Cl
ATOM     31  C   UNL     1      -0.025   9.855  22.754  0.00  0.00    +0.000 A 
ATOM     32  C   UNL     1       0.674   9.087  21.814  0.00  0.00    +0.000 A 
ENDBRANCH  24  26
ENDBRANCH  19  22
ENDBRANCH   1  18
TORSDOF 7
ENDMDL
MODEL 4
REMARK VINA RESULT:      -7.8      5.562      6.778
REMARK  Name = 
REMARK  8 active torsions:
REMARK  status: ('A' for Active; 'I' for Inactive)
REMARK    1  A    between atoms: C_1  and  C_2
REMARK    2  A    between atoms: C_4  and  C_5
REMARK    3  A    between atoms: C_5  and  N_6
REMARK    4  A    between atoms: C_5  and  C_19
REMARK    5  A    between atoms: C_7  and  C_9
REMARK    6  A    between atoms: N_11  and  C_12
REMARK    7  A    between atoms: C_26  and  C_27
REMARK    8  A    between atoms: C_27  and  O_28
REMARK                            x       y       z     vdW  Elec       q    Type
REMARK                         _______ _______ _______ _____ _____    ______ ____
ROOT
ATOM      1  C   UNL     1       2.784   6.003  19.336  0.00  0.00    +0.000 C 
ENDROOT
BRANCH   1   2
ATOM      2  C   UNL     1       1.583   5.016  19.197  0.00  0.00    +0.000 C 
ATOM      3  C   UNL     1       1.022   4.427  20.509  0.00  0.00    +0.000 C 
ATOM      4  C   UNL     1       1.667   3.114  20.970  0.00  0.00    +0.000 C 
ATOM      5  C   UNL     1       2.078   2.168  19.844  0.00  0.00    +0.000 C 
ATOM      6  N   UNL     1       2.671   2.854  18.702  0.00  0.00    +0.000 NA
ATOM      7  C   UNL     1       1.780   3.882  18.184  0.00  0.00    +0.000 C 
ATOM      8  H   UNL     1       2.869   2.176  17.965  0.00  0.00    +0.000 HD
ENDBRANCH   1   2
BRANCH   1  12
ATOM      9  C   UNL     1       5.565   5.851  15.188  0.00  0.00    +0.000 C 
ATOM     10  C   UNL     1       5.284   5.619  16.632  0.00  0.00    +0.000 A 
ATOM     11  N   UNL     1       4.032   5.965  17.130  0.00  0.00    +0.000 NA
ATOM     12  C   UNL     1       3.990   5.762  18.443  0.00  0.00    +0.000 A 
ATOM     13  S   UNL     1       5.523   5.407  19.138  0.00  0.00    +0.000 S 
ATOM     14  C   UNL     1       6.142   5.067  17.571  0.00  0.00    +0.000 A 
BRANCH  14  15
ATOM     15  C   UNL     1       7.455   4.379  17.449  0.00  0.00    +0.000 C 
BRANCH  15  16
ATOM     16  O   UNL     1       8.229   4.643  18.614  0.00  0.00    +0.000 OA
ATOM     17  H   UNL     1       8.477   5.583  18.578  0.00  0.00    +0.000 HD
ENDBRANCH  15  16
ENDBRANCH  14  15
ENDBRANCH   1  12
BRANCH   1  18
ATOM     18  N   UNL     1       2.353   7.375  19.096  0.00  0.00    +0.000 N 
ATOM     19  C   UNL     1       1.642   8.146  19.978  0.00  0.00    +0.000 C 
ATOM     20  O   UNL     1       1.384   7.877  21.141  0.00  0.00    +0.000 OA
ATOM     21  H   UNL     1       2.470   7.734  18.148  0.00  0.00    +0.000 HD
BRANCH  19  22
ATOM     22  C   UNL     1       1.134   9.457  19.345  0.00  0.00    +0.000 C 
ATOM     23  O   UNL     1       0.868   9.445  18.151  0.00  0.00    +0.000 OA
ATOM     24  N   UNL     1       1.068  10.515  20.232  0.00  0.00    +0.000 N 
ATOM     25  H   UNL     1       1.420  10.323  21.167  0.00  0.00    +0.000 HD
BRANCH  24  26
ATOM     26  C   UNL     1       0.688  11.833  19.908  0.00  0.00    +0.000 A 
ATOM     27  C   UNL     1      -0.632  12.286  20.007  0.00  0.00    +0.000 A 
ATOM     28  C   UNL     1      -0.978  13.577  19.601  0.00  0.00    +0.000 A 
ATOM     29  C   UNL     1      -0.001  14.426  19.095  0.00  0.00    +0.000 A 
ATOM     30 CL   UNL     1      -0.438  15.992  18.540  0.00  0.00    +0.000 Cl
ATOM     31  C   UNL     1       1.325  14.005  19.033  0.00  0.00    +0.000 A 
ATOM     32  C   UNL     1       1.673  12.713  19.448  0.00  0.00    +0.000 A 
ENDBRANCH  24  26
ENDBRANCH  19  22
ENDBRANCH   1  18
TORSDOF 7
ENDMDL
MODEL 5
REMARK VINA RESULT:      -7.8      4.897      6.793
REMARK  Name = 
REMARK  8 active torsions:
REMARK  status: ('A' for Active; 'I' for Inactive)
REMARK    1  A    between atoms: C_1  and  C_2
REMARK    2  A    between atoms: C_4  and  C_5
REMARK    3  A    between atoms: C_5  and  N_6
REMARK    4  A    between atoms: C_5  and  C_19
REMARK    5  A    between atoms: C_7  and  C_9
REMARK    6  A    between atoms: N_11  and  C_12
REMARK    7  A    between atoms: C_26  and  C_27
REMARK    8  A    between atoms: C_27  and  O_28
REMARK                            x       y       z     vdW  Elec       q    Type
REMARK                         _______ _______ _______ _____ _____    ______ ____
ROOT
ATOM      1  C   UNL     1       4.050   4.879  19.663  0.00  0.00    +0.000 C 
ENDROOT
BRANCH   1   2
ATOM      2  C   UNL     1       3.212   3.584  19.424  0.00  0.00    +0.000 C 
ATOM      3  C   UNL     1       1.683   3.766  19.315  0.00  0.00    +0.000 C 
ATOM      4  C   UNL     1       0.912   3.668  20.637  0.00  0.00    +0.000 C 
ATOM      5  C   UNL     1       1.473   2.660  21.637  0.00  0.00    +0.000 C 
ATOM      6  N   UNL     1       2.930   2.656  21.697  0.00  0.00    +0.000 NA
ATOM      7  C   UNL     1       3.510   2.424  20.382  0.00  0.00    +0.000 C 
ATOM      8  H   UNL     1       3.241   1.924  22.337  0.00  0.00    +0.000 HD
ENDBRANCH   1   2
BRANCH   1  12
ATOM      9  C   UNL     1       7.760   7.373  17.432  0.00  0.00    +0.000 C 
ATOM     10  C   UNL     1       6.716   6.316  17.533  0.00  0.00    +0.000 A 
ATOM     11  N   UNL     1       5.908   6.285  18.665  0.00  0.00    +0.000 NA
ATOM     12  C   UNL     1       5.094   5.236  18.617  0.00  0.00    +0.000 A 
ATOM     13  S   UNL     1       5.465   4.129  17.354  0.00  0.00    +0.000 S 
ATOM     14  C   UNL     1       6.430   5.333  16.599  0.00  0.00    +0.000 A 
BRANCH  14  15
ATOM     15  C   UNL     1       6.877   5.120  15.195  0.00  0.00    +0.000 C 
BRANCH  15  16
ATOM     16  O   UNL     1       6.019   4.172  14.571  0.00  0.00    +0.000 OA
ATOM     17  H   UNL     1       6.010   4.386  13.622  0.00  0.00    +0.000 HD
ENDBRANCH  15  16
ENDBRANCH  14  15
ENDBRANCH   1  12
BRANCH   1  18
ATOM     18  N   UNL     1       3.177   6.039  19.797  0.00  0.00    +0.000 N 
ATOM     19  C   UNL     1       2.671   6.772  18.755  0.00  0.00    +0.000 C 
ATOM     20  O   UNL     1       2.737   6.496  17.567  0.00  0.00    +0.000 OA
ATOM     21  H   UNL     1       3.053   6.414  20.738  0.00  0.00    +0.000 HD
BRANCH  19  22
ATOM     22  C   UNL     1       1.983   8.070  19.222  0.00  0.00    +0.000 C 
ATOM     23  O   UNL     1       2.122   9.067  18.526  0.00  0.00    +0.000 OA
ATOM     24  N   UNL     1       1.297   7.941  20.415  0.00  0.00    +0.000 N 
ATOM     25  H   UNL     1       1.383   7.035  20.871  0.00  0.00    +0.000 HD
BRANCH  24  26
ATOM     26  C   UNL     1       0.625   8.978  21.090  0.00  0.00    +0.000 A 
ATOM     27  C   UNL     1       0.539   9.042  22.486  0.00  0.00    +0.000 A 
ATOM     28  C   UNL     1      -0.204  10.044  23.112  0.00  0.00    +0.000 A 
ATOM     29  C   UNL     1      -0.866  10.995  22.344  0.00  0.00    +0.000 A 
ATOM     30 CL   UNL     1      -1.829  12.191  23.113  0.00  0.00    +0.000 Cl
ATOM     31  C   UNL     1      -0.754  10.972  20.956  0.00  0.00    +0.000 A 
ATOM     32  C   UNL     1      -0.001   9.970  20.328  0.00  0.00    +0.000 A 
ENDBRANCH  24  26
ENDBRANCH  19  22
ENDBRANCH   1  18
TORSDOF 7
ENDMDL
MODEL 6
REMARK VINA RESULT:      -7.8      5.622      7.953
REMARK  Name = 
REMARK  8 active torsions:
REMARK  status: ('A' for Active; 'I' for Inactive)
REMARK    1  A    between atoms: C_1  and  C_2
REMARK    2  A    between atoms: C_4  and  C_5
REMARK    3  A    between atoms: C_5  and  N_6
REMARK    4  A    between atoms: C_5  and  C_19
REMARK    5  A    between atoms: C_7  and  C_9
REMARK    6  A    between atoms: N_11  and  C_12
REMARK    7  A    between atoms: C_26  and  C_27
REMARK    8  A    between atoms: C_27  and  O_28
REMARK                            x       y       z     vdW  Elec       q    Type
REMARK                         _______ _______ _______ _____ _____    ______ ____
ROOT
ATOM      1  C   UNL     1       3.696   5.898  17.848  0.00  0.00    +0.000 C 
ENDROOT
BRANCH   1   2
ATOM      2  C   UNL     1       5.152   6.454  17.944  0.00  0.00    +0.000 C 
ATOM      3  C   UNL     1       5.898   6.662  16.608  0.00  0.00    +0.000 C 
ATOM      4  C   UNL     1       6.704   5.457  16.110  0.00  0.00    +0.000 C 
ATOM      5  C   UNL     1       7.360   4.621  17.207  0.00  0.00    +0.000 C 
ATOM      6  N   UNL     1       6.509   4.434  18.376  0.00  0.00    +0.000 NA
ATOM      7  C   UNL     1       6.073   5.713  18.920  0.00  0.00    +0.000 C 
ATOM      8  H   UNL     1       7.024   3.921  19.092  0.00  0.00    +0.000 HD
ENDBRANCH   1   2
BRANCH   1  12
ATOM      9  C   UNL     1       3.650   0.980  18.724  0.00  0.00    +0.000 C 
ATOM     10  C   UNL     1       3.299   2.401  18.996  0.00  0.00    +0.000 A 
ATOM     11  N   UNL     1       3.743   3.378  18.111  0.00  0.00    +0.000 NA
ATOM     12  C   UNL     1       3.404   4.584  18.554  0.00  0.00    +0.000 A 
ATOM     13  S   UNL     1       2.786   4.584  20.159  0.00  0.00    +0.000 S 
ATOM     14  C   UNL     1       2.544   2.886  20.053  0.00  0.00    +0.000 A 
BRANCH  14  15
ATOM     15  C   UNL     1       1.713   2.212  21.087  0.00  0.00    +0.000 C 
BRANCH  15  16
ATOM     16  O   UNL     1       1.887   2.878  22.332  0.00  0.00    +0.000 OA
ATOM     17  H   UNL     1       1.159   3.519  22.410  0.00  0.00    +0.000 HD
ENDBRANCH  15  16
ENDBRANCH  14  15
ENDBRANCH   1  12
BRANCH   1  18
ATOM     18  N   UNL     1       2.739   6.871  18.362  0.00  0.00    +0.000 N 
ATOM     19  C   UNL     1       2.517   8.117  17.836  0.00  0.00    +0.000 C 
ATOM     20  O   UNL     1       2.961   8.556  16.785  0.00  0.00    +0.000 OA
ATOM     21  H   UNL     1       2.308   6.659  19.263  0.00  0.00    +0.000 HD
BRANCH  19  22
ATOM     22  C   UNL     1       1.626   8.993  18.738  0.00  0.00    +0.000 C 
ATOM     23  O   UNL     1       1.589   8.725  19.931  0.00  0.00    +0.000 OA
ATOM     24  N   UNL     1       0.943   9.982  18.055  0.00  0.00    +0.000 N 
ATOM     25  H   UNL     1       1.056   9.971  17.044  0.00  0.00    +0.000 HD
BRANCH  24  26
ATOM     26  C   UNL     1       0.025  10.886  18.625  0.00  0.00    +0.000 A 
ATOM     27  C   UNL     1       0.407  11.884  19.529  0.00  0.00    +0.000 A 
ATOM     28  C   UNL     1      -0.547  12.708  20.130  0.00  0.00    +0.000 A 
ATOM     29  C   UNL     1      -1.893  12.540  19.827  0.00  0.00    +0.000 A 
ATOM     30 CL   UNL     1      -3.070  13.514  20.613  0.00  0.00    +0.000 Cl
ATOM     31  C   UNL     1      -2.285  11.582  18.897  0.00  0.00    +0.000 A 
ATOM     32  C   UNL     1      -1.328  10.760  18.287  0.00  0.00    +0.000 A 
ENDBRANCH  24  26
ENDBRANCH  19  22
ENDBRANCH   1  18
TORSDOF 7
ENDMDL
MODEL 7
REMARK VINA RESULT:      -7.7      8.168     10.472
REMARK  Name = 
REMARK  8 active torsions:
REMARK  status: ('A' for Active; 'I' for Inactive)
REMARK    1  A    between atoms: C_1  and  C_2
REMARK    2  A    between atoms: C_4  and  C_5
REMARK    3  A    between atoms: C_5  and  N_6
REMARK    4  A    between atoms: C_5  and  C_19
REMARK    5  A    between atoms: C_7  and  C_9
REMARK    6  A    between atoms: N_11  and  C_12
REMARK    7  A    between atoms: C_26  and  C_27
REMARK    8  A    between atoms: C_27  and  O_28
REMARK                            x       y       z     vdW  Elec       q    Type
REMARK                         _______ _______ _______ _____ _____    ______ ____
ROOT
ATOM      1  C   UNL     1      -1.040  11.483  19.002  0.00  0.00    +0.000 C 
ENDROOT
BRANCH   1   2
ATOM      2  C   UNL     1      -0.386  12.885  19.206  0.00  0.00    +0.000 C 
ATOM      3  C   UNL     1       0.825  13.216  18.308  0.00  0.00    +0.000 C 
ATOM      4  C   UNL     1       2.193  12.821  18.875  0.00  0.00    +0.000 C 
ATOM      5  C   UNL     1       2.329  12.962  20.390  0.00  0.00    +0.000 C 
ATOM      6  N   UNL     1       1.140  12.533  21.118  0.00  0.00    +0.000 NA
ATOM      7  C   UNL     1      -0.044  13.244  20.658  0.00  0.00    +0.000 C 
ATOM      8  H   UNL     1       1.272  12.707  22.115  0.00  0.00    +0.000 HD
ENDBRANCH   1   2
BRANCH   1  12
ATOM      9  C   UNL     1      -3.867  10.491  15.003  0.00  0.00    +0.000 C 
ATOM     10  C   UNL     1      -3.595  11.045  16.358  0.00  0.00    +0.000 A 
ATOM     11  N   UNL     1      -2.309  10.937  16.877  0.00  0.00    +0.000 NA
ATOM     12  C   UNL     1      -2.274  11.412  18.117  0.00  0.00    +0.000 A 
ATOM     13  S   UNL     1      -3.828  11.749  18.773  0.00  0.00    +0.000 S 
ATOM     14  C   UNL     1      -4.495  11.693  17.190  0.00  0.00    +0.000 A 
BRANCH  14  15
ATOM     15  C   UNL     1      -5.874  12.207  16.972  0.00  0.00    +0.000 C 
BRANCH  15  16
ATOM     16  O   UNL     1      -6.791  11.412  17.715  0.00  0.00    +0.000 OA
ATOM     17  H   UNL     1      -7.450  11.079  17.080  0.00  0.00    +0.000 HD
ENDBRANCH  15  16
ENDBRANCH  14  15
ENDBRANCH   1  12
BRANCH   1  18
ATOM     18  N   UNL     1      -0.074  10.540  18.450  0.00  0.00    +0.000 N 
ATOM     19  C   UNL     1       0.707   9.687  19.183  0.00  0.00    +0.000 C 
ATOM     20  O   UNL     1       0.623   9.467  20.382  0.00  0.00    +0.000 OA
ATOM     21  H   UNL     1       0.133  10.626  17.454  0.00  0.00    +0.000 HD
BRANCH  19  22
ATOM     22  C   UNL     1       1.790   8.993  18.334  0.00  0.00    +0.000 C 
ATOM     23  O   UNL     1       2.264   9.621  17.396  0.00  0.00    +0.000 OA
ATOM     24  N   UNL     1       2.076   7.703  18.739  0.00  0.00    +0.000 N 
ATOM     25  H   UNL     1       1.498   7.346  19.496  0.00  0.00    +0.000 HD
BRANCH  24  26
ATOM     26  C   UNL     1       2.984   6.829  18.110  0.00  0.00    +0.000 A 
ATOM     27  C   UNL     1       4.128   7.279  17.440  0.00  0.00    +0.000 A 
ATOM     28  C   UNL     1       4.959   6.385  16.762  0.00  0.00    +0.000 A 
ATOM     29  C   UNL     1       4.652   5.029  16.754  0.00  0.00    +0.000 A 
ATOM     30 CL   UNL     1       5.642   3.938  15.869  0.00  0.00    +0.000 Cl
ATOM     31  C   UNL     1       3.543   4.560  17.452  0.00  0.00    +0.000 A 
ATOM     32  C   UNL     1       2.713   5.456  18.139  0.00  0.00    +0.000 A 
ENDBRANCH  24  26
ENDBRANCH  19  22
ENDBRANCH   1  18
TORSDOF 7
ENDMDL
MODEL 8
REMARK VINA RESULT:      -7.7      6.985     10.194
REMARK  Name = 
REMARK  8 active torsions:
REMARK  status: ('A' for Active; 'I' for Inactive)
REMARK    1  A    between atoms: C_1  and  C_2
REMARK    2  A    between atoms: C_4  and  C_5
REMARK    3  A    between atoms: C_5  and  N_6
REMARK    4  A    between atoms: C_5  and  C_19
REMARK    5  A    between atoms: C_7  and  C_9
REMARK    6  A    between atoms: N_11  and  C_12
REMARK    7  A    between atoms: C_26  and  C_27
REMARK    8  A    between atoms: C_27  and  O_28
REMARK                            x       y       z     vdW  Elec       q    Type
REMARK                         _______ _______ _______ _____ _____    ______ ____
ROOT
ATOM      1  C   UNL     1       0.727  11.136  18.540  0.00  0.00    +0.000 C 
ENDROOT
BRANCH   1   2
ATOM      2  C   UNL     1      -0.777  11.204  18.952  0.00  0.00    +0.000 C 
ATOM      3  C   UNL     1      -1.603   9.915  18.752  0.00  0.00    +0.000 C 
ATOM      4  C   UNL     1      -2.286   9.776  17.387  0.00  0.00    +0.000 C 
ATOM      5  C   UNL     1      -2.790  11.084  16.781  0.00  0.00    +0.000 C 
ATOM      6  N   UNL     1      -1.869  12.199  16.971  0.00  0.00    +0.000 NA
ATOM      7  C   UNL     1      -1.560  12.392  18.381  0.00  0.00    +0.000 C 
ATOM      8  H   UNL     1      -2.287  13.052  16.597  0.00  0.00    +0.000 HD
ENDBRANCH   1   2
BRANCH   1  12
ATOM      9  C   UNL     1       3.903  14.984  18.284  0.00  0.00    +0.000 C 
ATOM     10  C   UNL     1       3.080  13.960  18.985  0.00  0.00    +0.000 A 
ATOM     11  N   UNL     1       2.361  13.048  18.220  0.00  0.00    +0.000 NA
ATOM     12  C   UNL     1       1.629  12.267  19.008  0.00  0.00    +0.000 A 
ATOM     13  S   UNL     1       1.588  12.783  20.648  0.00  0.00    +0.000 S 
ATOM     14  C   UNL     1       2.950  13.788  20.354  0.00  0.00    +0.000 A 
BRANCH  14  15
ATOM     15  C   UNL     1       3.677  14.373  21.513  0.00  0.00    +0.000 C 
BRANCH  15  16
ATOM     16  O   UNL     1       2.732  14.884  22.446  0.00  0.00    +0.000 OA
ATOM     17  H   UNL     1       1.865  14.521  22.192  0.00  0.00    +0.000 HD
ENDBRANCH  15  16
ENDBRANCH  14  15
ENDBRANCH   1  12
BRANCH   1  18
ATOM     18  N   UNL     1       1.333   9.896  19.010  0.00  0.00    +0.000 N 
ATOM     19  C   UNL     1       1.983   8.984  18.220  0.00  0.00    +0.000 C 
ATOM     20  O   UNL     1       2.290   9.122  17.046  0.00  0.00    +0.000 OA
ATOM     21  H   UNL     1       1.134   9.624  19.974  0.00  0.00    +0.000 HD
BRANCH  19  22
ATOM     22  C   UNL     1       2.300   7.672  18.965  0.00  0.00    +0.000 C 
ATOM     23  O   UNL     1       2.091   7.639  20.170  0.00  0.00    +0.000 OA
ATOM     24  N   UNL     1       2.820   6.681  18.153  0.00  0.00    +0.000 N 
ATOM     25  H   UNL     1       2.991   6.954  17.188  0.00  0.00    +0.000 HD
BRANCH  24  26
ATOM     26  C   UNL     1       3.242   5.408  18.582  0.00  0.00    +0.000 A 
ATOM     27  C   UNL     1       2.347   4.377  18.889  0.00  0.00    +0.000 A 
ATOM     28  C   UNL     1       2.805   3.155  19.387  0.00  0.00    +0.000 A 
ATOM     29  C   UNL     1       4.167   2.956  19.578  0.00  0.00    +0.000 A 
ATOM     30 CL   UNL     1       4.725   1.475  20.247  0.00  0.00    +0.000 Cl
ATOM     31  C   UNL     1       5.074   3.955  19.235  0.00  0.00    +0.000 A 
ATOM     32  C   UNL     1       4.615   5.178  18.728  0.00  0.00    +0.000 A 
ENDBRANCH  24  26
ENDBRANCH  19  22
ENDBRANCH   1  18
TORSDOF 7
ENDMDL
MODEL 9
REMARK VINA RESULT:      -7.7      4.889      6.750
REMARK  Name = 
REMARK  8 active torsions:
REMARK  status: ('A' for Active; 'I' for Inactive)
REMARK    1  A    between atoms: C_1  and  C_2
REMARK    2  A    between atoms: C_4  and  C_5
REMARK    3  A    between atoms: C_5  and  N_6
REMARK    4  A    between atoms: C_5  and  C_19
REMARK    5  A    between atoms: C_7  and  C_9
REMARK    6  A    between atoms: N_11  and  C_12
REMARK    7  A    between atoms: C_26  and  C_27
REMARK    8  A    between atoms: C_27  and  O_28
REMARK                            x       y       z     vdW  Elec       q    Type
REMARK                         _______ _______ _______ _____ _____    ______ ____
ROOT
ATOM      1  C   UNL     1       3.995   4.835  19.629  0.00  0.00    +0.000 C 
ENDROOT
BRANCH   1   2
ATOM      2  C   UNL     1       3.146   3.535  19.465  0.00  0.00    +0.000 C 
ATOM      3  C   UNL     1       1.621   3.723  19.327  0.00  0.00    +0.000 C 
ATOM      4  C   UNL     1       0.834   3.718  20.643  0.00  0.00    +0.000 C 
ATOM      5  C   UNL     1       1.375   2.771  21.713  0.00  0.00    +0.000 C 
ATOM      6  N   UNL     1       2.831   2.758  21.790  0.00  0.00    +0.000 NA
ATOM      7  C   UNL     1       3.423   2.437  20.499  0.00  0.00    +0.000 C 
ATOM      8  H   UNL     1       3.128   2.067  22.479  0.00  0.00    +0.000 HD
ENDBRANCH   1   2
BRANCH   1  12
ATOM      9  C   UNL     1       7.681   7.190  17.215  0.00  0.00    +0.000 C 
ATOM     10  C   UNL     1       6.591   6.185  17.362  0.00  0.00    +0.000 A 
ATOM     11  N   UNL     1       5.856   6.168  18.542  0.00  0.00    +0.000 NA
ATOM     12  C   UNL     1       4.987   5.163  18.526  0.00  0.00    +0.000 A 
ATOM     13  S   UNL     1       5.218   4.070  17.218  0.00  0.00    +0.000 S 
ATOM     14  C   UNL     1       6.195   5.241  16.427  0.00  0.00    +0.000 A 
BRANCH  14  15
ATOM     15  C   UNL     1       6.540   5.040  14.994  0.00  0.00    +0.000 C 
BRANCH  15  16
ATOM     16  O   UNL     1       7.861   5.516  14.761  0.00  0.00    +0.000 OA
ATOM     17  H   UNL     1       8.150   5.136  13.913  0.00  0.00    +0.000 HD
ENDBRANCH  15  16
ENDBRANCH  14  15
ENDBRANCH   1  12
BRANCH   1  18
ATOM     18  N   UNL     1       3.128   5.999  19.773  0.00  0.00    +0.000 N 
ATOM     19  C   UNL     1       2.594   6.721  18.738  0.00  0.00    +0.000 C 
ATOM     20  O   UNL     1       2.627   6.431  17.552  0.00  0.00    +0.000 OA
ATOM     21  H   UNL     1       3.031   6.385  20.714  0.00  0.00    +0.000 HD
BRANCH  19  22
ATOM     22  C   UNL     1       1.922   8.026  19.208  0.00  0.00    +0.000 C 
ATOM     23  O   UNL     1       2.154   9.045  18.571  0.00  0.00    +0.000 OA
ATOM     24  N   UNL     1       1.141   7.876  20.339  0.00  0.00    +0.000 N 
ATOM     25  H   UNL     1       1.157   6.949  20.759  0.00  0.00    +0.000 HD
BRANCH  24  26
ATOM     26  C   UNL     1       0.459   8.911  21.006  0.00  0.00    +0.000 A 
ATOM     27  C   UNL     1      -0.188   9.952  20.329  0.00  0.00    +0.000 A 
ATOM     28  C   UNL     1      -0.785  11.001  21.031  0.00  0.00    +0.000 A 
ATOM     29  C   UNL     1      -0.742  11.014  22.420  0.00  0.00    +0.000 A 
ATOM     30 CL   UNL     1      -1.424  12.335  23.281  0.00  0.00    +0.000 Cl
ATOM     31  C   UNL     1      -0.142   9.964  23.110  0.00  0.00    +0.000 A 
ATOM     32  C   UNL     1       0.451   8.907  22.406  0.00  0.00    +0.000 A 
ENDBRANCH  24  26
ENDBRANCH  19  22
ENDBRANCH   1  18
TORSDOF 7
ENDMDL
