MODEL 1
REMARK VINA RESULT:      -7.9      0.000      0.000
REMARK  Name = 
REMARK  9 active torsions:
REMARK  status: ('A' for Active; 'I' for Inactive)
REMARK    1  A    between atoms: C_1  and  O_2
REMARK    2  A    between atoms: O_2  and  C_3
REMARK    3  A    between atoms: C_6  and  C_7
REMARK    4  A    between atoms: C_14  and  O_15
REMARK    5  A    between atoms: O_15  and  C_16
REMARK    6  A    between atoms: C_17  and  O_18
REMARK    7  A    between atoms: O_18  and  C_19
REMARK    8  A    between atoms: C_23  and  O_24
REMARK    9  A    between atoms: O_24  and  C_25
REMARK                            x       y       z     vdW  Elec       q    Type
REMARK                         _______ _______ _______ _____ _____    ______ ____
ROOT
ATOM      1  C   UNL     1       2.922   6.631  18.504  0.00  0.00    +0.000 A 
ATOM      2  C   UNL     1       2.243   5.524  18.174  0.00  0.00    +0.000 A 
ATOM      3  C   UNL     1       2.966   4.383  17.672  0.00  0.00    +0.000 A 
ATOM      4  O   UNL     1       2.485   3.260  17.735  0.00  0.00    +0.000 OA
ATOM      5  C   UNL     1       4.245   4.686  17.052  0.00  0.00    +0.000 A 
ATOM      6  C   UNL     1       4.729   3.713  16.183  0.00  0.00    +0.000 A 
ATOM      7  C   UNL     1       5.859   3.980  15.448  0.00  0.00    +0.000 A 
ATOM      8  C   UNL     1       6.521   5.204  15.610  0.00  0.00    +0.000 A 
ATOM      9  C   UNL     1       6.060   6.188  16.536  0.00  0.00    +0.000 A 
ATOM     10  C   UNL     1       4.868   5.936  17.261  0.00  0.00    +0.000 A 
ATOM     11  O   UNL     1       4.275   6.849  18.143  0.00  0.00    +0.000 OA
ENDROOT
BRANCH   1  15
ATOM     12  C   UNL     1       0.403   9.463  20.629  0.00  0.00    +0.000 A 
ATOM     13  C   UNL     1       0.849   8.291  21.241  0.00  0.00    +0.000 A 
ATOM     14  C   UNL     1       1.747   7.451  20.588  0.00  0.00    +0.000 A 
ATOM     15  C   UNL     1       2.148   7.667  19.242  0.00  0.00    +0.000 A 
ATOM     16  C   UNL     1       1.750   8.873  18.666  0.00  0.00    +0.000 A 
ATOM     17  C   UNL     1       0.876   9.758  19.332  0.00  0.00    +0.000 A 
BRANCH  12  19
ATOM     18  C   UNL     1      -0.589  10.231  22.662  0.00  0.00    +0.000 C 
ATOM     19  O   UNL     1      -0.469  10.319  21.244  0.00  0.00    +0.000 OA
ENDBRANCH  12  19
BRANCH  17  20
ATOM     20  O   UNL     1       0.635  10.879  18.580  0.00  0.00    +0.000 OA
ATOM     21  C   UNL     1       1.473  12.003  18.766  0.00  0.00    +0.000 C 
ENDBRANCH  17  20
ENDBRANCH   1  15
BRANCH   8  22
ATOM     22  O   UNL     1       7.655   5.242  14.840  0.00  0.00    +0.000 OA
ATOM     23  C   UNL     1       7.508   5.019  13.446  0.00  0.00    +0.000 C 
ENDBRANCH   8  22
BRANCH   9  24
ATOM     24  O   UNL     1       6.883   7.277  16.580  0.00  0.00    +0.000 OA
ATOM     25  C   UNL     1       7.688   7.579  17.698  0.00  0.00    +0.000 C 
ENDBRANCH   9  24
TORSDOF 5
ENDMDL
MODEL 2
REMARK VINA RESULT:      -7.7      0.934      1.830
REMARK  Name = 
REMARK  9 active torsions:
REMARK  status: ('A' for Active; 'I' for Inactive)
REMARK    1  A    between atoms: C_1  and  O_2
REMARK    2  A    between atoms: O_2  and  C_3
REMARK    3  A    between atoms: C_6  and  C_7
REMARK    4  A    between atoms: C_14  and  O_15
REMARK    5  A    between atoms: O_15  and  C_16
REMARK    6  A    between atoms: C_17  and  O_18
REMARK    7  A    between atoms: O_18  and  C_19
REMARK    8  A    between atoms: C_23  and  O_24
REMARK    9  A    between atoms: O_24  and  C_25
REMARK                            x       y       z     vdW  Elec       q    Type
REMARK                         _______ _______ _______ _____ _____    ______ ____
ROOT
ATOM      1  C   UNL     1       2.720   7.001  18.365  0.00  0.00    +0.000 A 
ATOM      2  C   UNL     1       2.041   5.868  18.143  0.00  0.00    +0.000 A 
ATOM      3  C   UNL     1       2.767   4.665  17.825  0.00  0.00    +0.000 A 
ATOM      4  O   UNL     1       2.266   3.565  18.004  0.00  0.00    +0.000 OA
ATOM      5  C   UNL     1       4.080   4.874  17.237  0.00  0.00    +0.000 A 
ATOM      6  C   UNL     1       4.589   3.795  16.522  0.00  0.00    +0.000 A 
ATOM      7  C   UNL     1       5.758   3.955  15.817  0.00  0.00    +0.000 A 
ATOM      8  C   UNL     1       6.431   5.183  15.856  0.00  0.00    +0.000 A 
ATOM      9  C   UNL     1       5.942   6.281  16.628  0.00  0.00    +0.000 A 
ATOM     10  C   UNL     1       4.713   6.134  17.318  0.00  0.00    +0.000 A 
ATOM     11  O   UNL     1       4.093   7.158  18.047  0.00  0.00    +0.000 OA
ENDROOT
BRANCH   1  15
ATOM     12  C   UNL     1       0.672  10.486  19.959  0.00  0.00    +0.000 A 
ATOM     13  C   UNL     1       0.898  10.343  18.589  0.00  0.00    +0.000 A 
ATOM     14  C   UNL     1       1.451   9.170  18.083  0.00  0.00    +0.000 A 
ATOM     15  C   UNL     1       1.929   8.130  18.926  0.00  0.00    +0.000 A 
ATOM     16  C   UNL     1       1.639   8.255  20.284  0.00  0.00    +0.000 A 
ATOM     17  C   UNL     1       1.036   9.419  20.807  0.00  0.00    +0.000 A 
BRANCH  12  19
ATOM     18  C   UNL     1      -1.263  11.859  20.236  0.00  0.00    +0.000 C 
ATOM     19  O   UNL     1       0.119  11.618  20.491  0.00  0.00    +0.000 OA
ENDBRANCH  12  19
BRANCH  17  20
ATOM     20  O   UNL     1       0.838   9.309  22.160  0.00  0.00    +0.000 OA
ATOM     21  C   UNL     1      -0.472   9.055  22.627  0.00  0.00    +0.000 C 
ENDBRANCH  17  20
ENDBRANCH   1  15
BRANCH   8  22
ATOM     22  O   UNL     1       7.602   5.112  15.146  0.00  0.00    +0.000 OA
ATOM     23  C   UNL     1       7.505   4.982  13.735  0.00  0.00    +0.000 C 
ENDBRANCH   8  22
BRANCH   9  24
ATOM     24  O   UNL     1       6.780   7.358  16.575  0.00  0.00    +0.000 OA
ATOM     25  C   UNL     1       7.669   7.683  17.620  0.00  0.00    +0.000 C 
ENDBRANCH   9  24
TORSDOF 5
ENDMDL
MODEL 3
REMARK VINA RESULT:      -7.2      2.839      4.366
REMARK  Name = 
REMARK  9 active torsions:
REMARK  status: ('A' for Active; 'I' for Inactive)
REMARK    1  A    between atoms: C_1  and  O_2
REMARK    2  A    between atoms: O_2  and  C_3
REMARK    3  A    between atoms: C_6  and  C_7
REMARK    4  A    between atoms: C_14  and  O_15
REMARK    5  A    between atoms: O_15  and  C_16
REMARK    6  A    between atoms: C_17  and  O_18
REMARK    7  A    between atoms: O_18  and  C_19
REMARK    8  A    between atoms: C_23  and  O_24
REMARK    9  A    between atoms: O_24  and  C_25
REMARK                            x       y       z     vdW  Elec       q    Type
REMARK                         _______ _______ _______ _____ _____    ______ ____
ROOT
ATOM      1  C   UNL     1       1.448   8.332  20.266  0.00  0.00    +0.000 A 
ATOM      2  C   UNL     1       2.021   8.808  19.153  0.00  0.00    +0.000 A 
ATOM      3  C   UNL     1       2.451   7.883  18.135  0.00  0.00    +0.000 A 
ATOM      4  O   UNL     1       2.600   8.250  16.979  0.00  0.00    +0.000 OA
ATOM      5  C   UNL     1       2.739   6.538  18.605  0.00  0.00    +0.000 A 
ATOM      6  C   UNL     1       3.562   5.783  17.776  0.00  0.00    +0.000 A 
ATOM      7  C   UNL     1       3.998   4.555  18.211  0.00  0.00    +0.000 A 
ATOM      8  C   UNL     1       3.581   4.070  19.458  0.00  0.00    +0.000 A 
ATOM      9  C   UNL     1       2.695   4.816  20.293  0.00  0.00    +0.000 A 
ATOM     10  C   UNL     1       2.282   6.104  19.869  0.00  0.00    +0.000 A 
ATOM     11  O   UNL     1       1.475   6.962  20.629  0.00  0.00    +0.000 OA
ENDROOT
BRANCH   1  15
ATOM     12  C   UNL     1      -0.700  11.166  22.763  0.00  0.00    +0.000 A 
ATOM     13  C   UNL     1      -0.547   9.834  23.149  0.00  0.00    +0.000 A 
ATOM     14  C   UNL     1       0.240   8.967  22.395  0.00  0.00    +0.000 A 
ATOM     15  C   UNL     1       0.811   9.346  21.150  0.00  0.00    +0.000 A 
ATOM     16  C   UNL     1       0.707  10.695  20.810  0.00  0.00    +0.000 A 
ATOM     17  C   UNL     1      -0.049  11.597  21.587  0.00  0.00    +0.000 A 
BRANCH  12  19
ATOM     18  C   UNL     1      -2.856  12.087  23.223  0.00  0.00    +0.000 C 
ATOM     19  O   UNL     1      -1.455  12.050  23.484  0.00  0.00    +0.000 OA
ENDBRANCH  12  19
BRANCH  17  20
ATOM     20  O   UNL     1       0.004  12.865  21.067  0.00  0.00    +0.000 OA
ATOM     21  C   UNL     1      -0.883  13.196  20.016  0.00  0.00    +0.000 C 
ENDBRANCH  17  20
ENDBRANCH   1  15
BRANCH   8  22
ATOM     22  O   UNL     1       4.071   2.807  19.671  0.00  0.00    +0.000 OA
ATOM     23  C   UNL     1       3.678   1.790  18.761  0.00  0.00    +0.000 C 
ENDBRANCH   8  22
BRANCH   9  24
ATOM     24  O   UNL     1       2.369   4.137  21.432  0.00  0.00    +0.000 OA
ATOM     25  C   UNL     1       1.375   3.137  21.464  0.00  0.00    +0.000 C 
ENDBRANCH   9  24
TORSDOF 5
ENDMDL
MODEL 4
REMARK VINA RESULT:      -7.0      3.130      8.192
REMARK  Name = 
REMARK  9 active torsions:
REMARK  status: ('A' for Active; 'I' for Inactive)
REMARK    1  A    between atoms: C_1  and  O_2
REMARK    2  A    between atoms: O_2  and  C_3
REMARK    3  A    between atoms: C_6  and  C_7
REMARK    4  A    between atoms: C_14  and  O_15
REMARK    5  A    between atoms: O_15  and  C_16
REMARK    6  A    between atoms: C_17  and  O_18
REMARK    7  A    between atoms: O_18  and  C_19
REMARK    8  A    between atoms: C_23  and  O_24
REMARK    9  A    between atoms: O_24  and  C_25
REMARK                            x       y       z     vdW  Elec       q    Type
REMARK                         _______ _______ _______ _____ _____    ______ ____
ROOT
ATOM      1  C   UNL     1       2.067   7.557  19.498  0.00  0.00    +0.000 A 
ATOM      2  C   UNL     1       2.225   8.129  18.297  0.00  0.00    +0.000 A 
ATOM      3  C   UNL     1       1.964   9.538  18.151  0.00  0.00    +0.000 A 
ATOM      4  O   UNL     1       2.456  10.174  17.230  0.00  0.00    +0.000 OA
ATOM      5  C   UNL     1       1.048  10.101  19.129  0.00  0.00    +0.000 A 
ATOM      6  C   UNL     1       0.440  11.295  18.755  0.00  0.00    +0.000 A 
ATOM      7  C   UNL     1      -0.544  11.820  19.557  0.00  0.00    +0.000 A 
ATOM      8  C   UNL     1      -0.892  11.170  20.748  0.00  0.00    +0.000 A 
ATOM      9  C   UNL     1      -0.238   9.971  21.165  0.00  0.00    +0.000 A 
ATOM     10  C   UNL     1       0.744   9.400  20.317  0.00  0.00    +0.000 A 
ATOM     11  O   UNL     1       1.403   8.192  20.579  0.00  0.00    +0.000 OA
ENDROOT
BRANCH   1  15
ATOM     12  C   UNL     1       3.571   3.481  19.551  0.00  0.00    +0.000 A 
ATOM     13  C   UNL     1       4.377   4.544  19.141  0.00  0.00    +0.000 A 
ATOM     14  C   UNL     1       3.919   5.856  19.239  0.00  0.00    +0.000 A 
ATOM     15  C   UNL     1       2.588   6.169  19.627  0.00  0.00    +0.000 A 
ATOM     16  C   UNL     1       1.817   5.107  20.097  0.00  0.00    +0.000 A 
ATOM     17  C   UNL     1       2.284   3.776  20.048  0.00  0.00    +0.000 A 
BRANCH  12  19
ATOM     18  C   UNL     1       3.629   1.432  18.325  0.00  0.00    +0.000 C 
ATOM     19  O   UNL     1       3.992   2.182  19.483  0.00  0.00    +0.000 OA
ENDBRANCH  12  19
BRANCH  17  20
ATOM     20  O   UNL     1       1.362   2.907  20.574  0.00  0.00    +0.000 OA
ATOM     21  C   UNL     1       1.517   2.499  21.918  0.00  0.00    +0.000 C 
ENDBRANCH  17  20
ENDBRANCH   1  15
BRANCH   8  22
ATOM     22  O   UNL     1      -1.840  11.889  21.429  0.00  0.00    +0.000 OA
ATOM     23  C   UNL     1      -2.761  12.651  20.663  0.00  0.00    +0.000 C 
ENDBRANCH   8  22
BRANCH   9  24
ATOM     24  O   UNL     1      -0.686   9.538  22.381  0.00  0.00    +0.000 OA
ATOM     25  C   UNL     1       0.129   9.523  23.531  0.00  0.00    +0.000 C 
ENDBRANCH   9  24
TORSDOF 5
ENDMDL
MODEL 5
REMARK VINA RESULT:      -7.0      2.745      8.257
REMARK  Name = 
REMARK  9 active torsions:
REMARK  status: ('A' for Active; 'I' for Inactive)
REMARK    1  A    between atoms: C_1  and  O_2
REMARK    2  A    between atoms: O_2  and  C_3
REMARK    3  A    between atoms: C_6  and  C_7
REMARK    4  A    between atoms: C_14  and  O_15
REMARK    5  A    between atoms: O_15  and  C_16
REMARK    6  A    between atoms: C_17  and  O_18
REMARK    7  A    between atoms: O_18  and  C_19
REMARK    8  A    between atoms: C_23  and  O_24
REMARK    9  A    between atoms: O_24  and  C_25
REMARK                            x       y       z     vdW  Elec       q    Type
REMARK                         _______ _______ _______ _____ _____    ______ ____
ROOT
ATOM      1  C   UNL     1       2.130   8.063  19.068  0.00  0.00    +0.000 A 
ATOM      2  C   UNL     1       2.245   8.839  17.983  0.00  0.00    +0.000 A 
ATOM      3  C   UNL     1       1.931  10.242  18.087  0.00  0.00    +0.000 A 
ATOM      4  O   UNL     1       2.383  11.046  17.285  0.00  0.00    +0.000 OA
ATOM      5  C   UNL     1       1.012  10.590  19.159  0.00  0.00    +0.000 A 
ATOM      6  C   UNL     1       0.355  11.806  19.004  0.00  0.00    +0.000 A 
ATOM      7  C   UNL     1      -0.633  12.146  19.897  0.00  0.00    +0.000 A 
ATOM      8  C   UNL     1      -0.936  11.286  20.961  0.00  0.00    +0.000 A 
ATOM      9  C   UNL     1      -0.231  10.059  21.156  0.00  0.00    +0.000 A 
ATOM     10  C   UNL     1       0.755   9.683  20.210  0.00  0.00    +0.000 A 
ATOM     11  O   UNL     1       1.463   8.474  20.250  0.00  0.00    +0.000 OA
ENDROOT
BRANCH   1  15
ATOM     12  C   UNL     1       3.578   4.007  18.494  0.00  0.00    +0.000 A 
ATOM     13  C   UNL     1       3.828   5.004  17.550  0.00  0.00    +0.000 A 
ATOM     14  C   UNL     1       3.457   6.323  17.802  0.00  0.00    +0.000 A 
ATOM     15  C   UNL     1       2.704   6.695  18.948  0.00  0.00    +0.000 A 
ATOM     16  C   UNL     1       2.519   5.704  19.912  0.00  0.00    +0.000 A 
ATOM     17  C   UNL     1       2.929   4.372  19.692  0.00  0.00    +0.000 A 
BRANCH  12  19
ATOM     18  C   UNL     1       2.908   1.781  17.939  0.00  0.00    +0.000 C 
ATOM     19  O   UNL     1       3.939   2.704  18.287  0.00  0.00    +0.000 OA
ENDBRANCH  12  19
BRANCH  17  20
ATOM     20  O   UNL     1       2.656   3.583  20.780  0.00  0.00    +0.000 OA
ATOM     21  C   UNL     1       1.305   3.276  21.062  0.00  0.00    +0.000 C 
ENDBRANCH  17  20
ENDBRANCH   1  15
BRANCH   8  22
ATOM     22  O   UNL     1      -1.897  11.839  21.767  0.00  0.00    +0.000 OA
ATOM     23  C   UNL     1      -1.476  12.800  22.723  0.00  0.00    +0.000 C 
ENDBRANCH   8  22
BRANCH   9  24
ATOM     24  O   UNL     1      -0.641   9.405  22.282  0.00  0.00    +0.000 OA
ATOM     25  C   UNL     1       0.067   9.470  23.500  0.00  0.00    +0.000 C 
ENDBRANCH   9  24
TORSDOF 5
ENDMDL
MODEL 6
REMARK VINA RESULT:      -7.0      2.103      8.156
REMARK  Name = 
REMARK  9 active torsions:
REMARK  status: ('A' for Active; 'I' for Inactive)
REMARK    1  A    between atoms: C_1  and  O_2
REMARK    2  A    between atoms: O_2  and  C_3
REMARK    3  A    between atoms: C_6  and  C_7
REMARK    4  A    between atoms: C_14  and  O_15
REMARK    5  A    between atoms: O_15  and  C_16
REMARK    6  A    between atoms: C_17  and  O_18
REMARK    7  A    between atoms: O_18  and  C_19
REMARK    8  A    between atoms: C_23  and  O_24
REMARK    9  A    between atoms: O_24  and  C_25
REMARK                            x       y       z     vdW  Elec       q    Type
REMARK                         _______ _______ _______ _____ _____    ______ ____
ROOT
ATOM      1  C   UNL     1       2.047   7.766  19.234  0.00  0.00    +0.000 A 
ATOM      2  C   UNL     1       2.201   8.479  18.111  0.00  0.00    +0.000 A 
ATOM      3  C   UNL     1       1.961   9.900  18.143  0.00  0.00    +0.000 A 
ATOM      4  O   UNL     1       2.453  10.637  17.301  0.00  0.00    +0.000 OA
ATOM      5  C   UNL     1       1.066  10.351  19.196  0.00  0.00    +0.000 A 
ATOM      6  C   UNL     1       0.473  11.590  18.979  0.00  0.00    +0.000 A 
ATOM      7  C   UNL     1      -0.493  12.027  19.854  0.00  0.00    +0.000 A 
ATOM      8  C   UNL     1      -0.838  11.240  20.960  0.00  0.00    +0.000 A 
ATOM      9  C   UNL     1      -0.199   9.989  21.217  0.00  0.00    +0.000 A 
ATOM     10  C   UNL     1       0.763   9.513  20.292  0.00  0.00    +0.000 A 
ATOM     11  O   UNL     1       1.406   8.272  20.394  0.00  0.00    +0.000 OA
ENDROOT
BRANCH   1  15
ATOM     12  C   UNL     1       3.641   3.726  19.382  0.00  0.00    +0.000 A 
ATOM     13  C   UNL     1       2.527   4.093  20.140  0.00  0.00    +0.000 A 
ATOM     14  C   UNL     1       1.960   5.356  19.995  0.00  0.00    +0.000 A 
ATOM     15  C   UNL     1       2.547   6.365  19.184  0.00  0.00    +0.000 A 
ATOM     16  C   UNL     1       3.618   5.967  18.384  0.00  0.00    +0.000 A 
ATOM     17  C   UNL     1       4.176   4.675  18.485  0.00  0.00    +0.000 A 
BRANCH  12  19
ATOM     18  C   UNL     1       3.705   1.450  18.659  0.00  0.00    +0.000 C 
ATOM     19  O   UNL     1       4.218   2.491  19.488  0.00  0.00    +0.000 OA
ENDBRANCH  12  19
BRANCH  17  20
ATOM     20  O   UNL     1       5.207   4.509  17.595  0.00  0.00    +0.000 OA
ATOM     21  C   UNL     1       4.890   4.155  16.263  0.00  0.00    +0.000 C 
ENDBRANCH  17  20
ENDBRANCH   1  15
BRANCH   8  22
ATOM     22  O   UNL     1      -1.767  11.883  21.737  0.00  0.00    +0.000 OA
ATOM     23  C   UNL     1      -1.292  12.860  22.652  0.00  0.00    +0.000 C 
ENDBRANCH   8  22
BRANCH   9  24
ATOM     24  O   UNL     1      -0.640   9.416  22.375  0.00  0.00    +0.000 OA
ATOM     25  C   UNL     1       0.090   9.475  23.580  0.00  0.00    +0.000 C 
ENDBRANCH   9  24
TORSDOF 5
ENDMDL
MODEL 7
REMARK VINA RESULT:      -7.0      2.422      8.932
REMARK  Name = 
REMARK  9 active torsions:
REMARK  status: ('A' for Active; 'I' for Inactive)
REMARK    1  A    between atoms: C_1  and  O_2
REMARK    2  A    between atoms: O_2  and  C_3
REMARK    3  A    between atoms: C_6  and  C_7
REMARK    4  A    between atoms: C_14  and  O_15
REMARK    5  A    between atoms: O_15  and  C_16
REMARK    6  A    between atoms: C_17  and  O_18
REMARK    7  A    between atoms: O_18  and  C_19
REMARK    8  A    between atoms: C_23  and  O_24
REMARK    9  A    between atoms: O_24  and  C_25
REMARK                            x       y       z     vdW  Elec       q    Type
REMARK                         _______ _______ _______ _____ _____    ______ ____
ROOT
ATOM      1  C   UNL     1       0.938   8.935  20.560  0.00  0.00    +0.000 A 
ATOM      2  C   UNL     1       1.220   9.054  21.864  0.00  0.00    +0.000 A 
ATOM      3  C   UNL     1       0.299   9.758  22.720  0.00  0.00    +0.000 A 
ATOM      4  O   UNL     1       0.290   9.561  23.926  0.00  0.00    +0.000 OA
ATOM      5  C   UNL     1      -0.547  10.731  22.048  0.00  0.00    +0.000 A 
ATOM      6  C   UNL     1      -1.092  11.711  22.871  0.00  0.00    +0.000 A 
ATOM      7  C   UNL     1      -1.786  12.750  22.299  0.00  0.00    +0.000 A 
ATOM      8  C   UNL     1      -1.964  12.786  20.910  0.00  0.00    +0.000 A 
ATOM      9  C   UNL     1      -1.451  11.757  20.062  0.00  0.00    +0.000 A 
ATOM     10  C   UNL     1      -0.693  10.710  20.644  0.00  0.00    +0.000 A 
ATOM     11  O   UNL     1      -0.078   9.685  19.913  0.00  0.00    +0.000 OA
ENDROOT
BRANCH   1  15
ATOM     12  C   UNL     1       3.201   6.136  18.126  0.00  0.00    +0.000 A 
ATOM     13  C   UNL     1       2.936   7.431  17.681  0.00  0.00    +0.000 A 
ATOM     14  C   UNL     1       2.310   8.352  18.518  0.00  0.00    +0.000 A 
ATOM     15  C   UNL     1       1.799   7.993  19.795  0.00  0.00    +0.000 A 
ATOM     16  C   UNL     1       2.128   6.718  20.254  0.00  0.00    +0.000 A 
ATOM     17  C   UNL     1       2.803   5.788  19.435  0.00  0.00    +0.000 A 
BRANCH  12  19
ATOM     18  C   UNL     1       5.251   5.197  17.335  0.00  0.00    +0.000 C 
ATOM     19  O   UNL     1       3.825   5.209  17.338  0.00  0.00    +0.000 OA
ENDBRANCH  12  19
BRANCH  17  20
ATOM     20  O   UNL     1       3.028   4.611  20.102  0.00  0.00    +0.000 OA
ATOM     21  C   UNL     1       2.111   4.225  21.107  0.00  0.00    +0.000 C 
ENDBRANCH  17  20
ENDBRANCH   1  15
BRANCH   8  22
ATOM     22  O   UNL     1      -2.737  13.861  20.552  0.00  0.00    +0.000 OA
ATOM     23  C   UNL     1      -4.109  13.831  20.916  0.00  0.00    +0.000 C 
ENDBRANCH   8  22
BRANCH   9  24
ATOM     24  O   UNL     1      -1.788  11.955  18.753  0.00  0.00    +0.000 OA
ATOM     25  C   UNL     1      -2.873  11.297  18.138  0.00  0.00    +0.000 C 
ENDBRANCH   9  24
TORSDOF 5
ENDMDL
MODEL 8
REMARK VINA RESULT:      -6.9      1.642      2.325
REMARK  Name = 
REMARK  9 active torsions:
REMARK  status: ('A' for Active; 'I' for Inactive)
REMARK    1  A    between atoms: C_1  and  O_2
REMARK    2  A    between atoms: O_2  and  C_3
REMARK    3  A    between atoms: C_6  and  C_7
REMARK    4  A    between atoms: C_14  and  O_15
REMARK    5  A    between atoms: O_15  and  C_16
REMARK    6  A    between atoms: C_17  and  O_18
REMARK    7  A    between atoms: O_18  and  C_19
REMARK    8  A    between atoms: C_23  and  O_24
REMARK    9  A    between atoms: O_24  and  C_25
REMARK                            x       y       z     vdW  Elec       q    Type
REMARK                         _______ _______ _______ _____ _____    ______ ____
ROOT
ATOM      1  C   UNL     1       1.970   7.083  20.158  0.00  0.00    +0.000 A 
ATOM      2  C   UNL     1       1.446   5.970  20.687  0.00  0.00    +0.000 A 
ATOM      3  C   UNL     1       2.116   4.711  20.479  0.00  0.00    +0.000 A 
ATOM      4  O   UNL     1       1.928   3.769  21.235  0.00  0.00    +0.000 OA
ATOM      5  C   UNL     1       2.959   4.649  19.296  0.00  0.00    +0.000 A 
ATOM      6  C   UNL     1       3.237   3.367  18.832  0.00  0.00    +0.000 A 
ATOM      7  C   UNL     1       3.907   3.221  17.641  0.00  0.00    +0.000 A 
ATOM      8  C   UNL     1       4.327   4.356  16.936  0.00  0.00    +0.000 A 
ATOM      9  C   UNL     1       4.090   5.675  17.429  0.00  0.00    +0.000 A 
ATOM     10  C   UNL     1       3.357   5.830  18.633  0.00  0.00    +0.000 A 
ATOM     11  O   UNL     1       2.998   7.069  19.181  0.00  0.00    +0.000 OA
ENDROOT
BRANCH   1  15
ATOM     12  C   UNL     1      -0.065  10.658  21.554  0.00  0.00    +0.000 A 
ATOM     13  C   UNL     1       0.351   9.668  22.446  0.00  0.00    +0.000 A 
ATOM     14  C   UNL     1       1.102   8.585  21.997  0.00  0.00    +0.000 A 
ATOM     15  C   UNL     1       1.368   8.364  20.618  0.00  0.00    +0.000 A 
ATOM     16  C   UNL     1       1.005   9.391  19.747  0.00  0.00    +0.000 A 
ATOM     17  C   UNL     1       0.283  10.518  20.194  0.00  0.00    +0.000 A 
BRANCH  12  19
ATOM     18  C   UNL     1      -1.689  11.563  23.056  0.00  0.00    +0.000 C 
ATOM     19  O   UNL     1      -0.794  11.743  21.960  0.00  0.00    +0.000 OA
ENDBRANCH  12  19
BRANCH  17  20
ATOM     20  O   UNL     1       0.051  11.397  19.167  0.00  0.00    +0.000 OA
ATOM     21  C   UNL     1      -1.135  11.247  18.412  0.00  0.00    +0.000 C 
ENDBRANCH  17  20
ENDBRANCH   1  15
BRANCH   8  22
ATOM     22  O   UNL     1       5.030   3.992  15.816  0.00  0.00    +0.000 OA
ATOM     23  C   UNL     1       6.441   3.892  15.934  0.00  0.00    +0.000 C 
ENDBRANCH   8  22
BRANCH   9  24
ATOM     24  O   UNL     1       4.633   6.631  16.620  0.00  0.00    +0.000 OA
ATOM     25  C   UNL     1       5.839   7.294  16.928  0.00  0.00    +0.000 C 
ENDBRANCH   9  24
TORSDOF 5
ENDMDL
MODEL 9
REMARK VINA RESULT:      -6.8      1.241      7.592
REMARK  Name = 
REMARK  9 active torsions:
REMARK  status: ('A' for Active; 'I' for Inactive)
REMARK    1  A    between atoms: C_1  and  O_2
REMARK    2  A    between atoms: O_2  and  C_3
REMARK    3  A    between atoms: C_6  and  C_7
REMARK    4  A    between atoms: C_14  and  O_15
REMARK    5  A    between atoms: O_15  and  C_16
REMARK    6  A    between atoms: C_17  and  O_18
REMARK    7  A    between atoms: O_18  and  C_19
REMARK    8  A    between atoms: C_23  and  O_24
REMARK    9  A    between atoms: O_24  and  C_25
REMARK                            x       y       z     vdW  Elec       q    Type
REMARK                         _______ _______ _______ _____ _____    ______ ____
ROOT
ATOM      1  C   UNL     1       3.365   6.628  18.453  0.00  0.00    +0.000 A 
ATOM      2  C   UNL     1       3.271   5.897  19.572  0.00  0.00    +0.000 A 
ATOM      3  C   UNL     1       2.131   6.079  20.435  0.00  0.00    +0.000 A 
ATOM      4  O   UNL     1       1.791   5.203  21.217  0.00  0.00    +0.000 OA
ATOM      5  C   UNL     1       1.482   7.376  20.335  0.00  0.00    +0.000 A 
ATOM      6  C   UNL     1       0.707   7.738  21.431  0.00  0.00    +0.000 A 
ATOM      7  C   UNL     1       0.174   9.003  21.481  0.00  0.00    +0.000 A 
ATOM      8  C   UNL     1       0.389   9.891  20.419  0.00  0.00    +0.000 A 
ATOM      9  C   UNL     1       1.142   9.511  19.267  0.00  0.00    +0.000 A 
ATOM     10  C   UNL     1       1.733   8.223  19.233  0.00  0.00    +0.000 A 
ATOM     11  O   UNL     1       2.552   7.760  18.194  0.00  0.00    +0.000 OA
ENDROOT
BRANCH   1  15
ATOM     12  C   UNL     1       6.530   5.164  15.860  0.00  0.00    +0.000 A 
ATOM     13  C   UNL     1       5.286   4.532  15.912  0.00  0.00    +0.000 A 
ATOM     14  C   UNL     1       4.247   5.079  16.659  0.00  0.00    +0.000 A 
ATOM     15  C   UNL     1       4.428   6.213  17.498  0.00  0.00    +0.000 A 
ATOM     16  C   UNL     1       5.652   6.872  17.387  0.00  0.00    +0.000 A 
ATOM     17  C   UNL     1       6.701   6.355  16.597  0.00  0.00    +0.000 A 
BRANCH  12  19
ATOM     18  C   UNL     1       7.553   4.887  13.719  0.00  0.00    +0.000 C 
ATOM     19  O   UNL     1       7.570   4.663  15.127  0.00  0.00    +0.000 OA
ENDBRANCH  12  19
BRANCH  17  20
ATOM     20  O   UNL     1       7.799   7.177  16.632  0.00  0.00    +0.000 OA
ATOM     21  C   UNL     1       7.818   8.229  17.575  0.00  0.00    +0.000 C 
ENDBRANCH  17  20
ENDBRANCH   1  15
BRANCH   8  22
ATOM     22  O   UNL     1      -0.279  11.069  20.634  0.00  0.00    +0.000 OA
ATOM     23  C   UNL     1      -0.133  11.682  21.906  0.00  0.00    +0.000 C 
ENDBRANCH   8  22
BRANCH   9  24
ATOM     24  O   UNL     1       1.179  10.503  18.328  0.00  0.00    +0.000 OA
ATOM     25  C   UNL     1       2.212  11.461  18.273  0.00  0.00    +0.000 C 
ENDBRANCH   9  24
TORSDOF 5
ENDMDL
