MODEL 1
REMARK VINA RESULT:      -8.2      0.000      0.000
REMARK  Name = 
REMARK  3 active torsions:
REMARK  status: ('A' for Active; 'I' for Inactive)
REMARK    1  A    between atoms: C_2  and  C_4
REMARK    2  A    between atoms: C_7  and  N_8
REMARK    3  A    between atoms: C_9  and  C_11
REMARK                            x       y       z     vdW  Elec       q    Type
REMARK                         _______ _______ _______ _____ _____    ______ ____
ROOT
ATOM      1  N   UNL     1       1.574   8.446  20.601  0.00  0.00    +0.000 N 
ATOM      2  C   UNL     1       1.776   8.301  19.242  0.00  0.00    +0.000 C 
ATOM      3  O   UNL     1       1.356   9.096  18.397  0.00  0.00    +0.000 OA
ATOM      4  H   UNL     1       2.097   7.830  21.225  0.00  0.00    +0.000 HD
ENDROOT
BRANCH   2   5
ATOM      5  C   UNL     1       2.581   7.130  18.789  0.00  0.00    +0.000 A 
ATOM      6  C   UNL     1       3.363   7.350  17.718  0.00  0.00    +0.000 A 
ATOM      7  C   UNL     1       4.158   6.286  17.143  0.00  0.00    +0.000 A 
ATOM      8  C   UNL     1       5.069   6.524  16.113  0.00  0.00    +0.000 A 
ATOM      9  C   UNL     1       5.765   5.458  15.543  0.00  0.00    +0.000 A 
ATOM     10  C   UNL     1       5.532   4.153  15.985  0.00  0.00    +0.000 A 
ATOM     11  C   UNL     1       4.630   3.913  17.024  0.00  0.00    +0.000 A 
ATOM     12  C   UNL     1       3.970   4.990  17.609  0.00  0.00    +0.000 A 
ATOM     13  O   UNL     1       3.137   4.747  18.719  0.00  0.00    +0.000 OA
ATOM     14  C   UNL     1       2.547   5.800  19.423  0.00  0.00    +0.000 A 
ATOM     15  O   UNL     1       2.002   5.622  20.510  0.00  0.00    +0.000 OA
ENDBRANCH   2   5
BRANCH   1  19
ATOM     16  C   UNL     1      -0.708  11.467  22.510  0.00  0.00    +0.000 A 
ATOM     17  C   UNL     1       0.074  11.787  21.402  0.00  0.00    +0.000 A 
ATOM     18  C   UNL     1       0.810  10.791  20.753  0.00  0.00    +0.000 A 
ATOM     19  C   UNL     1       0.791   9.464  21.198  0.00  0.00    +0.000 A 
ATOM     20  C   UNL     1      -0.038   9.134  22.274  0.00  0.00    +0.000 A 
ATOM     21  C   UNL     1      -0.776  10.131  22.932  0.00  0.00    +0.000 A 
BRANCH  16  23
ATOM     22  O   UNL     1      -0.845  13.521  23.600  0.00  0.00    +0.000 OA
ATOM     23  C   UNL     1      -1.468  12.520  23.249  0.00  0.00    +0.000 C 
ATOM     24 CL   UNL     1      -3.181  12.299  23.548  0.00  0.00    +0.000 Cl
ENDBRANCH  16  23
ENDBRANCH   1  19
TORSDOF 3
ENDMDL
MODEL 2
REMARK VINA RESULT:      -8.2      0.200      1.022
REMARK  Name = 
REMARK  3 active torsions:
REMARK  status: ('A' for Active; 'I' for Inactive)
REMARK    1  A    between atoms: C_2  and  C_4
REMARK    2  A    between atoms: C_7  and  N_8
REMARK    3  A    between atoms: C_9  and  C_11
REMARK                            x       y       z     vdW  Elec       q    Type
REMARK                         _______ _______ _______ _____ _____    ______ ____
ROOT
ATOM      1  N   UNL     1       1.599   8.301  20.781  0.00  0.00    +0.000 N 
ATOM      2  C   UNL     1       1.815   8.224  19.417  0.00  0.00    +0.000 C 
ATOM      3  O   UNL     1       1.448   9.086  18.615  0.00  0.00    +0.000 OA
ATOM      4  H   UNL     1       2.082   7.625  21.374  0.00  0.00    +0.000 HD
ENDROOT
BRANCH   2   5
ATOM      5  C   UNL     1       2.568   7.042  18.908  0.00  0.00    +0.000 A 
ATOM      6  C   UNL     1       3.366   7.280  17.854  0.00  0.00    +0.000 A 
ATOM      7  C   UNL     1       4.114   6.211  17.227  0.00  0.00    +0.000 A 
ATOM      8  C   UNL     1       5.042   6.459  16.215  0.00  0.00    +0.000 A 
ATOM      9  C   UNL     1       5.692   5.392  15.593  0.00  0.00    +0.000 A 
ATOM     10  C   UNL     1       5.395   4.078  15.965  0.00  0.00    +0.000 A 
ATOM     11  C   UNL     1       4.476   3.828  16.986  0.00  0.00    +0.000 A 
ATOM     12  C   UNL     1       3.863   4.903  17.624  0.00  0.00    +0.000 A 
ATOM     13  O   UNL     1       3.012   4.642  18.717  0.00  0.00    +0.000 OA
ATOM     14  C   UNL     1       2.467   5.683  19.471  0.00  0.00    +0.000 A 
ATOM     15  O   UNL     1       1.907   5.476  20.545  0.00  0.00    +0.000 OA
ENDBRANCH   2   5
BRANCH   1  19
ATOM     16  C   UNL     1      -0.680  11.385  22.589  0.00  0.00    +0.000 A 
ATOM     17  C   UNL     1      -0.706  10.099  23.127  0.00  0.00    +0.000 A 
ATOM     18  C   UNL     1       0.061   9.083  22.550  0.00  0.00    +0.000 A 
ATOM     19  C   UNL     1       0.859   9.322  21.425  0.00  0.00    +0.000 A 
ATOM     20  C   UNL     1       0.929  10.625  20.922  0.00  0.00    +0.000 A 
ATOM     21  C   UNL     1       0.157  11.648  21.495  0.00  0.00    +0.000 A 
BRANCH  16  23
ATOM     22  O   UNL     1      -0.943  13.465  23.603  0.00  0.00    +0.000 OA
ATOM     23  C   UNL     1      -1.526  12.477  23.159  0.00  0.00    +0.000 C 
ATOM     24 CL   UNL     1      -3.271  12.316  23.140  0.00  0.00    +0.000 Cl
ENDBRANCH  16  23
ENDBRANCH   1  19
TORSDOF 3
ENDMDL
MODEL 3
REMARK VINA RESULT:      -8.1      3.852      8.772
REMARK  Name = 
REMARK  3 active torsions:
REMARK  status: ('A' for Active; 'I' for Inactive)
REMARK    1  A    between atoms: C_2  and  C_4
REMARK    2  A    between atoms: C_7  and  N_8
REMARK    3  A    between atoms: C_9  and  C_11
REMARK                            x       y       z     vdW  Elec       q    Type
REMARK                         _______ _______ _______ _____ _____    ______ ____
ROOT
ATOM      1  N   UNL     1       3.016   6.806  18.549  0.00  0.00    +0.000 N 
ATOM      2  C   UNL     1       2.280   7.971  18.436  0.00  0.00    +0.000 C 
ATOM      3  O   UNL     1       2.215   8.644  17.405  0.00  0.00    +0.000 OA
ATOM      4  H   UNL     1       2.874   6.237  19.385  0.00  0.00    +0.000 HD
ENDROOT
BRANCH   2   5
ATOM      5  C   UNL     1       1.497   8.405  19.629  0.00  0.00    +0.000 A 
ATOM      6  C   UNL     1       0.940   9.624  19.537  0.00  0.00    +0.000 A 
ATOM      7  C   UNL     1       0.196  10.191  20.642  0.00  0.00    +0.000 A 
ATOM      8  C   UNL     1      -0.494  11.397  20.521  0.00  0.00    +0.000 A 
ATOM      9  C   UNL     1      -1.142  11.940  21.632  0.00  0.00    +0.000 A 
ATOM     10  C   UNL     1      -1.078  11.289  22.867  0.00  0.00    +0.000 A 
ATOM     11  C   UNL     1      -0.398  10.076  22.987  0.00  0.00    +0.000 A 
ATOM     12  C   UNL     1       0.212   9.527  21.863  0.00  0.00    +0.000 A 
ATOM     13  O   UNL     1       0.811   8.256  21.974  0.00  0.00    +0.000 OA
ATOM     14  C   UNL     1       1.330   7.603  20.854  0.00  0.00    +0.000 A 
ATOM     15  O   UNL     1       1.654   6.418  20.892  0.00  0.00    +0.000 OA
ENDBRANCH   2   5
BRANCH   1  19
ATOM     16  C   UNL     1       5.640   5.288  15.584  0.00  0.00    +0.000 A 
ATOM     17  C   UNL     1       4.807   4.416  16.284  0.00  0.00    +0.000 A 
ATOM     18  C   UNL     1       3.922   4.912  17.245  0.00  0.00    +0.000 A 
ATOM     19  C   UNL     1       3.856   6.279  17.537  0.00  0.00    +0.000 A 
ATOM     20  C   UNL     1       4.649   7.158  16.795  0.00  0.00    +0.000 A 
ATOM     21  C   UNL     1       5.542   6.665  15.831  0.00  0.00    +0.000 A 
BRANCH  16  23
ATOM     22  O   UNL     1       7.778   5.202  14.665  0.00  0.00    +0.000 OA
ATOM     23  C   UNL     1       6.626   4.779  14.584  0.00  0.00    +0.000 C 
ATOM     24 CL   UNL     1       6.114   3.605  13.388  0.00  0.00    +0.000 Cl
ENDBRANCH  16  23
ENDBRANCH   1  19
TORSDOF 3
ENDMDL
MODEL 4
REMARK VINA RESULT:      -8.1      3.840      8.721
REMARK  Name = 
REMARK  3 active torsions:
REMARK  status: ('A' for Active; 'I' for Inactive)
REMARK    1  A    between atoms: C_2  and  C_4
REMARK    2  A    between atoms: C_7  and  N_8
REMARK    3  A    between atoms: C_9  and  C_11
REMARK                            x       y       z     vdW  Elec       q    Type
REMARK                         _______ _______ _______ _____ _____    ______ ____
ROOT
ATOM      1  N   UNL     1       3.183   6.866  18.598  0.00  0.00    +0.000 N 
ATOM      2  C   UNL     1       2.397   7.993  18.449  0.00  0.00    +0.000 C 
ATOM      3  O   UNL     1       2.330   8.651  17.406  0.00  0.00    +0.000 OA
ATOM      4  H   UNL     1       3.044   6.302  19.437  0.00  0.00    +0.000 HD
ENDROOT
BRANCH   2   5
ATOM      5  C   UNL     1       1.560   8.404  19.612  0.00  0.00    +0.000 A 
ATOM      6  C   UNL     1       1.017   9.631  19.525  0.00  0.00    +0.000 A 
ATOM      7  C   UNL     1       0.225  10.175  20.607  0.00  0.00    +0.000 A 
ATOM      8  C   UNL     1      -0.449  11.391  20.483  0.00  0.00    +0.000 A 
ATOM      9  C   UNL     1      -1.147  11.911  21.575  0.00  0.00    +0.000 A 
ATOM     10  C   UNL     1      -1.148  11.228  22.795  0.00  0.00    +0.000 A 
ATOM     11  C   UNL     1      -0.484  10.006  22.917  0.00  0.00    +0.000 A 
ATOM     12  C   UNL     1       0.176   9.480  21.809  0.00  0.00    +0.000 A 
ATOM     13  O   UNL     1       0.759   8.202  21.916  0.00  0.00    +0.000 OA
ATOM     14  C   UNL     1       1.326   7.573  20.806  0.00  0.00    +0.000 A 
ATOM     15  O   UNL     1       1.640   6.384  20.830  0.00  0.00    +0.000 OA
ENDBRANCH   2   5
BRANCH   1  19
ATOM     16  C   UNL     1       5.746   5.336  15.586  0.00  0.00    +0.000 A 
ATOM     17  C   UNL     1       5.878   6.661  15.999  0.00  0.00    +0.000 A 
ATOM     18  C   UNL     1       5.052   7.165  17.009  0.00  0.00    +0.000 A 
ATOM     19  C   UNL     1       4.076   6.368  17.617  0.00  0.00    +0.000 A 
ATOM     20  C   UNL     1       3.984   5.025  17.242  0.00  0.00    +0.000 A 
ATOM     21  C   UNL     1       4.807   4.514  16.227  0.00  0.00    +0.000 A 
BRANCH  16  23
ATOM     22  O   UNL     1       7.758   5.150  14.429  0.00  0.00    +0.000 OA
ATOM     23  C   UNL     1       6.584   4.787  14.479  0.00  0.00    +0.000 C 
ATOM     24 CL   UNL     1       5.879   3.651  13.344  0.00  0.00    +0.000 Cl
ENDBRANCH  16  23
ENDBRANCH   1  19
TORSDOF 3
ENDMDL
MODEL 5
REMARK VINA RESULT:      -7.6      1.708      2.120
REMARK  Name = 
REMARK  3 active torsions:
REMARK  status: ('A' for Active; 'I' for Inactive)
REMARK    1  A    between atoms: C_2  and  C_4
REMARK    2  A    between atoms: C_7  and  N_8
REMARK    3  A    between atoms: C_9  and  C_11
REMARK                            x       y       z     vdW  Elec       q    Type
REMARK                         _______ _______ _______ _____ _____    ______ ____
ROOT
ATOM      1  N   UNL     1       1.961   7.960  19.637  0.00  0.00    +0.000 N 
ATOM      2  C   UNL     1       2.097   6.602  19.857  0.00  0.00    +0.000 C 
ATOM      3  O   UNL     1       1.444   5.973  20.694  0.00  0.00    +0.000 OA
ATOM      4  H   UNL     1       2.423   8.353  18.816  0.00  0.00    +0.000 HD
ENDROOT
BRANCH   2   5
ATOM      5  C   UNL     1       3.069   5.863  19.002  0.00  0.00    +0.000 A 
ATOM      6  C   UNL     1       4.364   6.053  19.307  0.00  0.00    +0.000 A 
ATOM      7  C   UNL     1       5.414   5.437  18.524  0.00  0.00    +0.000 A 
ATOM      8  C   UNL     1       6.756   5.521  18.900  0.00  0.00    +0.000 A 
ATOM      9  C   UNL     1       7.741   4.969  18.081  0.00  0.00    +0.000 A 
ATOM     10  C   UNL     1       7.388   4.357  16.875  0.00  0.00    +0.000 A 
ATOM     11  C   UNL     1       6.045   4.261  16.503  0.00  0.00    +0.000 A 
ATOM     12  C   UNL     1       5.069   4.783  17.348  0.00  0.00    +0.000 A 
ATOM     13  O   UNL     1       3.714   4.595  17.010  0.00  0.00    +0.000 OA
ATOM     14  C   UNL     1       2.693   4.987  17.878  0.00  0.00    +0.000 A 
ATOM     15  O   UNL     1       1.528   4.638  17.701  0.00  0.00    +0.000 OA
ENDBRANCH   2   5
BRANCH   1  19
ATOM     16  C   UNL     1      -0.422  10.587  21.960  0.00  0.00    +0.000 A 
ATOM     17  C   UNL     1      -0.503  10.627  20.569  0.00  0.00    +0.000 A 
ATOM     18  C   UNL     1       0.261   9.747  19.797  0.00  0.00    +0.000 A 
ATOM     19  C   UNL     1       1.127   8.821  20.391  0.00  0.00    +0.000 A 
ATOM     20  C   UNL     1       1.164   8.744  21.786  0.00  0.00    +0.000 A 
ATOM     21  C   UNL     1       0.401   9.627  22.566  0.00  0.00    +0.000 A 
BRANCH  16  23
ATOM     22  O   UNL     1      -2.106  11.085  23.490  0.00  0.00    +0.000 OA
ATOM     23  C   UNL     1      -1.194  11.546  22.806  0.00  0.00    +0.000 C 
ATOM     24 CL   UNL     1      -0.754  13.243  22.807  0.00  0.00    +0.000 Cl
ENDBRANCH  16  23
ENDBRANCH   1  19
TORSDOF 3
ENDMDL
MODEL 6
REMARK VINA RESULT:      -7.6      1.509      1.771
REMARK  Name = 
REMARK  3 active torsions:
REMARK  status: ('A' for Active; 'I' for Inactive)
REMARK    1  A    between atoms: C_2  and  C_4
REMARK    2  A    between atoms: C_7  and  N_8
REMARK    3  A    between atoms: C_9  and  C_11
REMARK                            x       y       z     vdW  Elec       q    Type
REMARK                         _______ _______ _______ _____ _____    ______ ____
ROOT
ATOM      1  N   UNL     1       2.099   7.770  19.587  0.00  0.00    +0.000 N 
ATOM      2  C   UNL     1       2.160   6.407  19.809  0.00  0.00    +0.000 C 
ATOM      3  O   UNL     1       1.448   5.811  20.622  0.00  0.00    +0.000 OA
ATOM      4  H   UNL     1       2.608   8.140  18.783  0.00  0.00    +0.000 HD
ENDROOT
BRANCH   2   5
ATOM      5  C   UNL     1       3.122   5.620  18.985  0.00  0.00    +0.000 A 
ATOM      6  C   UNL     1       3.608   6.256  17.905  0.00  0.00    +0.000 A 
ATOM      7  C   UNL     1       4.511   5.591  16.990  0.00  0.00    +0.000 A 
ATOM      8  C   UNL     1       5.122   6.272  15.937  0.00  0.00    +0.000 A 
ATOM      9  C   UNL     1       5.933   5.576  15.039  0.00  0.00    +0.000 A 
ATOM     10  C   UNL     1       6.111   4.197  15.180  0.00  0.00    +0.000 A 
ATOM     11  C   UNL     1       5.511   3.516  16.241  0.00  0.00    +0.000 A 
ATOM     12  C   UNL     1       4.734   4.229  17.151  0.00  0.00    +0.000 A 
ATOM     13  O   UNL     1       4.214   3.549  18.271  0.00  0.00    +0.000 OA
ATOM     14  C   UNL     1       3.533   4.235  19.278  0.00  0.00    +0.000 A 
ATOM     15  O   UNL     1       3.267   3.703  20.353  0.00  0.00    +0.000 OA
ENDBRANCH   2   5
BRANCH   1  19
ATOM     16  C   UNL     1      -0.226  10.512  21.835  0.00  0.00    +0.000 A 
ATOM     17  C   UNL     1      -0.251  10.563  20.442  0.00  0.00    +0.000 A 
ATOM     18  C   UNL     1       0.494   9.646  19.694  0.00  0.00    +0.000 A 
ATOM     19  C   UNL     1       1.284   8.672  20.314  0.00  0.00    +0.000 A 
ATOM     20  C   UNL     1       1.263   8.585  21.709  0.00  0.00    +0.000 A 
ATOM     21  C   UNL     1       0.519   9.505  22.465  0.00  0.00    +0.000 A 
BRANCH  16  23
ATOM     22  O   UNL     1      -1.836  11.071  23.422  0.00  0.00    +0.000 OA
ATOM     23  C   UNL     1      -0.977  11.508  22.657  0.00  0.00    +0.000 C 
ATOM     24 CL   UNL     1      -0.588  13.211  22.518  0.00  0.00    +0.000 Cl
ENDBRANCH  16  23
ENDBRANCH   1  19
TORSDOF 3
ENDMDL
MODEL 7
REMARK VINA RESULT:      -7.5      1.450      1.994
REMARK  Name = 
REMARK  3 active torsions:
REMARK  status: ('A' for Active; 'I' for Inactive)
REMARK    1  A    between atoms: C_2  and  C_4
REMARK    2  A    between atoms: C_7  and  N_8
REMARK    3  A    between atoms: C_9  and  C_11
REMARK                            x       y       z     vdW  Elec       q    Type
REMARK                         _______ _______ _______ _____ _____    ______ ____
ROOT
ATOM      1  N   UNL     1       2.233   7.719  19.469  0.00  0.00    +0.000 N 
ATOM      2  C   UNL     1       2.282   6.359  19.713  0.00  0.00    +0.000 C 
ATOM      3  O   UNL     1       1.581   5.787  20.552  0.00  0.00    +0.000 OA
ATOM      4  H   UNL     1       2.729   8.069  18.648  0.00  0.00    +0.000 HD
ENDROOT
BRANCH   2   5
ATOM      5  C   UNL     1       3.215   5.547  18.881  0.00  0.00    +0.000 A 
ATOM      6  C   UNL     1       3.710   6.169  17.798  0.00  0.00    +0.000 A 
ATOM      7  C   UNL     1       4.587   5.480  16.875  0.00  0.00    +0.000 A 
ATOM      8  C   UNL     1       5.210   6.144  15.818  0.00  0.00    +0.000 A 
ATOM      9  C   UNL     1       5.993   5.427  14.913  0.00  0.00    +0.000 A 
ATOM     10  C   UNL     1       6.133   4.043  15.052  0.00  0.00    +0.000 A 
ATOM     11  C   UNL     1       5.521   3.378  16.116  0.00  0.00    +0.000 A 
ATOM     12  C   UNL     1       4.772   4.112  17.033  0.00  0.00    +0.000 A 
ATOM     13  O   UNL     1       4.240   3.446  18.155  0.00  0.00    +0.000 OA
ATOM     14  C   UNL     1       3.588   4.150  19.169  0.00  0.00    +0.000 A 
ATOM     15  O   UNL     1       3.313   3.623  20.245  0.00  0.00    +0.000 OA
ENDBRANCH   2   5
BRANCH   1  19
ATOM     16  C   UNL     1      -0.230  10.452  21.577  0.00  0.00    +0.000 A 
ATOM     17  C   UNL     1       0.468   9.468  22.275  0.00  0.00    +0.000 A 
ATOM     18  C   UNL     1       1.301   8.579  21.590  0.00  0.00    +0.000 A 
ATOM     19  C   UNL     1       1.447   8.644  20.199  0.00  0.00    +0.000 A 
ATOM     20  C   UNL     1       0.792   9.666  19.507  0.00  0.00    +0.000 A 
ATOM     21  C   UNL     1      -0.048  10.559  20.190  0.00  0.00    +0.000 A 
BRANCH  16  23
ATOM     22  O   UNL     1      -1.061  11.462  23.503  0.00  0.00    +0.000 OA
ATOM     23  C   UNL     1      -1.161  11.385  22.280  0.00  0.00    +0.000 C 
ATOM     24 CL   UNL     1      -2.307  12.328  21.346  0.00  0.00    +0.000 Cl
ENDBRANCH  16  23
ENDBRANCH   1  19
TORSDOF 3
ENDMDL
MODEL 8
REMARK VINA RESULT:      -7.4      3.726      8.697
REMARK  Name = 
REMARK  3 active torsions:
REMARK  status: ('A' for Active; 'I' for Inactive)
REMARK    1  A    between atoms: C_2  and  C_4
REMARK    2  A    between atoms: C_7  and  N_8
REMARK    3  A    between atoms: C_9  and  C_11
REMARK                            x       y       z     vdW  Elec       q    Type
REMARK                         _______ _______ _______ _____ _____    ______ ____
ROOT
ATOM      1  N   UNL     1       2.479   7.448  18.845  0.00  0.00    +0.000 N 
ATOM      2  C   UNL     1       1.828   8.600  18.448  0.00  0.00    +0.000 C 
ATOM      3  O   UNL     1       1.906   9.076  17.312  0.00  0.00    +0.000 OA
ATOM      4  H   UNL     1       2.222   7.047  19.748  0.00  0.00    +0.000 HD
ENDROOT
BRANCH   2   5
ATOM      5  C   UNL     1       0.955   9.275  19.451  0.00  0.00    +0.000 A 
ATOM      6  C   UNL     1       0.195  10.274  18.972  0.00  0.00    +0.000 A 
ATOM      7  C   UNL     1      -0.660  11.048  19.847  0.00  0.00    +0.000 A 
ATOM      8  C   UNL     1      -1.548  12.002  19.349  0.00  0.00    +0.000 A 
ATOM      9  C   UNL     1      -2.305  12.772  20.234  0.00  0.00    +0.000 A 
ATOM     10  C   UNL     1      -2.155  12.605  21.613  0.00  0.00    +0.000 A 
ATOM     11  C   UNL     1      -1.276  11.642  22.113  0.00  0.00    +0.000 A 
ATOM     12  C   UNL     1      -0.555  10.855  21.219  0.00  0.00    +0.000 A 
ATOM     13  O   UNL     1       0.255   9.821  21.732  0.00  0.00    +0.000 OA
ATOM     14  C   UNL     1       0.904   8.924  20.882  0.00  0.00    +0.000 A 
ATOM     15  O   UNL     1       1.430   7.898  21.308  0.00  0.00    +0.000 OA
ENDBRANCH   2   5
BRANCH   1  19
ATOM     16  C   UNL     1       5.083   5.209  16.357  0.00  0.00    +0.000 A 
ATOM     17  C   UNL     1       5.327   6.564  16.573  0.00  0.00    +0.000 A 
ATOM     18  C   UNL     1       4.487   7.303  17.411  0.00  0.00    +0.000 A 
ATOM     19  C   UNL     1       3.385   6.713  18.041  0.00  0.00    +0.000 A 
ATOM     20  C   UNL     1       3.175   5.342  17.869  0.00  0.00    +0.000 A 
ATOM     21  C   UNL     1       4.013   4.596  17.026  0.00  0.00    +0.000 A 
BRANCH  16  23
ATOM     22  O   UNL     1       7.001   3.978  15.878  0.00  0.00    +0.000 OA
ATOM     23  C   UNL     1       5.939   4.408  15.431  0.00  0.00    +0.000 C 
ATOM     24 CL   UNL     1       5.387   4.099  13.796  0.00  0.00    +0.000 Cl
ENDBRANCH  16  23
ENDBRANCH   1  19
TORSDOF 3
ENDMDL
MODEL 9
REMARK VINA RESULT:      -7.4      1.466      1.708
REMARK  Name = 
REMARK  3 active torsions:
REMARK  status: ('A' for Active; 'I' for Inactive)
REMARK    1  A    between atoms: C_2  and  C_4
REMARK    2  A    between atoms: C_7  and  N_8
REMARK    3  A    between atoms: C_9  and  C_11
REMARK                            x       y       z     vdW  Elec       q    Type
REMARK                         _______ _______ _______ _____ _____    ______ ____
ROOT
ATOM      1  N   UNL     1       1.281   8.907  19.509  0.00  0.00    +0.000 N 
ATOM      2  C   UNL     1       2.020   8.748  18.352  0.00  0.00    +0.000 C 
ATOM      3  O   UNL     1       2.110   9.608  17.472  0.00  0.00    +0.000 OA
ATOM      4  H   UNL     1       1.402   8.210  20.246  0.00  0.00    +0.000 HD
ENDROOT
BRANCH   2   5
ATOM      5  C   UNL     1       2.773   7.472  18.189  0.00  0.00    +0.000 A 
ATOM      6  C   UNL     1       3.615   7.430  17.142  0.00  0.00    +0.000 A 
ATOM      7  C   UNL     1       4.370   6.234  16.838  0.00  0.00    +0.000 A 
ATOM      8  C   UNL     1       5.340   6.213  15.835  0.00  0.00    +0.000 A 
ATOM      9  C   UNL     1       5.997   5.020  15.530  0.00  0.00    +0.000 A 
ATOM     10  C   UNL     1       5.666   3.845  16.210  0.00  0.00    +0.000 A 
ATOM     11  C   UNL     1       4.705   3.866  17.223  0.00  0.00    +0.000 A 
ATOM     12  C   UNL     1       4.084   5.071  17.542  0.00  0.00    +0.000 A 
ATOM     13  O   UNL     1       3.188   5.100  18.630  0.00  0.00    +0.000 OA
ATOM     14  C   UNL     1       2.631   6.301  19.073  0.00  0.00    +0.000 A 
ATOM     15  O   UNL     1       2.027   6.375  20.141  0.00  0.00    +0.000 OA
ENDBRANCH   2   5
BRANCH   1  19
ATOM     16  C   UNL     1      -1.268  12.177  20.398  0.00  0.00    +0.000 A 
ATOM     17  C   UNL     1      -0.097  11.993  21.132  0.00  0.00    +0.000 A 
ATOM     18  C   UNL     1       0.760  10.931  20.829  0.00  0.00    +0.000 A 
ATOM     19  C   UNL     1       0.466  10.028  19.800  0.00  0.00    +0.000 A 
ATOM     20  C   UNL     1      -0.679  10.248  19.028  0.00  0.00    +0.000 A 
ATOM     21  C   UNL     1      -1.544  11.310  19.331  0.00  0.00    +0.000 A 
BRANCH  16  23
ATOM     22  O   UNL     1      -1.743  14.383  20.975  0.00  0.00    +0.000 OA
ATOM     23  C   UNL     1      -2.222  13.276  20.731  0.00  0.00    +0.000 C 
ATOM     24 CL   UNL     1      -3.945  12.953  20.731  0.00  0.00    +0.000 Cl
ENDBRANCH  16  23
ENDBRANCH   1  19
TORSDOF 3
ENDMDL
