MODEL 1
REMARK VINA RESULT:      -6.7      0.000      0.000
REMARK  Name = 
REMARK  7 active torsions:
REMARK  status: ('A' for Active; 'I' for Inactive)
REMARK    1  A    between atoms: C_1  and  O_2
REMARK    2  A    between atoms: O_2  and  C_3
REMARK    3  A    between atoms: C_6  and  C_7
REMARK    4  A    between atoms: C_9  and  C_10
REMARK    5  A    between atoms: C_10  and  O_11
REMARK    6  A    between atoms: O_11  and  C_12
REMARK    7  A    between atoms: C_14  and  N_15
REMARK                            x       y       z     vdW  Elec       q    Type
REMARK                         _______ _______ _______ _____ _____    ______ ____
ROOT
ATOM      1  C   UNL     1       8.087   8.493  18.015  0.00  0.00    +0.000 A 
ATOM      2  C   UNL     1       8.277   7.249  18.670  0.00  0.00    +0.000 A 
ATOM      3  C   UNL     1       7.583   6.343  17.909  0.00  0.00    +0.000 A 
ATOM      4  O   UNL     1       6.998   6.992  16.870  0.00  0.00    +0.000 OA
ATOM      5  N   UNL     1       7.315   8.332  16.927  0.00  0.00    +0.000 NA
ENDROOT
BRANCH   1   9
ATOM      6  C   UNL     1       9.605  12.321  19.144  0.00  0.00    +0.000 A 
ATOM      7  C   UNL     1       8.915  12.165  17.942  0.00  0.00    +0.000 A 
ATOM      8  C   UNL     1       8.409  10.916  17.575  0.00  0.00    +0.000 A 
ATOM      9  C   UNL     1       8.612   9.798  18.396  0.00  0.00    +0.000 A 
ATOM     10  C   UNL     1       9.335   9.956  19.586  0.00  0.00    +0.000 A 
ATOM     11  C   UNL     1       9.828  11.210  19.959  0.00  0.00    +0.000 A 
BRANCH   6  13
ATOM     12  C   UNL     1       9.096  14.621  19.174  0.00  0.00    +0.000 C 
ATOM     13  O   UNL     1      10.048  13.586  19.410  0.00  0.00    +0.000 OA
ENDBRANCH   6  13
ENDBRANCH   1   9
BRANCH   3  14
ATOM     14  C   UNL     1       7.346   4.889  17.993  0.00  0.00    +0.000 C 
BRANCH  14  15
ATOM     15  O   UNL     1       6.130   4.563  17.314  0.00  0.00    +0.000 OA
BRANCH  15  16
ATOM     16  C   UNL     1       4.990   4.171  18.117  0.00  0.00    +0.000 C 
ATOM     17  C   UNL     1       4.572   5.085  19.289  0.00  0.00    +0.000 C 
ATOM     18  C   UNL     1       3.422   5.638  18.425  0.00  0.00    +0.000 C 
ATOM     19  C   UNL     1       3.610   4.437  17.477  0.00  0.00    +0.000 C 
BRANCH  18  20
ATOM     20  N   UNL     1       3.791   6.877  17.745  0.00  0.00    +0.000 NA
ATOM     21  C   UNL     1       3.018   7.754  17.839  0.00  0.00    +0.000 C 
ATOM     22  S   UNL     1       1.992   8.964  17.959  0.00  0.00    +0.000 S 
ENDBRANCH  18  20
ENDBRANCH  15  16
ENDBRANCH  14  15
ENDBRANCH   3  14
TORSDOF 6
ENDMDL
MODEL 2
REMARK VINA RESULT:      -6.6      0.700      1.245
REMARK  Name = 
REMARK  7 active torsions:
REMARK  status: ('A' for Active; 'I' for Inactive)
REMARK    1  A    between atoms: C_1  and  O_2
REMARK    2  A    between atoms: O_2  and  C_3
REMARK    3  A    between atoms: C_6  and  C_7
REMARK    4  A    between atoms: C_9  and  C_10
REMARK    5  A    between atoms: C_10  and  O_11
REMARK    6  A    between atoms: O_11  and  C_12
REMARK    7  A    between atoms: C_14  and  N_15
REMARK                            x       y       z     vdW  Elec       q    Type
REMARK                         _______ _______ _______ _____ _____    ______ ____
ROOT
ATOM      1  C   UNL     1       8.145   8.251  17.960  0.00  0.00    +0.000 A 
ATOM      2  C   UNL     1       8.058   7.094  18.776  0.00  0.00    +0.000 A 
ATOM      3  C   UNL     1       7.591   6.111  17.941  0.00  0.00    +0.000 A 
ATOM      4  O   UNL     1       7.394   6.635  16.704  0.00  0.00    +0.000 OA
ATOM      5  N   UNL     1       7.745   7.968  16.709  0.00  0.00    +0.000 NA
ENDROOT
BRANCH   1   9
ATOM      6  C   UNL     1       9.472  12.157  19.062  0.00  0.00    +0.000 A 
ATOM      7  C   UNL     1       9.700  11.073  19.908  0.00  0.00    +0.000 A 
ATOM      8  C   UNL     1       9.276   9.792  19.545  0.00  0.00    +0.000 A 
ATOM      9  C   UNL     1       8.591   9.586  18.340  0.00  0.00    +0.000 A 
ATOM     10  C   UNL     1       8.336  10.686  17.511  0.00  0.00    +0.000 A 
ATOM     11  C   UNL     1       8.774  11.964  17.868  0.00  0.00    +0.000 A 
BRANCH   6  13
ATOM     12  C   UNL     1      10.542  14.182  18.512  0.00  0.00    +0.000 C 
ATOM     13  O   UNL     1       9.936  13.362  19.509  0.00  0.00    +0.000 OA
ENDBRANCH   6  13
ENDBRANCH   1   9
BRANCH   3  14
ATOM     14  C   UNL     1       7.267   4.681  18.107  0.00  0.00    +0.000 C 
BRANCH  14  15
ATOM     15  O   UNL     1       6.317   4.526  19.166  0.00  0.00    +0.000 OA
BRANCH  15  16
ATOM     16  C   UNL     1       5.040   3.921  18.848  0.00  0.00    +0.000 C 
ATOM     17  C   UNL     1       3.758   4.598  19.378  0.00  0.00    +0.000 C 
ATOM     18  C   UNL     1       3.512   5.190  17.976  0.00  0.00    +0.000 C 
ATOM     19  C   UNL     1       4.528   4.177  17.413  0.00  0.00    +0.000 C 
BRANCH  18  20
ATOM     20  N   UNL     1       4.037   6.548  17.853  0.00  0.00    +0.000 NA
ATOM     21  C   UNL     1       3.232   7.402  17.856  0.00  0.00    +0.000 C 
ATOM     22  S   UNL     1       2.164   8.580  17.868  0.00  0.00    +0.000 S 
ENDBRANCH  18  20
ENDBRANCH  15  16
ENDBRANCH  14  15
ENDBRANCH   3  14
TORSDOF 6
ENDMDL
MODEL 3
REMARK VINA RESULT:      -6.6      5.460      8.587
REMARK  Name = 
REMARK  7 active torsions:
REMARK  status: ('A' for Active; 'I' for Inactive)
REMARK    1  A    between atoms: C_1  and  O_2
REMARK    2  A    between atoms: O_2  and  C_3
REMARK    3  A    between atoms: C_6  and  C_7
REMARK    4  A    between atoms: C_9  and  C_10
REMARK    5  A    between atoms: C_10  and  O_11
REMARK    6  A    between atoms: O_11  and  C_12
REMARK    7  A    between atoms: C_14  and  N_15
REMARK                            x       y       z     vdW  Elec       q    Type
REMARK                         _______ _______ _______ _____ _____    ______ ____
ROOT
ATOM      1  C   UNL     1       2.310   7.730  18.545  0.00  0.00    +0.000 A 
ATOM      2  C   UNL     1       1.716   8.859  17.925  0.00  0.00    +0.000 A 
ATOM      3  C   UNL     1       1.067   9.515  18.940  0.00  0.00    +0.000 A 
ATOM      4  O   UNL     1       1.240   8.825  20.097  0.00  0.00    +0.000 OA
ATOM      5  N   UNL     1       2.021   7.715  19.857  0.00  0.00    +0.000 NA
ENDROOT
BRANCH   1   9
ATOM      6  C   UNL     1       4.711   4.686  16.755  0.00  0.00    +0.000 A 
ATOM      7  C   UNL     1       5.078   6.026  16.644  0.00  0.00    +0.000 A 
ATOM      8  C   UNL     1       4.300   7.023  17.238  0.00  0.00    +0.000 A 
ATOM      9  C   UNL     1       3.125   6.691  17.927  0.00  0.00    +0.000 A 
ATOM     10  C   UNL     1       2.746   5.345  18.006  0.00  0.00    +0.000 A 
ATOM     11  C   UNL     1       3.533   4.347  17.424  0.00  0.00    +0.000 A 
BRANCH   6  13
ATOM     12  C   UNL     1       5.917   4.127  14.811  0.00  0.00    +0.000 C 
ATOM     13  O   UNL     1       5.547   3.793  16.147  0.00  0.00    +0.000 OA
ENDBRANCH   6  13
ENDBRANCH   1   9
BRANCH   3  14
ATOM     14  C   UNL     1       0.254  10.743  19.023  0.00  0.00    +0.000 C 
BRANCH  14  15
ATOM     15  O   UNL     1      -1.134  10.404  18.940  0.00  0.00    +0.000 OA
BRANCH  15  16
ATOM     16  C   UNL     1      -1.696  10.168  17.627  0.00  0.00    +0.000 C 
ATOM     17  C   UNL     1      -3.100   9.533  17.536  0.00  0.00    +0.000 C 
ATOM     18  C   UNL     1      -3.691  10.924  17.233  0.00  0.00    +0.000 C 
ATOM     19  C   UNL     1      -2.266  11.417  16.918  0.00  0.00    +0.000 C 
BRANCH  18  20
ATOM     20  N   UNL     1      -4.195  11.580  18.436  0.00  0.00    +0.000 NA
ATOM     21  C   UNL     1      -5.348  11.799  18.447  0.00  0.00    +0.000 C 
ATOM     22  S   UNL     1      -6.910  12.098  18.492  0.00  0.00    +0.000 S 
ENDBRANCH  18  20
ENDBRANCH  15  16
ENDBRANCH  14  15
ENDBRANCH   3  14
TORSDOF 6
ENDMDL
MODEL 4
REMARK VINA RESULT:      -6.4      5.270      8.052
REMARK  Name = 
REMARK  7 active torsions:
REMARK  status: ('A' for Active; 'I' for Inactive)
REMARK    1  A    between atoms: C_1  and  O_2
REMARK    2  A    between atoms: O_2  and  C_3
REMARK    3  A    between atoms: C_6  and  C_7
REMARK    4  A    between atoms: C_9  and  C_10
REMARK    5  A    between atoms: C_10  and  O_11
REMARK    6  A    between atoms: O_11  and  C_12
REMARK    7  A    between atoms: C_14  and  N_15
REMARK                            x       y       z     vdW  Elec       q    Type
REMARK                         _______ _______ _______ _____ _____    ______ ____
ROOT
ATOM      1  C   UNL     1       2.661   7.028  18.841  0.00  0.00    +0.000 A 
ATOM      2  C   UNL     1       2.125   8.326  18.645  0.00  0.00    +0.000 A 
ATOM      3  C   UNL     1       1.444   8.603  19.804  0.00  0.00    +0.000 A 
ATOM      4  O   UNL     1       1.547   7.540  20.643  0.00  0.00    +0.000 OA
ATOM      5  N   UNL     1       2.311   6.558  20.050  0.00  0.00    +0.000 NA
ENDROOT
BRANCH   1   9
ATOM      6  C   UNL     1       5.039   4.739  16.131  0.00  0.00    +0.000 A 
ATOM      7  C   UNL     1       4.161   4.102  17.007  0.00  0.00    +0.000 A 
ATOM      8  C   UNL     1       3.375   4.848  17.887  0.00  0.00    +0.000 A 
ATOM      9  C   UNL     1       3.479   6.246  17.922  0.00  0.00    +0.000 A 
ATOM     10  C   UNL     1       4.387   6.877  17.062  0.00  0.00    +0.000 A 
ATOM     11  C   UNL     1       5.162   6.130  16.171  0.00  0.00    +0.000 A 
BRANCH   6  13
ATOM     12  C   UNL     1       6.676   4.577  14.446  0.00  0.00    +0.000 C 
ATOM     13  O   UNL     1       5.752   3.916  15.307  0.00  0.00    +0.000 OA
ENDBRANCH   6  13
ENDBRANCH   1   9
BRANCH   3  14
ATOM     14  C   UNL     1       0.658   9.751  20.292  0.00  0.00    +0.000 C 
BRANCH  14  15
ATOM     15  O   UNL     1       0.809  10.852  19.390  0.00  0.00    +0.000 OA
BRANCH  15  16
ATOM     16  C   UNL     1      -0.176  11.912  19.444  0.00  0.00    +0.000 C 
ATOM     17  C   UNL     1      -0.574  12.608  18.125  0.00  0.00    +0.000 C 
ATOM     18  C   UNL     1      -1.875  11.780  18.101  0.00  0.00    +0.000 C 
ATOM     19  C   UNL     1      -1.641  11.445  19.587  0.00  0.00    +0.000 C 
BRANCH  18  20
ATOM     20  N   UNL     1      -1.743  10.574  17.287  0.00  0.00    +0.000 NA
ATOM     21  C   UNL     1      -2.434  10.526  16.340  0.00  0.00    +0.000 C 
ATOM     22  S   UNL     1      -3.353  10.439  15.045  0.00  0.00    +0.000 S 
ENDBRANCH  18  20
ENDBRANCH  15  16
ENDBRANCH  14  15
ENDBRANCH   3  14
TORSDOF 6
ENDMDL
MODEL 5
REMARK VINA RESULT:      -6.4      2.044      2.298
REMARK  Name = 
REMARK  7 active torsions:
REMARK  status: ('A' for Active; 'I' for Inactive)
REMARK    1  A    between atoms: C_1  and  O_2
REMARK    2  A    between atoms: O_2  and  C_3
REMARK    3  A    between atoms: C_6  and  C_7
REMARK    4  A    between atoms: C_9  and  C_10
REMARK    5  A    between atoms: C_10  and  O_11
REMARK    6  A    between atoms: O_11  and  C_12
REMARK    7  A    between atoms: C_14  and  N_15
REMARK                            x       y       z     vdW  Elec       q    Type
REMARK                         _______ _______ _______ _____ _____    ______ ____
ROOT
ATOM      1  C   UNL     1       8.499   9.146  18.303  0.00  0.00    +0.000 A 
ATOM      2  C   UNL     1       8.518   7.811  18.782  0.00  0.00    +0.000 A 
ATOM      3  C   UNL     1       7.662   7.130  17.954  0.00  0.00    +0.000 A 
ATOM      4  O   UNL     1       7.145   7.993  17.043  0.00  0.00    +0.000 OA
ATOM      5  N   UNL     1       7.670   9.251  17.251  0.00  0.00    +0.000 NA
ENDROOT
BRANCH   1   9
ATOM      6  C   UNL     1      10.638  12.523  19.804  0.00  0.00    +0.000 A 
ATOM      7  C   UNL     1      10.591  12.273  18.434  0.00  0.00    +0.000 A 
ATOM      8  C   UNL     1       9.884  11.176  17.939  0.00  0.00    +0.000 A 
ATOM      9  C   UNL     1       9.236  10.294  18.816  0.00  0.00    +0.000 A 
ATOM     10  C   UNL     1       9.316  10.533  20.194  0.00  0.00    +0.000 A 
ATOM     11  C   UNL     1      10.012  11.641  20.687  0.00  0.00    +0.000 A 
BRANCH   6  13
ATOM     12  C   UNL     1      10.589  14.638  20.840  0.00  0.00    +0.000 C 
ATOM     13  O   UNL     1      11.349  13.628  20.179  0.00  0.00    +0.000 OA
ENDBRANCH   6  13
ENDBRANCH   1   9
BRANCH   3  14
ATOM     14  C   UNL     1       7.205   5.730  17.866  0.00  0.00    +0.000 C 
BRANCH  14  15
ATOM     15  O   UNL     1       5.928   5.603  18.499  0.00  0.00    +0.000 OA
BRANCH  15  16
ATOM     16  C   UNL     1       4.765   5.439  17.652  0.00  0.00    +0.000 C 
ATOM     17  C   UNL     1       3.981   4.112  17.735  0.00  0.00    +0.000 C 
ATOM     18  C   UNL     1       2.912   4.815  18.593  0.00  0.00    +0.000 C 
ATOM     19  C   UNL     1       3.491   6.168  18.133  0.00  0.00    +0.000 C 
BRANCH  18  20
ATOM     20  N   UNL     1       3.146   4.630  20.023  0.00  0.00    +0.000 NA
ATOM     21  C   UNL     1       2.430   3.868  20.556  0.00  0.00    +0.000 C 
ATOM     22  S   UNL     1       1.480   2.834  21.303  0.00  0.00    +0.000 S 
ENDBRANCH  18  20
ENDBRANCH  15  16
ENDBRANCH  14  15
ENDBRANCH   3  14
TORSDOF 6
ENDMDL
MODEL 6
REMARK VINA RESULT:      -6.3      3.004      8.280
REMARK  Name = 
REMARK  7 active torsions:
REMARK  status: ('A' for Active; 'I' for Inactive)
REMARK    1  A    between atoms: C_1  and  O_2
REMARK    2  A    between atoms: O_2  and  C_3
REMARK    3  A    between atoms: C_6  and  C_7
REMARK    4  A    between atoms: C_9  and  C_10
REMARK    5  A    between atoms: C_10  and  O_11
REMARK    6  A    between atoms: O_11  and  C_12
REMARK    7  A    between atoms: C_14  and  N_15
REMARK                            x       y       z     vdW  Elec       q    Type
REMARK                         _______ _______ _______ _____ _____    ______ ____
ROOT
ATOM      1  C   UNL     1       6.371   5.874  18.193  0.00  0.00    +0.000 A 
ATOM      2  C   UNL     1       6.469   7.058  17.418  0.00  0.00    +0.000 A 
ATOM      3  C   UNL     1       7.635   7.651  17.832  0.00  0.00    +0.000 A 
ATOM      4  O   UNL     1       8.201   6.889  18.802  0.00  0.00    +0.000 OA
ATOM      5  N   UNL     1       7.420   5.775  19.025  0.00  0.00    +0.000 NA
ENDROOT
BRANCH   1   9
ATOM      6  C   UNL     1       3.316   2.892  18.074  0.00  0.00    +0.000 A 
ATOM      7  C   UNL     1       3.491   3.763  17.000  0.00  0.00    +0.000 A 
ATOM      8  C   UNL     1       4.496   4.732  17.031  0.00  0.00    +0.000 A 
ATOM      9  C   UNL     1       5.322   4.861  18.156  0.00  0.00    +0.000 A 
ATOM     10  C   UNL     1       5.120   4.005  19.245  0.00  0.00    +0.000 A 
ATOM     11  C   UNL     1       4.123   3.025  19.206  0.00  0.00    +0.000 A 
BRANCH   6  13
ATOM     12  C   UNL     1       1.156   2.223  18.734  0.00  0.00    +0.000 C 
ATOM     13  O   UNL     1       2.312   1.976  17.936  0.00  0.00    +0.000 OA
ENDBRANCH   6  13
ENDBRANCH   1   9
BRANCH   3  14
ATOM     14  C   UNL     1       8.352   8.887  17.465  0.00  0.00    +0.000 C 
BRANCH  14  15
ATOM     15  O   UNL     1       8.323   9.801  18.565  0.00  0.00    +0.000 OA
BRANCH  15  16
ATOM     16  C   UNL     1       9.577  10.385  18.994  0.00  0.00    +0.000 C 
ATOM     17  C   UNL     1      10.307  11.340  18.027  0.00  0.00    +0.000 C 
ATOM     18  C   UNL     1       9.789  12.539  18.845  0.00  0.00    +0.000 C 
ATOM     19  C   UNL     1       9.451  11.562  19.987  0.00  0.00    +0.000 C 
BRANCH  18  20
ATOM     20  N   UNL     1       8.562  13.099  18.284  0.00  0.00    +0.000 NA
ATOM     21  C   UNL     1       8.535  14.268  18.196  0.00  0.00    +0.000 C 
ATOM     22  S   UNL     1       8.475  15.852  18.057  0.00  0.00    +0.000 S 
ENDBRANCH  18  20
ENDBRANCH  15  16
ENDBRANCH  14  15
ENDBRANCH   3  14
TORSDOF 6
ENDMDL
MODEL 7
REMARK VINA RESULT:      -6.3      2.576      4.339
REMARK  Name = 
REMARK  7 active torsions:
REMARK  status: ('A' for Active; 'I' for Inactive)
REMARK    1  A    between atoms: C_1  and  O_2
REMARK    2  A    between atoms: O_2  and  C_3
REMARK    3  A    between atoms: C_6  and  C_7
REMARK    4  A    between atoms: C_9  and  C_10
REMARK    5  A    between atoms: C_10  and  O_11
REMARK    6  A    between atoms: O_11  and  C_12
REMARK    7  A    between atoms: C_14  and  N_15
REMARK                            x       y       z     vdW  Elec       q    Type
REMARK                         _______ _______ _______ _____ _____    ______ ____
ROOT
ATOM      1  C   UNL     1       5.278   4.943  17.725  0.00  0.00    +0.000 A 
ATOM      2  C   UNL     1       5.056   3.738  18.440  0.00  0.00    +0.000 A 
ATOM      3  C   UNL     1       3.986   3.151  17.813  0.00  0.00    +0.000 A 
ATOM      4  O   UNL     1       3.575   3.950  16.795  0.00  0.00    +0.000 OA
ATOM      5  N   UNL     1       4.383   5.066  16.731  0.00  0.00    +0.000 NA
ENDROOT
BRANCH   1   9
ATOM      6  C   UNL     1       8.258   7.915  18.446  0.00  0.00    +0.000 A 
ATOM      7  C   UNL     1       7.297   8.109  17.455  0.00  0.00    +0.000 A 
ATOM      8  C   UNL     1       6.315   7.144  17.224  0.00  0.00    +0.000 A 
ATOM      9  C   UNL     1       6.301   5.954  17.965  0.00  0.00    +0.000 A 
ATOM     10  C   UNL     1       7.289   5.751  18.937  0.00  0.00    +0.000 A 
ATOM     11  C   UNL     1       8.263   6.726  19.177  0.00  0.00    +0.000 A 
BRANCH   6  13
ATOM     12  C   UNL     1       8.685  10.223  18.245  0.00  0.00    +0.000 C 
ATOM     13  O   UNL     1       9.165   8.926  18.595  0.00  0.00    +0.000 OA
ENDBRANCH   6  13
ENDBRANCH   1   9
BRANCH   3  14
ATOM     14  C   UNL     1       3.227   1.903  18.016  0.00  0.00    +0.000 C 
BRANCH  14  15
ATOM     15  O   UNL     1       2.891   1.767  19.400  0.00  0.00    +0.000 OA
BRANCH  15  16
ATOM     16  C   UNL     1       1.529   2.058  19.799  0.00  0.00    +0.000 C 
ATOM     17  C   UNL     1       1.300   2.788  21.139  0.00  0.00    +0.000 C 
ATOM     18  C   UNL     1       1.058   4.098  20.365  0.00  0.00    +0.000 C 
ATOM     19  C   UNL     1       0.875   3.261  19.084  0.00  0.00    +0.000 C 
BRANCH  18  20
ATOM     20  N   UNL     1       2.269   4.909  20.266  0.00  0.00    +0.000 NA
ATOM     21  C   UNL     1       2.095   6.067  20.188  0.00  0.00    +0.000 C 
ATOM     22  S   UNL     1       1.890   7.642  20.092  0.00  0.00    +0.000 S 
ENDBRANCH  18  20
ENDBRANCH  15  16
ENDBRANCH  14  15
ENDBRANCH   3  14
TORSDOF 6
ENDMDL
MODEL 8
REMARK VINA RESULT:      -6.3      3.850      6.714
REMARK  Name = 
REMARK  7 active torsions:
REMARK  status: ('A' for Active; 'I' for Inactive)
REMARK    1  A    between atoms: C_1  and  O_2
REMARK    2  A    between atoms: O_2  and  C_3
REMARK    3  A    between atoms: C_6  and  C_7
REMARK    4  A    between atoms: C_9  and  C_10
REMARK    5  A    between atoms: C_10  and  O_11
REMARK    6  A    between atoms: O_11  and  C_12
REMARK    7  A    between atoms: C_14  and  N_15
REMARK                            x       y       z     vdW  Elec       q    Type
REMARK                         _______ _______ _______ _____ _____    ______ ____
ROOT
ATOM      1  C   UNL     1       2.417   7.539  18.921  0.00  0.00    +0.000 A 
ATOM      2  C   UNL     1       2.689   6.189  19.260  0.00  0.00    +0.000 A 
ATOM      3  C   UNL     1       3.550   5.750  18.286  0.00  0.00    +0.000 A 
ATOM      4  O   UNL     1       3.775   6.759  17.406  0.00  0.00    +0.000 OA
ATOM      5  N   UNL     1       3.077   7.880  17.802  0.00  0.00    +0.000 NA
ENDROOT
BRANCH   1   9
ATOM      6  C   UNL     1      -0.068  10.325  20.994  0.00  0.00    +0.000 A 
ATOM      7  C   UNL     1       0.341   9.148  21.619  0.00  0.00    +0.000 A 
ATOM      8  C   UNL     1       1.162   8.240  20.947  0.00  0.00    +0.000 A 
ATOM      9  C   UNL     1       1.562   8.487  19.626  0.00  0.00    +0.000 A 
ATOM     10  C   UNL     1       1.119   9.655  18.993  0.00  0.00    +0.000 A 
ATOM     11  C   UNL     1       0.309  10.570  19.672  0.00  0.00    +0.000 A 
BRANCH   6  13
ATOM     12  C   UNL     1      -0.984  10.778  23.116  0.00  0.00    +0.000 C 
ATOM     13  O   UNL     1      -0.861  11.147  21.744  0.00  0.00    +0.000 OA
ENDBRANCH   6  13
ENDBRANCH   1   9
BRANCH   3  14
ATOM     14  C   UNL     1       4.233   4.472  18.008  0.00  0.00    +0.000 C 
BRANCH  14  15
ATOM     15  O   UNL     1       4.668   4.448  16.646  0.00  0.00    +0.000 OA
BRANCH  15  16
ATOM     16  C   UNL     1       6.067   4.174  16.386  0.00  0.00    +0.000 C 
ATOM     17  C   UNL     1       6.824   5.098  15.409  0.00  0.00    +0.000 C 
ATOM     18  C   UNL     1       7.474   5.809  16.612  0.00  0.00    +0.000 C 
ATOM     19  C   UNL     1       7.044   4.622  17.495  0.00  0.00    +0.000 C 
BRANCH  18  20
ATOM     20  N   UNL     1       6.744   7.013  16.999  0.00  0.00    +0.000 NA
ATOM     21  C   UNL     1       7.400   7.883  17.434  0.00  0.00    +0.000 C 
ATOM     22  S   UNL     1       8.266   9.082  18.020  0.00  0.00    +0.000 S 
ENDBRANCH  18  20
ENDBRANCH  15  16
ENDBRANCH  14  15
ENDBRANCH   3  14
TORSDOF 6
ENDMDL
MODEL 9
REMARK VINA RESULT:      -6.3      3.073      8.292
REMARK  Name = 
REMARK  7 active torsions:
REMARK  status: ('A' for Active; 'I' for Inactive)
REMARK    1  A    between atoms: C_1  and  O_2
REMARK    2  A    between atoms: O_2  and  C_3
REMARK    3  A    between atoms: C_6  and  C_7
REMARK    4  A    between atoms: C_9  and  C_10
REMARK    5  A    between atoms: C_10  and  O_11
REMARK    6  A    between atoms: O_11  and  C_12
REMARK    7  A    between atoms: C_14  and  N_15
REMARK                            x       y       z     vdW  Elec       q    Type
REMARK                         _______ _______ _______ _____ _____    ______ ____
ROOT
ATOM      1  C   UNL     1       5.887   6.129  17.975  0.00  0.00    +0.000 A 
ATOM      2  C   UNL     1       6.195   7.357  17.336  0.00  0.00    +0.000 A 
ATOM      3  C   UNL     1       7.477   7.645  17.730  0.00  0.00    +0.000 A 
ATOM      4  O   UNL     1       7.915   6.668  18.565  0.00  0.00    +0.000 OA
ATOM      5  N   UNL     1       6.929   5.716  18.715  0.00  0.00    +0.000 NA
ENDROOT
BRANCH   1   9
ATOM      6  C   UNL     1       2.263   3.879  17.772  0.00  0.00    +0.000 A 
ATOM      7  C   UNL     1       3.488   3.263  17.519  0.00  0.00    +0.000 A 
ATOM      8  C   UNL     1       4.676   3.994  17.595  0.00  0.00    +0.000 A 
ATOM      9  C   UNL     1       4.649   5.363  17.898  0.00  0.00    +0.000 A 
ATOM     10  C   UNL     1       3.412   5.982  18.117  0.00  0.00    +0.000 A 
ATOM     11  C   UNL     1       2.225   5.246  18.056  0.00  0.00    +0.000 A 
BRANCH   6  13
ATOM     12  C   UNL     1       0.865   2.326  18.859  0.00  0.00    +0.000 C 
ATOM     13  O   UNL     1       1.166   3.070  17.681  0.00  0.00    +0.000 OA
ENDBRANCH   6  13
ENDBRANCH   1   9
BRANCH   3  14
ATOM     14  C   UNL     1       8.420   8.746  17.457  0.00  0.00    +0.000 C 
BRANCH  14  15
ATOM     15  O   UNL     1       8.288   9.751  18.466  0.00  0.00    +0.000 OA
BRANCH  15  16
ATOM     16  C   UNL     1       9.495  10.231  19.107  0.00  0.00    +0.000 C 
ATOM     17  C   UNL     1      10.367  11.255  18.349  0.00  0.00    +0.000 C 
ATOM     18  C   UNL     1       9.786  12.378  19.230  0.00  0.00    +0.000 C 
ATOM     19  C   UNL     1       9.280  11.297  20.204  0.00  0.00    +0.000 C 
BRANCH  18  20
ATOM     20  N   UNL     1       8.655  13.047  18.592  0.00  0.00    +0.000 NA
ATOM     21  C   UNL     1       8.804  14.189  18.368  0.00  0.00    +0.000 C 
ATOM     22  S   UNL     1       8.984  15.736  18.045  0.00  0.00    +0.000 S 
ENDBRANCH  18  20
ENDBRANCH  15  16
ENDBRANCH  14  15
ENDBRANCH   3  14
TORSDOF 6
ENDMDL
