MODEL 1
REMARK VINA RESULT:      -7.2      0.000      0.000
REMARK  Name = 
REMARK  8 active torsions:
REMARK  status: ('A' for Active; 'I' for Inactive)
REMARK    1  A    between atoms: C_1  and  C_2
REMARK    2  A    between atoms: C_2  and  C_3
REMARK    3  A    between atoms: C_6  and  C_7
REMARK    4  A    between atoms: C_10  and  C_11
REMARK    5  A    between atoms: C_14  and  C_15
REMARK    6  A    between atoms: C_15  and  O_16
REMARK    7  A    between atoms: O_16  and  S_17
REMARK    8  A    between atoms: S_17  and  C_18
REMARK                            x       y       z     vdW  Elec       q    Type
REMARK                         _______ _______ _______ _____ _____    ______ ____
ROOT
ATOM      1  C   UNL     1      -0.145   9.238  20.546  0.00  0.00    +0.000 C 
ATOM      2  O   UNL     1       0.038   9.608  21.923  0.00  0.00    +0.000 OA
ATOM      3  O   UNL     1       0.877  10.817  21.975  0.00  0.00    +0.000 OA
ATOM      4  C   UNL     1       0.222  11.858  21.228  0.00  0.00    +0.000 C 
ATOM      5  O   UNL     1       0.083  11.463  19.853  0.00  0.00    +0.000 OA
ATOM      6  O   UNL     1      -0.806  10.291  19.824  0.00  0.00    +0.000 OA
ENDROOT
BRANCH   1  10
ATOM      7  C   UNL     1       3.049   7.434  18.256  0.00  0.00    +0.000 A 
ATOM      8  C   UNL     1       2.728   6.932  19.523  0.00  0.00    +0.000 A 
ATOM      9  C   UNL     1       1.751   7.555  20.304  0.00  0.00    +0.000 A 
ATOM     10  C   UNL     1       1.087   8.698  19.837  0.00  0.00    +0.000 A 
ATOM     11  C   UNL     1       1.480   9.245  18.603  0.00  0.00    +0.000 A 
ATOM     12  C   UNL     1       2.442   8.615  17.818  0.00  0.00    +0.000 A 
BRANCH   7  14
ATOM     13  C   UNL     1       4.073   5.214  17.743  0.00  0.00    +0.000 C 
ATOM     14  C   UNL     1       3.963   6.675  17.330  0.00  0.00    +0.000 C 
ENDBRANCH   7  14
ENDBRANCH   1  10
BRANCH   4  15
ATOM     15  C   UNL     1      -1.069  12.382  21.843  0.00  0.00    +0.000 A 
ATOM     16  C   UNL     1      -1.807  13.394  21.213  0.00  0.00    +0.000 A 
ATOM     17  C   UNL     1      -3.048  13.788  21.719  0.00  0.00    +0.000 A 
ATOM     18  C   UNL     1      -3.587  13.167  22.856  0.00  0.00    +0.000 A 
ATOM     19  C   UNL     1      -2.844  12.173  23.500  0.00  0.00    +0.000 A 
ATOM     20  C   UNL     1      -1.601  11.786  22.999  0.00  0.00    +0.000 A 
BRANCH  18  21
ATOM     21  C   UNL     1      -4.945  13.565  23.372  0.00  0.00    +0.000 C 
BRANCH  21  22
ATOM     22  O   UNL     1      -5.639  12.385  23.749  0.00  0.00    +0.000 OA
BRANCH  22  23
ATOM     23  S   UNL     1      -7.258  12.453  23.694  0.00  0.00    +0.000 S 
ATOM     24  C   UNL     1      -7.399  12.894  21.974  0.00  0.00    +0.000 C 
ATOM     25  O   UNL     1      -7.783  11.120  23.879  0.00  0.00    +0.000 OA
ATOM     26  O   UNL     1      -7.700  13.571  24.495  0.00  0.00    +0.000 OA
ENDBRANCH  22  23
ENDBRANCH  21  22
ENDBRANCH  18  21
ENDBRANCH   4  15
TORSDOF 6
ENDMDL
MODEL 2
REMARK VINA RESULT:      -6.8      4.174      9.651
REMARK  Name = 
REMARK  8 active torsions:
REMARK  status: ('A' for Active; 'I' for Inactive)
REMARK    1  A    between atoms: C_1  and  C_2
REMARK    2  A    between atoms: C_2  and  C_3
REMARK    3  A    between atoms: C_6  and  C_7
REMARK    4  A    between atoms: C_10  and  C_11
REMARK    5  A    between atoms: C_14  and  C_15
REMARK    6  A    between atoms: C_15  and  O_16
REMARK    7  A    between atoms: O_16  and  S_17
REMARK    8  A    between atoms: S_17  and  C_18
REMARK                            x       y       z     vdW  Elec       q    Type
REMARK                         _______ _______ _______ _____ _____    ______ ____
ROOT
ATOM      1  C   UNL     1       0.070  10.890  22.166  0.00  0.00    +0.000 C 
ATOM      2  O   UNL     1      -0.529   9.699  21.628  0.00  0.00    +0.000 OA
ATOM      3  O   UNL     1      -1.016   9.993  20.270  0.00  0.00    +0.000 OA
ATOM      4  C   UNL     1       0.099  10.433  19.472  0.00  0.00    +0.000 C 
ATOM      5  O   UNL     1       0.653  11.639  20.025  0.00  0.00    +0.000 OA
ATOM      6  O   UNL     1       1.183  11.304  21.356  0.00  0.00    +0.000 OA
ENDROOT
BRANCH   1  10
ATOM      7  C   UNL     1      -2.458  14.106  23.567  0.00  0.00    +0.000 A 
ATOM      8  C   UNL     1      -2.948  12.795  23.538  0.00  0.00    +0.000 A 
ATOM      9  C   UNL     1      -2.168  11.760  23.014  0.00  0.00    +0.000 A 
ATOM     10  C   UNL     1      -0.890  12.021  22.500  0.00  0.00    +0.000 A 
ATOM     11  C   UNL     1      -0.444  13.353  22.454  0.00  0.00    +0.000 A 
ATOM     12  C   UNL     1      -1.216  14.382  22.991  0.00  0.00    +0.000 A 
BRANCH   7  14
ATOM     13  C   UNL     1      -4.685  15.183  23.924  0.00  0.00    +0.000 C 
ATOM     14  C   UNL     1      -3.207  15.197  24.289  0.00  0.00    +0.000 C 
ENDBRANCH   7  14
ENDBRANCH   1  10
BRANCH   4  15
ATOM     15  C   UNL     1       1.143   9.365  19.176  0.00  0.00    +0.000 A 
ATOM     16  C   UNL     1       1.375   8.316  20.076  0.00  0.00    +0.000 A 
ATOM     17  C   UNL     1       2.248   7.276  19.747  0.00  0.00    +0.000 A 
ATOM     18  C   UNL     1       2.896   7.254  18.503  0.00  0.00    +0.000 A 
ATOM     19  C   UNL     1       2.685   8.310  17.611  0.00  0.00    +0.000 A 
ATOM     20  C   UNL     1       1.820   9.352  17.944  0.00  0.00    +0.000 A 
BRANCH  18  21
ATOM     21  C   UNL     1       3.803   6.109  18.135  0.00  0.00    +0.000 C 
BRANCH  21  22
ATOM     22  O   UNL     1       3.191   4.902  18.567  0.00  0.00    +0.000 OA
BRANCH  22  23
ATOM     23  S   UNL     1       3.341   3.624  17.580  0.00  0.00    +0.000 S 
ATOM     24  C   UNL     1       3.769   2.432  18.832  0.00  0.00    +0.000 C 
ATOM     25  O   UNL     1       2.039   3.296  17.048  0.00  0.00    +0.000 OA
ATOM     26  O   UNL     1       4.489   3.832  16.728  0.00  0.00    +0.000 OA
ENDBRANCH  22  23
ENDBRANCH  21  22
ENDBRANCH  18  21
ENDBRANCH   4  15
TORSDOF 6
ENDMDL
MODEL 3
REMARK VINA RESULT:      -6.8      0.959      1.103
REMARK  Name = 
REMARK  8 active torsions:
REMARK  status: ('A' for Active; 'I' for Inactive)
REMARK    1  A    between atoms: C_1  and  C_2
REMARK    2  A    between atoms: C_2  and  C_3
REMARK    3  A    between atoms: C_6  and  C_7
REMARK    4  A    between atoms: C_10  and  C_11
REMARK    5  A    between atoms: C_14  and  C_15
REMARK    6  A    between atoms: C_15  and  O_16
REMARK    7  A    between atoms: O_16  and  S_17
REMARK    8  A    between atoms: S_17  and  C_18
REMARK                            x       y       z     vdW  Elec       q    Type
REMARK                         _______ _______ _______ _____ _____    ______ ____
ROOT
ATOM      1  C   UNL     1       0.172   8.941  20.202  0.00  0.00    +0.000 C 
ATOM      2  O   UNL     1       0.266   9.194  21.614  0.00  0.00    +0.000 OA
ATOM      3  O   UNL     1       1.177  10.330  21.826  0.00  0.00    +0.000 OA
ATOM      4  C   UNL     1       0.656  11.469  21.116  0.00  0.00    +0.000 C 
ATOM      5  O   UNL     1       0.604  11.189  19.707  0.00  0.00    +0.000 OA
ATOM      6  O   UNL     1      -0.355  10.090  19.517  0.00  0.00    +0.000 OA
ENDROOT
BRANCH   1  10
ATOM      7  C   UNL     1       3.415   7.033  18.070  0.00  0.00    +0.000 A 
ATOM      8  C   UNL     1       3.053   6.578  19.344  0.00  0.00    +0.000 A 
ATOM      9  C   UNL     1       2.060   7.236  20.074  0.00  0.00    +0.000 A 
ATOM     10  C   UNL     1       1.420   8.367  19.548  0.00  0.00    +0.000 A 
ATOM     11  C   UNL     1       1.853   8.867  18.308  0.00  0.00    +0.000 A 
ATOM     12  C   UNL     1       2.832   8.202  17.574  0.00  0.00    +0.000 A 
BRANCH   7  14
ATOM     13  C   UNL     1       5.737   6.864  17.160  0.00  0.00    +0.000 C 
ATOM     14  C   UNL     1       4.350   6.235  17.198  0.00  0.00    +0.000 C 
ENDBRANCH   7  14
ENDBRANCH   1  10
BRANCH   4  15
ATOM     15  C   UNL     1      -0.643  12.038  21.670  0.00  0.00    +0.000 A 
ATOM     16  C   UNL     1      -1.359  13.016  20.965  0.00  0.00    +0.000 A 
ATOM     17  C   UNL     1      -2.607  13.449  21.419  0.00  0.00    +0.000 A 
ATOM     18  C   UNL     1      -3.175  12.901  22.579  0.00  0.00    +0.000 A 
ATOM     19  C   UNL     1      -2.455  11.942  23.297  0.00  0.00    +0.000 A 
ATOM     20  C   UNL     1      -1.205  11.517  22.848  0.00  0.00    +0.000 A 
BRANCH  18  21
ATOM     21  C   UNL     1      -4.541  13.340  23.041  0.00  0.00    +0.000 C 
BRANCH  21  22
ATOM     22  O   UNL     1      -5.461  12.297  22.755  0.00  0.00    +0.000 OA
BRANCH  22  23
ATOM     23  S   UNL     1      -7.031  12.642  22.971  0.00  0.00    +0.000 S 
ATOM     24  C   UNL     1      -6.798  14.174  23.848  0.00  0.00    +0.000 C 
ATOM     25  O   UNL     1      -7.623  12.926  21.684  0.00  0.00    +0.000 OA
ATOM     26  O   UNL     1      -7.596  11.671  23.878  0.00  0.00    +0.000 OA
ENDBRANCH  22  23
ENDBRANCH  21  22
ENDBRANCH  18  21
ENDBRANCH   4  15
TORSDOF 6
ENDMDL
MODEL 4
REMARK VINA RESULT:      -6.7      4.080      9.541
REMARK  Name = 
REMARK  8 active torsions:
REMARK  status: ('A' for Active; 'I' for Inactive)
REMARK    1  A    between atoms: C_1  and  C_2
REMARK    2  A    between atoms: C_2  and  C_3
REMARK    3  A    between atoms: C_6  and  C_7
REMARK    4  A    between atoms: C_10  and  C_11
REMARK    5  A    between atoms: C_14  and  C_15
REMARK    6  A    between atoms: C_15  and  O_16
REMARK    7  A    between atoms: O_16  and  S_17
REMARK    8  A    between atoms: S_17  and  C_18
REMARK                            x       y       z     vdW  Elec       q    Type
REMARK                         _______ _______ _______ _____ _____    ______ ____
ROOT
ATOM      1  C   UNL     1       0.271  10.638  22.155  0.00  0.00    +0.000 C 
ATOM      2  O   UNL     1      -0.329   9.442  21.629  0.00  0.00    +0.000 OA
ATOM      3  O   UNL     1      -0.835   9.730  20.277  0.00  0.00    +0.000 OA
ATOM      4  C   UNL     1       0.267  10.173  19.463  0.00  0.00    +0.000 C 
ATOM      5  O   UNL     1       0.822  11.383  20.005  0.00  0.00    +0.000 OA
ATOM      6  O   UNL     1       1.371  11.056  21.330  0.00  0.00    +0.000 OA
ENDROOT
BRANCH   1  10
ATOM      7  C   UNL     1      -2.701  13.730  22.713  0.00  0.00    +0.000 A 
ATOM      8  C   UNL     1      -1.444  14.056  22.188  0.00  0.00    +0.000 A 
ATOM      9  C   UNL     1      -0.450  13.080  22.077  0.00  0.00    +0.000 A 
ATOM     10  C   UNL     1      -0.691  11.765  22.499  0.00  0.00    +0.000 A 
ATOM     11  C   UNL     1      -1.924  11.470  23.104  0.00  0.00    +0.000 A 
ATOM     12  C   UNL     1      -2.921  12.439  23.201  0.00  0.00    +0.000 A 
BRANCH   7  14
ATOM     13  C   UNL     1      -5.079  14.103  22.041  0.00  0.00    +0.000 C 
ATOM     14  C   UNL     1      -3.837  14.718  22.673  0.00  0.00    +0.000 C 
ENDBRANCH   7  14
ENDBRANCH   1  10
BRANCH   4  15
ATOM     15  C   UNL     1       1.313   9.110  19.156  0.00  0.00    +0.000 A 
ATOM     16  C   UNL     1       1.517   8.029  20.026  0.00  0.00    +0.000 A 
ATOM     17  C   UNL     1       2.394   6.996  19.683  0.00  0.00    +0.000 A 
ATOM     18  C   UNL     1       3.072   7.012  18.456  0.00  0.00    +0.000 A 
ATOM     19  C   UNL     1       2.888   8.099  17.595  0.00  0.00    +0.000 A 
ATOM     20  C   UNL     1       2.021   9.134  17.942  0.00  0.00    +0.000 A 
BRANCH  18  21
ATOM     21  C   UNL     1       3.982   5.875  18.071  0.00  0.00    +0.000 C 
BRANCH  21  22
ATOM     22  O   UNL     1       3.251   4.663  18.189  0.00  0.00    +0.000 OA
BRANCH  22  23
ATOM     23  S   UNL     1       3.882   3.533  19.167  0.00  0.00    +0.000 S 
ATOM     24  C   UNL     1       3.485   2.123  18.153  0.00  0.00    +0.000 C 
ATOM     25  O   UNL     1       5.317   3.698  19.197  0.00  0.00    +0.000 OA
ATOM     26  O   UNL     1       3.090   3.473  20.373  0.00  0.00    +0.000 OA
ENDBRANCH  22  23
ENDBRANCH  21  22
ENDBRANCH  18  21
ENDBRANCH   4  15
TORSDOF 6
ENDMDL
MODEL 5
REMARK VINA RESULT:      -6.7      4.338      9.935
REMARK  Name = 
REMARK  8 active torsions:
REMARK  status: ('A' for Active; 'I' for Inactive)
REMARK    1  A    between atoms: C_1  and  C_2
REMARK    2  A    between atoms: C_2  and  C_3
REMARK    3  A    between atoms: C_6  and  C_7
REMARK    4  A    between atoms: C_10  and  C_11
REMARK    5  A    between atoms: C_14  and  C_15
REMARK    6  A    between atoms: C_15  and  O_16
REMARK    7  A    between atoms: O_16  and  S_17
REMARK    8  A    between atoms: S_17  and  C_18
REMARK                            x       y       z     vdW  Elec       q    Type
REMARK                         _______ _______ _______ _____ _____    ______ ____
ROOT
ATOM      1  C   UNL     1       0.360  11.771  20.324  0.00  0.00    +0.000 C 
ATOM      2  O   UNL     1       1.410  11.189  21.115  0.00  0.00    +0.000 OA
ATOM      3  O   UNL     1       0.860  10.034  21.843  0.00  0.00    +0.000 OA
ATOM      4  C   UNL     1       0.337   9.098  20.883  0.00  0.00    +0.000 C 
ATOM      5  O   UNL     1      -0.726   9.706  20.131  0.00  0.00    +0.000 OA
ATOM      6  O   UNL     1      -0.139  10.820  19.370  0.00  0.00    +0.000 OA
ENDROOT
BRANCH   1  10
ATOM      7  C   UNL     1      -2.892  13.350  22.697  0.00  0.00    +0.000 A 
ATOM      8  C   UNL     1      -3.064  13.151  21.322  0.00  0.00    +0.000 A 
ATOM      9  C   UNL     1      -1.996  12.716  20.532  0.00  0.00    +0.000 A 
ATOM     10  C   UNL     1      -0.736  12.484  21.101  0.00  0.00    +0.000 A 
ATOM     11  C   UNL     1      -0.553  12.771  22.464  0.00  0.00    +0.000 A 
ATOM     12  C   UNL     1      -1.621  13.190  23.255  0.00  0.00    +0.000 A 
BRANCH   7  14
ATOM     13  C   UNL     1      -4.273  12.531  24.613  0.00  0.00    +0.000 C 
ATOM     14  C   UNL     1      -4.070  13.642  23.591  0.00  0.00    +0.000 C 
ENDBRANCH   7  14
ENDBRANCH   1  10
BRANCH   4  15
ATOM     15  C   UNL     1       1.382   8.414  20.011  0.00  0.00    +0.000 A 
ATOM     16  C   UNL     1       1.970   7.204  20.407  0.00  0.00    +0.000 A 
ATOM     17  C   UNL     1       2.839   6.523  19.552  0.00  0.00    +0.000 A 
ATOM     18  C   UNL     1       3.127   7.027  18.275  0.00  0.00    +0.000 A 
ATOM     19  C   UNL     1       2.561   8.244  17.884  0.00  0.00    +0.000 A 
ATOM     20  C   UNL     1       1.700   8.928  18.742  0.00  0.00    +0.000 A 
BRANCH  18  21
ATOM     21  C   UNL     1       4.030   6.266  17.339  0.00  0.00    +0.000 C 
BRANCH  21  22
ATOM     22  O   UNL     1       5.119   7.109  16.991  0.00  0.00    +0.000 OA
BRANCH  22  23
ATOM     23  S   UNL     1       6.600   6.564  17.363  0.00  0.00    +0.000 S 
ATOM     24  C   UNL     1       6.728   5.369  16.048  0.00  0.00    +0.000 C 
ATOM     25  O   UNL     1       7.554   7.623  17.127  0.00  0.00    +0.000 OA
ATOM     26  O   UNL     1       6.530   5.860  18.622  0.00  0.00    +0.000 OA
ENDBRANCH  22  23
ENDBRANCH  21  22
ENDBRANCH  18  21
ENDBRANCH   4  15
TORSDOF 6
ENDMDL
MODEL 6
REMARK VINA RESULT:      -6.6      0.937      1.435
REMARK  Name = 
REMARK  8 active torsions:
REMARK  status: ('A' for Active; 'I' for Inactive)
REMARK    1  A    between atoms: C_1  and  C_2
REMARK    2  A    between atoms: C_2  and  C_3
REMARK    3  A    between atoms: C_6  and  C_7
REMARK    4  A    between atoms: C_10  and  C_11
REMARK    5  A    between atoms: C_14  and  C_15
REMARK    6  A    between atoms: C_15  and  O_16
REMARK    7  A    between atoms: O_16  and  S_17
REMARK    8  A    between atoms: S_17  and  C_18
REMARK                            x       y       z     vdW  Elec       q    Type
REMARK                         _______ _______ _______ _____ _____    ______ ____
ROOT
ATOM      1  C   UNL     1       0.276   8.789  20.033  0.00  0.00    +0.000 C 
ATOM      2  O   UNL     1       0.266   8.908  21.466  0.00  0.00    +0.000 OA
ATOM      3  O   UNL     1       1.183   9.993  21.851  0.00  0.00    +0.000 OA
ATOM      4  C   UNL     1       0.744  11.208  21.214  0.00  0.00    +0.000 C 
ATOM      5  O   UNL     1       0.794  11.059  19.785  0.00  0.00    +0.000 OA
ATOM      6  O   UNL     1      -0.171  10.010  19.422  0.00  0.00    +0.000 OA
ENDROOT
BRANCH   1  10
ATOM      7  C   UNL     1       3.631   6.944  18.023  0.00  0.00    +0.000 A 
ATOM      8  C   UNL     1       3.244   6.494  19.292  0.00  0.00    +0.000 A 
ATOM      9  C   UNL     1       2.212   7.134  19.984  0.00  0.00    +0.000 A 
ATOM     10  C   UNL     1       1.558   8.241  19.425  0.00  0.00    +0.000 A 
ATOM     11  C   UNL     1       2.014   8.737  18.191  0.00  0.00    +0.000 A 
ATOM     12  C   UNL     1       3.032   8.090  17.495  0.00  0.00    +0.000 A 
BRANCH   7  14
ATOM     13  C   UNL     1       4.165   4.714  17.030  0.00  0.00    +0.000 C 
ATOM     14  C   UNL     1       4.613   6.161  17.190  0.00  0.00    +0.000 C 
ENDBRANCH   7  14
ENDBRANCH   1  10
BRANCH   4  15
ATOM     15  C   UNL     1      -0.582  11.761  21.720  0.00  0.00    +0.000 A 
ATOM     16  C   UNL     1      -1.168  11.265  22.893  0.00  0.00    +0.000 A 
ATOM     17  C   UNL     1      -2.321  11.854  23.416  0.00  0.00    +0.000 A 
ATOM     18  C   UNL     1      -2.905  12.964  22.788  0.00  0.00    +0.000 A 
ATOM     19  C   UNL     1      -2.337  13.449  21.606  0.00  0.00    +0.000 A 
ATOM     20  C   UNL     1      -1.190  12.854  21.079  0.00  0.00    +0.000 A 
BRANCH  18  21
ATOM     21  C   UNL     1      -4.123  13.623  23.379  0.00  0.00    +0.000 C 
BRANCH  21  22
ATOM     22  O   UNL     1      -4.991  12.606  23.856  0.00  0.00    +0.000 OA
BRANCH  22  23
ATOM     23  S   UNL     1      -6.428  12.479  23.114  0.00  0.00    +0.000 S 
ATOM     24  C   UNL     1      -6.873  14.200  23.208  0.00  0.00    +0.000 C 
ATOM     25  O   UNL     1      -6.204  12.129  21.730  0.00  0.00    +0.000 OA
ATOM     26  O   UNL     1      -7.319  11.723  23.963  0.00  0.00    +0.000 OA
ENDBRANCH  22  23
ENDBRANCH  21  22
ENDBRANCH  18  21
ENDBRANCH   4  15
TORSDOF 6
ENDMDL
MODEL 7
REMARK VINA RESULT:      -6.6      4.149      9.622
REMARK  Name = 
REMARK  8 active torsions:
REMARK  status: ('A' for Active; 'I' for Inactive)
REMARK    1  A    between atoms: C_1  and  C_2
REMARK    2  A    between atoms: C_2  and  C_3
REMARK    3  A    between atoms: C_6  and  C_7
REMARK    4  A    between atoms: C_10  and  C_11
REMARK    5  A    between atoms: C_14  and  C_15
REMARK    6  A    between atoms: C_15  and  O_16
REMARK    7  A    between atoms: O_16  and  S_17
REMARK    8  A    between atoms: S_17  and  C_18
REMARK                            x       y       z     vdW  Elec       q    Type
REMARK                         _______ _______ _______ _____ _____    ______ ____
ROOT
ATOM      1  C   UNL     1       0.712  12.118  21.339  0.00  0.00    +0.000 C 
ATOM      2  O   UNL     1       0.728  10.809  21.933  0.00  0.00    +0.000 OA
ATOM      3  O   UNL     1      -0.423  10.048  21.418  0.00  0.00    +0.000 OA
ATOM      4  C   UNL     1      -0.319   9.982  19.984  0.00  0.00    +0.000 C 
ATOM      5  O   UNL     1      -0.367  11.306  19.426  0.00  0.00    +0.000 OA
ATOM      6  O   UNL     1       0.822  12.025  19.909  0.00  0.00    +0.000 OA
ENDROOT
BRANCH   1  10
ATOM      7  C   UNL     1      -2.116  15.001  22.886  0.00  0.00    +0.000 A 
ATOM      8  C   UNL     1      -1.949  13.771  23.533  0.00  0.00    +0.000 A 
ATOM      9  C   UNL     1      -1.096  12.801  22.998  0.00  0.00    +0.000 A 
ATOM     10  C   UNL     1      -0.406  13.040  21.802  0.00  0.00    +0.000 A 
ATOM     11  C   UNL     1      -0.649  14.242  21.116  0.00  0.00    +0.000 A 
ATOM     12  C   UNL     1      -1.487  15.215  21.656  0.00  0.00    +0.000 A 
BRANCH   7  14
ATOM     13  C   UNL     1      -4.290  15.674  23.918  0.00  0.00    +0.000 C 
ATOM     14  C   UNL     1      -2.885  16.121  23.537  0.00  0.00    +0.000 C 
ENDBRANCH   7  14
ENDBRANCH   1  10
BRANCH   4  15
ATOM     15  C   UNL     1       0.837   9.142  19.457  0.00  0.00    +0.000 A 
ATOM     16  C   UNL     1       1.415   8.137  20.246  0.00  0.00    +0.000 A 
ATOM     17  C   UNL     1       2.395   7.294  19.717  0.00  0.00    +0.000 A 
ATOM     18  C   UNL     1       2.805   7.424  18.382  0.00  0.00    +0.000 A 
ATOM     19  C   UNL     1       2.248   8.438  17.598  0.00  0.00    +0.000 A 
ATOM     20  C   UNL     1       1.276   9.286  18.130  0.00  0.00    +0.000 A 
BRANCH  18  21
ATOM     21  C   UNL     1       3.830   6.483  17.803  0.00  0.00    +0.000 C 
BRANCH  21  22
ATOM     22  O   UNL     1       4.392   5.730  18.868  0.00  0.00    +0.000 OA
BRANCH  22  23
ATOM     23  S   UNL     1       4.204   4.121  18.791  0.00  0.00    +0.000 S 
ATOM     24  C   UNL     1       4.414   3.963  17.029  0.00  0.00    +0.000 C 
ATOM     25  O   UNL     1       5.324   3.493  19.453  0.00  0.00    +0.000 OA
ATOM     26  O   UNL     1       2.836   3.801  19.125  0.00  0.00    +0.000 OA
ENDBRANCH  22  23
ENDBRANCH  21  22
ENDBRANCH  18  21
ENDBRANCH   4  15
TORSDOF 6
ENDMDL
MODEL 8
REMARK VINA RESULT:      -6.6      4.656     10.124
REMARK  Name = 
REMARK  8 active torsions:
REMARK  status: ('A' for Active; 'I' for Inactive)
REMARK    1  A    between atoms: C_1  and  C_2
REMARK    2  A    between atoms: C_2  and  C_3
REMARK    3  A    between atoms: C_6  and  C_7
REMARK    4  A    between atoms: C_10  and  C_11
REMARK    5  A    between atoms: C_14  and  C_15
REMARK    6  A    between atoms: C_15  and  O_16
REMARK    7  A    between atoms: O_16  and  S_17
REMARK    8  A    between atoms: S_17  and  C_18
REMARK                            x       y       z     vdW  Elec       q    Type
REMARK                         _______ _______ _______ _____ _____    ______ ____
ROOT
ATOM      1  C   UNL     1       0.374  10.726  21.987  0.00  0.00    +0.000 C 
ATOM      2  O   UNL     1      -0.144   9.442  21.600  0.00  0.00    +0.000 OA
ATOM      3  O   UNL     1      -0.788   9.576  20.283  0.00  0.00    +0.000 OA
ATOM      4  C   UNL     1       0.192  10.059  19.344  0.00  0.00    +0.000 C 
ATOM      5  O   UNL     1       0.664  11.354  19.750  0.00  0.00    +0.000 OA
ATOM      6  O   UNL     1       1.353  11.182  21.038  0.00  0.00    +0.000 OA
ENDROOT
BRANCH   1  10
ATOM      7  C   UNL     1      -2.335  13.780  23.414  0.00  0.00    +0.000 A 
ATOM      8  C   UNL     1      -2.681  12.429  23.533  0.00  0.00    +0.000 A 
ATOM      9  C   UNL     1      -1.850  11.437  23.005  0.00  0.00    +0.000 A 
ATOM     10  C   UNL     1      -0.665  11.780  22.339  0.00  0.00    +0.000 A 
ATOM     11  C   UNL     1      -0.373  13.141  22.148  0.00  0.00    +0.000 A 
ATOM     12  C   UNL     1      -1.193  14.129  22.687  0.00  0.00    +0.000 A 
BRANCH   7  14
ATOM     13  C   UNL     1      -2.746  16.236  23.627  0.00  0.00    +0.000 C 
ATOM     14  C   UNL     1      -3.122  14.848  24.129  0.00  0.00    +0.000 C 
ENDBRANCH   7  14
ENDBRANCH   1  10
BRANCH   4  15
ATOM     15  C   UNL     1       1.311   9.079  19.016  0.00  0.00    +0.000 A 
ATOM     16  C   UNL     1       1.529   7.944  19.810  0.00  0.00    +0.000 A 
ATOM     17  C   UNL     1       2.479   6.989  19.439  0.00  0.00    +0.000 A 
ATOM     18  C   UNL     1       3.219   7.139  18.257  0.00  0.00    +0.000 A 
ATOM     19  C   UNL     1       3.020   8.280  17.474  0.00  0.00    +0.000 A 
ATOM     20  C   UNL     1       2.078   9.237  17.850  0.00  0.00    +0.000 A 
BRANCH  18  21
ATOM     21  C   UNL     1       4.211   6.085  17.838  0.00  0.00    +0.000 C 
BRANCH  21  22
ATOM     22  O   UNL     1       5.489   6.694  17.735  0.00  0.00    +0.000 OA
BRANCH  22  23
ATOM     23  S   UNL     1       6.732   5.709  17.397  0.00  0.00    +0.000 S 
ATOM     24  C   UNL     1       7.744   6.148  18.795  0.00  0.00    +0.000 C 
ATOM     25  O   UNL     1       6.292   4.341  17.549  0.00  0.00    +0.000 OA
ATOM     26  O   UNL     1       7.378   6.179  16.193  0.00  0.00    +0.000 OA
ENDBRANCH  22  23
ENDBRANCH  21  22
ENDBRANCH  18  21
ENDBRANCH   4  15
TORSDOF 6
ENDMDL
MODEL 9
REMARK VINA RESULT:      -6.6      4.098      9.394
REMARK  Name = 
REMARK  8 active torsions:
REMARK  status: ('A' for Active; 'I' for Inactive)
REMARK    1  A    between atoms: C_1  and  C_2
REMARK    2  A    between atoms: C_2  and  C_3
REMARK    3  A    between atoms: C_6  and  C_7
REMARK    4  A    between atoms: C_10  and  C_11
REMARK    5  A    between atoms: C_14  and  C_15
REMARK    6  A    between atoms: C_15  and  O_16
REMARK    7  A    between atoms: O_16  and  S_17
REMARK    8  A    between atoms: S_17  and  C_18
REMARK                            x       y       z     vdW  Elec       q    Type
REMARK                         _______ _______ _______ _____ _____    ______ ____
ROOT
ATOM      1  C   UNL     1      -0.064  10.495  22.224  0.00  0.00    +0.000 C 
ATOM      2  O   UNL     1      -0.730   9.576  21.342  0.00  0.00    +0.000 OA
ATOM      3  O   UNL     1      -0.849  10.205  20.016  0.00  0.00    +0.000 OA
ATOM      4  C   UNL     1       0.472  10.529  19.546  0.00  0.00    +0.000 C 
ATOM      5  O   UNL     1       1.094  11.469  20.438  0.00  0.00    +0.000 OA
ATOM      6  O   UNL     1       1.254  10.797  21.737  0.00  0.00    +0.000 OA
ENDROOT
BRANCH   1  10
ATOM      7  C   UNL     1      -2.584  13.938  22.929  0.00  0.00    +0.000 A 
ATOM      8  C   UNL     1      -1.297  14.110  22.403  0.00  0.00    +0.000 A 
ATOM      9  C   UNL     1      -0.446  13.013  22.245  0.00  0.00    +0.000 A 
ATOM     10  C   UNL     1      -0.862  11.728  22.620  0.00  0.00    +0.000 A 
ATOM     11  C   UNL     1      -2.121  11.581  23.227  0.00  0.00    +0.000 A 
ATOM     12  C   UNL     1      -2.975  12.671  23.371  0.00  0.00    +0.000 A 
BRANCH   7  14
ATOM     13  C   UNL     1      -4.027  15.395  24.356  0.00  0.00    +0.000 C 
ATOM     14  C   UNL     1      -3.575  15.073  22.938  0.00  0.00    +0.000 C 
ENDBRANCH   7  14
ENDBRANCH   1  10
BRANCH   4  15
ATOM     15  C   UNL     1       1.353   9.332  19.216  0.00  0.00    +0.000 A 
ATOM     16  C   UNL     1       1.516   8.284  20.132  0.00  0.00    +0.000 A 
ATOM     17  C   UNL     1       2.230   7.135  19.780  0.00  0.00    +0.000 A 
ATOM     18  C   UNL     1       2.780   7.001  18.497  0.00  0.00    +0.000 A 
ATOM     19  C   UNL     1       2.639   8.053  17.587  0.00  0.00    +0.000 A 
ATOM     20  C   UNL     1       1.935   9.203  17.943  0.00  0.00    +0.000 A 
BRANCH  18  21
ATOM     21  C   UNL     1       3.510   5.743  18.107  0.00  0.00    +0.000 C 
BRANCH  21  22
ATOM     22  O   UNL     1       2.554   4.803  17.637  0.00  0.00    +0.000 OA
BRANCH  22  23
ATOM     23  S   UNL     1       2.593   3.333  18.321  0.00  0.00    +0.000 S 
ATOM     24  C   UNL     1       1.222   3.574  19.432  0.00  0.00    +0.000 C 
ATOM     25  O   UNL     1       2.223   2.352  17.327  0.00  0.00    +0.000 OA
ATOM     26  O   UNL     1       3.804   3.219  19.100  0.00  0.00    +0.000 OA
ENDBRANCH  22  23
ENDBRANCH  21  22
ENDBRANCH  18  21
ENDBRANCH   4  15
TORSDOF 6
ENDMDL
