MODEL 1
REMARK VINA RESULT:      -7.7      0.000      0.000
REMARK  Name = 
REMARK  2 active torsions:
REMARK  status: ('A' for Active; 'I' for Inactive)
REMARK    1  A    between atoms: C_1  and  C_2
REMARK    2  A    between atoms: C_11  and  C_12
REMARK                            x       y       z     vdW  Elec       q    Type
REMARK                         _______ _______ _______ _____ _____    ______ ____
ROOT
ATOM      1  C   UNL     1      -2.389   9.152  15.887  0.00  0.00    +0.000 C 
ATOM      2  C   UNL     1      -3.042  10.071  16.897  0.00  0.00    +0.000 A 
ATOM      3  C   UNL     1      -3.843  11.186  16.562  0.00  0.00    +0.000 A 
ATOM      4  C   UNL     1      -4.284  12.148  17.537  0.00  0.00    +0.000 A 
ATOM      5  C   UNL     1      -3.753  12.134  18.836  0.00  0.00    +0.000 A 
ATOM      6  C   UNL     1      -2.716  11.062  19.075  0.00  0.00    +0.000 A 
ATOM      7  C   UNL     1      -2.659   9.925  18.228  0.00  0.00    +0.000 A 
ATOM      8  S   UNL     1      -0.655  11.534  18.536  0.00  0.00    +0.000 S 
ATOM      9  C   UNL     1       0.496   9.909  18.885  0.00  0.00    +0.000 A 
ATOM     10  C   UNL     1       1.273   9.378  17.809  0.00  0.00    +0.000 A 
ATOM     11  C   UNL     1       2.209   8.299  18.011  0.00  0.00    +0.000 A 
ATOM     12  C   UNL     1       3.107   7.705  16.957  0.00  0.00    +0.000 C 
ATOM     13  C   UNL     1       2.365   7.720  19.270  0.00  0.00    +0.000 A 
ATOM     14  C   UNL     1       1.689   8.256  20.332  0.00  0.00    +0.000 A 
ATOM     15  C   UNL     1       0.825   9.361  20.164  0.00  0.00    +0.000 A 
ATOM     16  O   UNL     1       0.499   9.789  21.419  0.00  0.00    +0.000 OA
ATOM     17  C   UNL     1      -0.525  10.699  21.363  0.00  0.00    +0.000 C 
ATOM     18  C   UNL     1      -1.106  10.946  22.679  0.00  0.00    +0.000 C 
ATOM     19  O   UNL     1      -0.712  10.468  23.745  0.00  0.00    +0.000 OA
ATOM     20  N   UNL     1      -2.159  11.777  22.533  0.00  0.00    +0.000 N 
ATOM     21  C   UNL     1      -2.971  11.990  23.678  0.00  0.00    +0.000 C 
ATOM     22  C   UNL     1      -3.768  13.184  23.339  0.00  0.00    +0.000 C 
ATOM     23  N   UNL     1      -4.659  13.675  24.412  0.00  0.00    +0.000 NA
ATOM     24  C   UNL     1      -5.602  14.359  23.573  0.00  0.00    +0.000 C 
ATOM     25  C   UNL     1      -6.933  15.033  23.555  0.00  0.00    +0.000 C 
ATOM     26  N   UNL     1      -7.058  15.249  22.025  0.00  0.00    +0.000 N 
ATOM     27  C   UNL     1      -6.955  14.125  21.115  0.00  0.00    +0.000 C 
ATOM     28  O   UNL     1      -7.916  13.347  21.102  0.00  0.00    +0.000 OA
ATOM     29  C   UNL     1      -5.551  13.831  20.037  0.00  0.00    +0.000 C 
ATOM     30  O   UNL     1      -4.531  12.675  19.973  0.00  0.00    +0.000 OA
ATOM     31  H   UNL     1      -2.539  11.956  21.598  0.00  0.00    +0.000 HD
ATOM     32  H   UNL     1      -4.119  14.302  25.007  0.00  0.00    +0.000 HD
ATOM     33  H   UNL     1      -6.656  16.136  21.760  0.00  0.00    +0.000 HD
ENDROOT
TORSDOF 0
ENDMDL
MODEL 2
REMARK VINA RESULT:      -6.8     10.542     13.726
REMARK  Name = 
REMARK  2 active torsions:
REMARK  status: ('A' for Active; 'I' for Inactive)
REMARK    1  A    between atoms: C_1  and  C_2
REMARK    2  A    between atoms: C_11  and  C_12
REMARK                            x       y       z     vdW  Elec       q    Type
REMARK                         _______ _______ _______ _____ _____    ______ ____
ROOT
ATOM      1  C   UNL     1       5.755  12.130  24.857  0.00  0.00    +0.000 C 
ATOM      2  C   UNL     1       6.727  12.273  23.705  0.00  0.00    +0.000 A 
ATOM      3  C   UNL     1       7.935  11.550  23.586  0.00  0.00    +0.000 A 
ATOM      4  C   UNL     1       8.925  11.850  22.585  0.00  0.00    +0.000 A 
ATOM      5  C   UNL     1       8.824  13.021  21.818  0.00  0.00    +0.000 A 
ATOM      6  C   UNL     1       7.633  13.886  22.154  0.00  0.00    +0.000 A 
ATOM      7  C   UNL     1       6.512  13.327  22.821  0.00  0.00    +0.000 A 
ATOM      8  S   UNL     1       7.865  15.309  23.791  0.00  0.00    +0.000 S 
ATOM      9  C   UNL     1       6.109  16.271  24.072  0.00  0.00    +0.000 A 
ATOM     10  C   UNL     1       5.509  16.233  25.368  0.00  0.00    +0.000 A 
ATOM     11  C   UNL     1       4.323  16.994  25.677  0.00  0.00    +0.000 A 
ATOM     12  C   UNL     1       3.645  17.061  27.021  0.00  0.00    +0.000 C 
ATOM     13  C   UNL     1       3.707  17.776  24.700  0.00  0.00    +0.000 A 
ATOM     14  C   UNL     1       4.300  17.888  23.472  0.00  0.00    +0.000 A 
ATOM     15  C   UNL     1       5.503  17.208  23.178  0.00  0.00    +0.000 A 
ATOM     16  O   UNL     1       5.944  17.704  21.985  0.00  0.00    +0.000 OA
ATOM     17  C   UNL     1       6.970  16.936  21.499  0.00  0.00    +0.000 C 
ATOM     18  C   UNL     1       7.260  17.239  20.100  0.00  0.00    +0.000 C 
ATOM     19  O   UNL     1       6.720  18.116  19.423  0.00  0.00    +0.000 OA
ATOM     20  N   UNL     1       8.213  16.388  19.666  0.00  0.00    +0.000 N 
ATOM     21  C   UNL     1       8.500  16.401  18.277  0.00  0.00    +0.000 C 
ATOM     22  C   UNL     1       9.787  15.688  18.165  0.00  0.00    +0.000 C 
ATOM     23  N   UNL     1      10.361  15.627  16.804  0.00  0.00    +0.000 NA
ATOM     24  C   UNL     1      11.166  14.455  16.994  0.00  0.00    +0.000 C 
ATOM     25  C   UNL     1      11.995  13.433  16.290  0.00  0.00    +0.000 C 
ATOM     26  N   UNL     1      12.251  12.482  17.487  0.00  0.00    +0.000 N 
ATOM     27  C   UNL     1      11.140  11.926  18.234  0.00  0.00    +0.000 C 
ATOM     28  O   UNL     1      10.482  11.051  17.658  0.00  0.00    +0.000 OA
ATOM     29  C   UNL     1      10.701  12.424  19.901  0.00  0.00    +0.000 C 
ATOM     30  O   UNL     1       9.433  13.093  20.471  0.00  0.00    +0.000 OA
ATOM     31  H   UNL     1       8.453  15.564  20.229  0.00  0.00    +0.000 HD
ATOM     32  H   UNL     1      10.908  16.473  16.655  0.00  0.00    +0.000 HD
ATOM     33  H   UNL     1      13.089  12.754  17.980  0.00  0.00    +0.000 HD
ENDROOT
TORSDOF 0
ENDMDL
MODEL 3
REMARK VINA RESULT:      -6.7      4.035      7.744
REMARK  Name = 
REMARK  2 active torsions:
REMARK  status: ('A' for Active; 'I' for Inactive)
REMARK    1  A    between atoms: C_1  and  C_2
REMARK    2  A    between atoms: C_11  and  C_12
REMARK                            x       y       z     vdW  Elec       q    Type
REMARK                         _______ _______ _______ _____ _____    ______ ____
ROOT
ATOM      1  C   UNL     1      -5.254  16.981  24.691  0.00  0.00    +0.000 C 
ATOM      2  C   UNL     1      -5.136  16.043  23.508  0.00  0.00    +0.000 A 
ATOM      3  C   UNL     1      -6.097  15.066  23.165  0.00  0.00    +0.000 A 
ATOM      4  C   UNL     1      -5.864  14.066  22.157  0.00  0.00    +0.000 A 
ATOM      5  C   UNL     1      -4.579  13.889  21.620  0.00  0.00    +0.000 A 
ATOM      6  C   UNL     1      -3.529  14.806  22.199  0.00  0.00    +0.000 A 
ATOM      7  C   UNL     1      -3.912  16.010  22.845  0.00  0.00    +0.000 A 
ATOM      8  S   UNL     1      -2.547  14.162  24.037  0.00  0.00    +0.000 S 
ATOM      9  C   UNL     1      -1.256  15.603  24.625  0.00  0.00    +0.000 A 
ATOM     10  C   UNL     1      -1.393  16.149  25.939  0.00  0.00    +0.000 A 
ATOM     11  C   UNL     1      -0.438  17.089  26.472  0.00  0.00    +0.000 A 
ATOM     12  C   UNL     1      -0.465  17.681  27.857  0.00  0.00    +0.000 C 
ATOM     13  C   UNL     1       0.644  17.516  25.702  0.00  0.00    +0.000 A 
ATOM     14  C   UNL     1       0.840  16.955  24.470  0.00  0.00    +0.000 A 
ATOM     15  C   UNL     1      -0.045  15.978  23.964  0.00  0.00    +0.000 A 
ATOM     16  O   UNL     1       0.546  15.464  22.845  0.00  0.00    +0.000 OA
ATOM     17  C   UNL     1      -0.343  14.686  22.149  0.00  0.00    +0.000 C 
ATOM     18  C   UNL     1       0.143  14.375  20.807  0.00  0.00    +0.000 C 
ATOM     19  O   UNL     1       1.239  14.695  20.342  0.00  0.00    +0.000 OA
ATOM     20  N   UNL     1      -0.818  13.687  20.154  0.00  0.00    +0.000 N 
ATOM     21  C   UNL     1      -0.609  13.452  18.770  0.00  0.00    +0.000 C 
ATOM     22  C   UNL     1      -1.581  12.396  18.431  0.00  0.00    +0.000 C 
ATOM     23  N   UNL     1      -1.519  11.903  17.039  0.00  0.00    +0.000 NA
ATOM     24  C   UNL     1      -2.868  11.419  16.953  0.00  0.00    +0.000 C 
ATOM     25  C   UNL     1      -3.907  10.905  16.014  0.00  0.00    +0.000 C 
ATOM     26  N   UNL     1      -5.103  10.860  16.999  0.00  0.00    +0.000 N 
ATOM     27  C   UNL     1      -5.501  12.051  17.723  0.00  0.00    +0.000 C 
ATOM     28  O   UNL     1      -6.060  12.931  17.057  0.00  0.00    +0.000 OA
ATOM     29  C   UNL     1      -5.240  12.293  19.482  0.00  0.00    +0.000 C 
ATOM     30  O   UNL     1      -4.402  13.327  20.262  0.00  0.00    +0.000 OA
ATOM     31  H   UNL     1      -1.767  13.648  20.541  0.00  0.00    +0.000 HD
ATOM     32  H   UNL     1      -0.821  11.163  16.998  0.00  0.00    +0.000 HD
ATOM     33  H   UNL     1      -5.145   9.965  17.463  0.00  0.00    +0.000 HD
ENDROOT
TORSDOF 0
ENDMDL
MODEL 4
REMARK VINA RESULT:      -6.7      4.469      5.323
REMARK  Name = 
REMARK  2 active torsions:
REMARK  status: ('A' for Active; 'I' for Inactive)
REMARK    1  A    between atoms: C_1  and  C_2
REMARK    2  A    between atoms: C_11  and  C_12
REMARK                            x       y       z     vdW  Elec       q    Type
REMARK                         _______ _______ _______ _____ _____    ______ ____
ROOT
ATOM      1  C   UNL     1      -0.392  18.110  17.793  0.00  0.00    +0.000 C 
ATOM      2  C   UNL     1      -1.490  17.550  18.674  0.00  0.00    +0.000 A 
ATOM      3  C   UNL     1      -2.643  18.266  19.064  0.00  0.00    +0.000 A 
ATOM      4  C   UNL     1      -3.564  17.776  20.055  0.00  0.00    +0.000 A 
ATOM      5  C   UNL     1      -3.237  16.656  20.833  0.00  0.00    +0.000 A 
ATOM      6  C   UNL     1      -1.878  16.066  20.538  0.00  0.00    +0.000 A 
ATOM      7  C   UNL     1      -1.242  16.330  19.298  0.00  0.00    +0.000 A 
ATOM      8  S   UNL     1      -0.168  16.940  21.572  0.00  0.00    +0.000 S 
ATOM      9  C   UNL     1       1.517  16.020  20.936  0.00  0.00    +0.000 A 
ATOM     10  C   UNL     1       2.567  16.819  20.388  0.00  0.00    +0.000 A 
ATOM     11  C   UNL     1       3.843  16.250  20.028  0.00  0.00    +0.000 A 
ATOM     12  C   UNL     1       5.026  17.014  19.492  0.00  0.00    +0.000 C 
ATOM     13  C   UNL     1       4.080  14.885  20.180  0.00  0.00    +0.000 A 
ATOM     14  C   UNL     1       3.119  14.109  20.769  0.00  0.00    +0.000 A 
ATOM     15  C   UNL     1       1.893  14.665  21.196  0.00  0.00    +0.000 A 
ATOM     16  O   UNL     1       1.269  13.701  21.935  0.00  0.00    +0.000 OA
ATOM     17  C   UNL     1      -0.030  14.058  22.187  0.00  0.00    +0.000 C 
ATOM     18  C   UNL     1      -0.812  12.936  22.698  0.00  0.00    +0.000 C 
ATOM     19  O   UNL     1      -0.381  11.808  22.951  0.00  0.00    +0.000 OA
ATOM     20  N   UNL     1      -2.094  13.336  22.837  0.00  0.00    +0.000 N 
ATOM     21  C   UNL     1      -3.048  12.333  23.147  0.00  0.00    +0.000 C 
ATOM     22  C   UNL     1      -4.233  13.087  23.600  0.00  0.00    +0.000 C 
ATOM     23  N   UNL     1      -5.368  12.262  24.065  0.00  0.00    +0.000 NA
ATOM     24  C   UNL     1      -6.405  13.226  23.836  0.00  0.00    +0.000 C 
ATOM     25  C   UNL     1      -7.884  13.418  23.785  0.00  0.00    +0.000 C 
ATOM     26  N   UNL     1      -7.907  14.870  23.242  0.00  0.00    +0.000 N 
ATOM     27  C   UNL     1      -7.228  15.201  22.005  0.00  0.00    +0.000 C 
ATOM     28  O   UNL     1      -7.756  14.785  20.966  0.00  0.00    +0.000 OA
ATOM     29  C   UNL     1      -5.715  16.163  21.915  0.00  0.00    +0.000 C 
ATOM     30  O   UNL     1      -4.300  15.805  21.415  0.00  0.00    +0.000 OA
ATOM     31  H   UNL     1      -2.400  14.217  22.410  0.00  0.00    +0.000 HD
ATOM     32  H   UNL     1      -5.222  12.053  25.052  0.00  0.00    +0.000 HD
ATOM     33  H   UNL     1      -7.894  15.532  24.003  0.00  0.00    +0.000 HD
ENDROOT
TORSDOF 0
ENDMDL
MODEL 5
REMARK VINA RESULT:      -6.5      3.832      4.431
REMARK  Name = 
REMARK  2 active torsions:
REMARK  status: ('A' for Active; 'I' for Inactive)
REMARK    1  A    between atoms: C_1  and  C_2
REMARK    2  A    between atoms: C_11  and  C_12
REMARK                            x       y       z     vdW  Elec       q    Type
REMARK                         _______ _______ _______ _____ _____    ______ ____
ROOT
ATOM      1  C   UNL     1       1.399  10.303  18.327  0.00  0.00    +0.000 C 
ATOM      2  C   UNL     1       0.033  10.813  18.736  0.00  0.00    +0.000 A 
ATOM      3  C   UNL     1      -1.179  10.431  18.119  0.00  0.00    +0.000 A 
ATOM      4  C   UNL     1      -2.433  11.078  18.401  0.00  0.00    +0.000 A 
ATOM      5  C   UNL     1      -2.464  12.267  19.147  0.00  0.00    +0.000 A 
ATOM      6  C   UNL     1      -1.107  12.765  19.583  0.00  0.00    +0.000 A 
ATOM      7  C   UNL     1      -0.005  11.874  19.637  0.00  0.00    +0.000 A 
ATOM      8  S   UNL     1      -0.001  14.007  18.171  0.00  0.00    +0.000 S 
ATOM      9  C   UNL     1       1.797  14.464  18.976  0.00  0.00    +0.000 A 
ATOM     10  C   UNL     1       2.978  14.132  18.243  0.00  0.00    +0.000 A 
ATOM     11  C   UNL     1       4.287  14.535  18.694  0.00  0.00    +0.000 A 
ATOM     12  C   UNL     1       5.584  14.278  17.971  0.00  0.00    +0.000 C 
ATOM     13  C   UNL     1       4.441  15.244  19.884  0.00  0.00    +0.000 A 
ATOM     14  C   UNL     1       3.324  15.638  20.568  0.00  0.00    +0.000 A 
ATOM     15  C   UNL     1       2.031  15.316  20.100  0.00  0.00    +0.000 A 
ATOM     16  O   UNL     1       1.155  16.037  20.859  0.00  0.00    +0.000 OA
ATOM     17  C   UNL     1      -0.130  15.609  20.645  0.00  0.00    +0.000 C 
ATOM     18  C   UNL     1      -1.051  16.131  21.650  0.00  0.00    +0.000 C 
ATOM     19  O   UNL     1      -0.766  16.917  22.555  0.00  0.00    +0.000 OA
ATOM     20  N   UNL     1      -2.272  15.597  21.429  0.00  0.00    +0.000 N 
ATOM     21  C   UNL     1      -3.264  15.839  22.414  0.00  0.00    +0.000 C 
ATOM     22  C   UNL     1      -4.531  15.485  21.746  0.00  0.00    +0.000 C 
ATOM     23  N   UNL     1      -5.754  15.723  22.542  0.00  0.00    +0.000 NA
ATOM     24  C   UNL     1      -6.598  14.774  21.874  0.00  0.00    +0.000 C 
ATOM     25  C   UNL     1      -7.916  14.076  21.939  0.00  0.00    +0.000 C 
ATOM     26  N   UNL     1      -7.710  13.090  20.761  0.00  0.00    +0.000 N 
ATOM     27  C   UNL     1      -6.570  12.194  20.744  0.00  0.00    +0.000 C 
ATOM     28  O   UNL     1      -6.605  11.254  21.548  0.00  0.00    +0.000 OA
ATOM     29  C   UNL     1      -5.166  12.375  19.642  0.00  0.00    +0.000 C 
ATOM     30  O   UNL     1      -3.672  12.640  19.918  0.00  0.00    +0.000 OA
ATOM     31  H   UNL     1      -2.370  14.801  20.790  0.00  0.00    +0.000 HD
ATOM     32  H   UNL     1      -6.040  16.689  22.397  0.00  0.00    +0.000 HD
ATOM     33  H   UNL     1      -8.023  13.503  19.895  0.00  0.00    +0.000 HD
ENDROOT
TORSDOF 0
ENDMDL
MODEL 6
REMARK VINA RESULT:      -6.5      4.324      8.996
REMARK  Name = 
REMARK  2 active torsions:
REMARK  status: ('A' for Active; 'I' for Inactive)
REMARK    1  A    between atoms: C_1  and  C_2
REMARK    2  A    between atoms: C_11  and  C_12
REMARK                            x       y       z     vdW  Elec       q    Type
REMARK                         _______ _______ _______ _____ _____    ______ ____
ROOT
ATOM      1  C   UNL     1      -2.529  15.364  25.926  0.00  0.00    +0.000 C 
ATOM      2  C   UNL     1      -1.474  15.361  24.839  0.00  0.00    +0.000 A 
ATOM      3  C   UNL     1      -0.474  16.349  24.695  0.00  0.00    +0.000 A 
ATOM      4  C   UNL     1       0.386  16.422  23.544  0.00  0.00    +0.000 A 
ATOM      5  C   UNL     1       0.121  15.638  22.411  0.00  0.00    +0.000 A 
ATOM      6  C   UNL     1      -1.108  14.768  22.528  0.00  0.00    +0.000 A 
ATOM      7  C   UNL     1      -1.630  14.441  23.806  0.00  0.00    +0.000 A 
ATOM      8  S   UNL     1      -3.022  15.674  22.006  0.00  0.00    +0.000 S 
ATOM      9  C   UNL     1      -4.491  14.322  22.327  0.00  0.00    +0.000 A 
ATOM     10  C   UNL     1      -5.568  14.676  23.197  0.00  0.00    +0.000 A 
ATOM     11  C   UNL     1      -6.711  13.814  23.377  0.00  0.00    +0.000 A 
ATOM     12  C   UNL     1      -7.916  14.118  24.230  0.00  0.00    +0.000 C 
ATOM     13  C   UNL     1      -6.785  12.586  22.722  0.00  0.00    +0.000 A 
ATOM     14  C   UNL     1      -5.804  12.254  21.828  0.00  0.00    +0.000 A 
ATOM     15  C   UNL     1      -4.716  13.121  21.583  0.00  0.00    +0.000 A 
ATOM     16  O   UNL     1      -4.059  12.620  20.496  0.00  0.00    +0.000 OA
ATOM     17  C   UNL     1      -2.854  13.251  20.332  0.00  0.00    +0.000 C 
ATOM     18  C   UNL     1      -1.995  12.545  19.386  0.00  0.00    +0.000 C 
ATOM     19  O   UNL     1      -2.301  11.541  18.740  0.00  0.00    +0.000 OA
ATOM     20  N   UNL     1      -0.799  13.171  19.344  0.00  0.00    +0.000 N 
ATOM     21  C   UNL     1       0.236  12.526  18.619  0.00  0.00    +0.000 C 
ATOM     22  C   UNL     1       1.254  13.577  18.429  0.00  0.00    +0.000 C 
ATOM     23  N   UNL     1       2.427  13.183  17.621  0.00  0.00    +0.000 NA
ATOM     24  C   UNL     1       3.350  14.147  18.149  0.00  0.00    +0.000 C 
ATOM     25  C   UNL     1       4.788  14.544  18.191  0.00  0.00    +0.000 C 
ATOM     26  N   UNL     1       4.683  15.669  19.251  0.00  0.00    +0.000 N 
ATOM     27  C   UNL     1       4.110  15.398  20.555  0.00  0.00    +0.000 C 
ATOM     28  O   UNL     1       4.801  14.715  21.322  0.00  0.00    +0.000 OA
ATOM     29  C   UNL     1       2.505  15.996  21.091  0.00  0.00    +0.000 C 
ATOM     30  O   UNL     1       1.214  15.252  21.489  0.00  0.00    +0.000 OA
ATOM     31  H   UNL     1      -0.564  13.865  20.061  0.00  0.00    +0.000 HD
ATOM     32  H   UNL     1       2.200  13.338  16.640  0.00  0.00    +0.000 HD
ATOM     33  H   UNL     1       4.499  16.556  18.808  0.00  0.00    +0.000 HD
ENDROOT
TORSDOF 0
ENDMDL
MODEL 7
REMARK VINA RESULT:      -6.4      3.755      4.428
REMARK  Name = 
REMARK  2 active torsions:
REMARK  status: ('A' for Active; 'I' for Inactive)
REMARK    1  A    between atoms: C_1  and  C_2
REMARK    2  A    between atoms: C_11  and  C_12
REMARK                            x       y       z     vdW  Elec       q    Type
REMARK                         _______ _______ _______ _____ _____    ______ ____
ROOT
ATOM      1  C   UNL     1       1.398  11.096  18.418  0.00  0.00    +0.000 C 
ATOM      2  C   UNL     1       0.043  11.494  18.963  0.00  0.00    +0.000 A 
ATOM      3  C   UNL     1      -1.165  11.415  18.235  0.00  0.00    +0.000 A 
ATOM      4  C   UNL     1      -2.399  11.981  18.712  0.00  0.00    +0.000 A 
ATOM      5  C   UNL     1      -2.404  12.827  19.831  0.00  0.00    +0.000 A 
ATOM      6  C   UNL     1      -1.041  13.071  20.435  0.00  0.00    +0.000 A 
ATOM      7  C   UNL     1       0.022  12.166  20.183  0.00  0.00    +0.000 A 
ATOM      8  S   UNL     1       0.156  14.678  19.572  0.00  0.00    +0.000 S 
ATOM      9  C   UNL     1       1.946  14.731  20.511  0.00  0.00    +0.000 A 
ATOM     10  C   UNL     1       3.134  14.624  19.724  0.00  0.00    +0.000 A 
ATOM     11  C   UNL     1       4.445  14.776  20.306  0.00  0.00    +0.000 A 
ATOM     12  C   UNL     1       5.752  14.730  19.556  0.00  0.00    +0.000 C 
ATOM     13  C   UNL     1       4.592  15.008  21.673  0.00  0.00    +0.000 A 
ATOM     14  C   UNL     1       3.472  15.188  22.437  0.00  0.00    +0.000 A 
ATOM     15  C   UNL     1       2.181  15.116  21.868  0.00  0.00    +0.000 A 
ATOM     16  O   UNL     1       1.313  15.563  22.822  0.00  0.00    +0.000 OA
ATOM     17  C   UNL     1       0.020  15.301  22.452  0.00  0.00    +0.000 C 
ATOM     18  C   UNL     1      -0.910  15.477  23.565  0.00  0.00    +0.000 C 
ATOM     19  O   UNL     1      -0.619  15.875  24.695  0.00  0.00    +0.000 OA
ATOM     20  N   UNL     1      -2.144  15.117  23.152  0.00  0.00    +0.000 N 
ATOM     21  C   UNL     1      -3.155  15.041  24.145  0.00  0.00    +0.000 C 
ATOM     22  C   UNL     1      -4.414  15.009  23.378  0.00  0.00    +0.000 C 
ATOM     23  N   UNL     1      -5.650  15.008  24.190  0.00  0.00    +0.000 NA
ATOM     24  C   UNL     1      -6.512  14.400  23.217  0.00  0.00    +0.000 C 
ATOM     25  C   UNL     1      -7.858  13.790  23.011  0.00  0.00    +0.000 C 
ATOM     26  N   UNL     1      -7.657  13.278  21.562  0.00  0.00    +0.000 N 
ATOM     27  C   UNL     1      -6.555  12.392  21.243  0.00  0.00    +0.000 C 
ATOM     28  O   UNL     1      -6.652  11.231  21.659  0.00  0.00    +0.000 OA
ATOM     29  C   UNL     1      -5.112  12.884  20.296  0.00  0.00    +0.000 C 
ATOM     30  O   UNL     1      -3.617  12.961  20.669  0.00  0.00    +0.000 OA
ATOM     31  H   UNL     1      -2.255  14.605  22.270  0.00  0.00    +0.000 HD
ATOM     32  H   UNL     1      -5.892  15.976  24.395  0.00  0.00    +0.000 HD
ATOM     33  H   UNL     1      -7.928  13.987  20.896  0.00  0.00    +0.000 HD
ENDROOT
TORSDOF 0
ENDMDL
MODEL 8
REMARK VINA RESULT:      -6.4      3.834      4.444
REMARK  Name = 
REMARK  2 active torsions:
REMARK  status: ('A' for Active; 'I' for Inactive)
REMARK    1  A    between atoms: C_1  and  C_2
REMARK    2  A    between atoms: C_11  and  C_12
REMARK                            x       y       z     vdW  Elec       q    Type
REMARK                         _______ _______ _______ _____ _____    ______ ____
ROOT
ATOM      1  C   UNL     1       0.637  10.849  18.516  0.00  0.00    +0.000 C 
ATOM      2  C   UNL     1      -0.611  11.378  19.190  0.00  0.00    +0.000 A 
ATOM      3  C   UNL     1      -1.924  11.181  18.707  0.00  0.00    +0.000 A 
ATOM      4  C   UNL     1      -3.066  11.860  19.261  0.00  0.00    +0.000 A 
ATOM      5  C   UNL     1      -2.890  12.914  20.171  0.00  0.00    +0.000 A 
ATOM      6  C   UNL     1      -1.448  13.244  20.473  0.00  0.00    +0.000 A 
ATOM      7  C   UNL     1      -0.433  12.283  20.234  0.00  0.00    +0.000 A 
ATOM      8  S   UNL     1      -0.435  14.616  19.114  0.00  0.00    +0.000 S 
ATOM      9  C   UNL     1       1.488  14.817  19.706  0.00  0.00    +0.000 A 
ATOM     10  C   UNL     1       2.526  14.526  18.768  0.00  0.00    +0.000 A 
ATOM     11  C   UNL     1       3.915  14.763  19.077  0.00  0.00    +0.000 A 
ATOM     12  C   UNL     1       5.076  14.538  18.143  0.00  0.00    +0.000 C 
ATOM     13  C   UNL     1       4.290  15.263  20.324  0.00  0.00    +0.000 A 
ATOM     14  C   UNL     1       3.313  15.618  21.214  0.00  0.00    +0.000 A 
ATOM     15  C   UNL     1       1.946  15.462  20.897  0.00  0.00    +0.000 A 
ATOM     16  O   UNL     1       1.247  16.112  21.874  0.00  0.00    +0.000 OA
ATOM     17  C   UNL     1      -0.088  15.811  21.788  0.00  0.00    +0.000 C 
ATOM     18  C   UNL     1      -0.817  16.228  22.983  0.00  0.00    +0.000 C 
ATOM     19  O   UNL     1      -0.343  16.840  23.943  0.00  0.00    +0.000 OA
ATOM     20  N   UNL     1      -2.098  15.820  22.866  0.00  0.00    +0.000 N 
ATOM     21  C   UNL     1      -2.925  15.969  24.010  0.00  0.00    +0.000 C 
ATOM     22  C   UNL     1      -4.296  15.812  23.489  0.00  0.00    +0.000 C 
ATOM     23  N   UNL     1      -5.375  16.003  24.481  0.00  0.00    +0.000 NA
ATOM     24  C   UNL     1      -6.382  15.231  23.811  0.00  0.00    +0.000 C 
ATOM     25  C   UNL     1      -7.736  14.623  23.964  0.00  0.00    +0.000 C 
ATOM     26  N   UNL     1      -7.779  13.824  22.636  0.00  0.00    +0.000 N 
ATOM     27  C   UNL     1      -6.736  12.867  22.321  0.00  0.00    +0.000 C 
ATOM     28  O   UNL     1      -6.747  11.817  22.974  0.00  0.00    +0.000 OA
ATOM     29  C   UNL     1      -5.481  13.126  21.065  0.00  0.00    +0.000 C 
ATOM     30  O   UNL     1      -3.946  13.241  21.156  0.00  0.00    +0.000 OA
ATOM     31  H   UNL     1      -2.351  15.144  22.138  0.00  0.00    +0.000 HD
ATOM     32  H   UNL     1      -5.591  16.997  24.524  0.00  0.00    +0.000 HD
ATOM     33  H   UNL     1      -8.167  14.390  21.896  0.00  0.00    +0.000 HD
ENDROOT
TORSDOF 0
ENDMDL
MODEL 9
REMARK VINA RESULT:      -6.3      4.856      8.210
REMARK  Name = 
REMARK  2 active torsions:
REMARK  status: ('A' for Active; 'I' for Inactive)
REMARK    1  A    between atoms: C_1  and  C_2
REMARK    2  A    between atoms: C_11  and  C_12
REMARK                            x       y       z     vdW  Elec       q    Type
REMARK                         _______ _______ _______ _____ _____    ______ ____
ROOT
ATOM      1  C   UNL     1      -2.655  10.276  18.080  0.00  0.00    +0.000 C 
ATOM      2  C   UNL     1      -1.461  11.168  18.348  0.00  0.00    +0.000 A 
ATOM      3  C   UNL     1      -0.148  10.697  18.575  0.00  0.00    +0.000 A 
ATOM      4  C   UNL     1       0.919  11.554  19.018  0.00  0.00    +0.000 A 
ATOM      5  C   UNL     1       0.645  12.860  19.451  0.00  0.00    +0.000 A 
ATOM      6  C   UNL     1      -0.817  13.236  19.413  0.00  0.00    +0.000 A 
ATOM      7  C   UNL     1      -1.716  12.516  18.585  0.00  0.00    +0.000 A 
ATOM      8  S   UNL     1      -2.028  12.704  21.148  0.00  0.00    +0.000 S 
ATOM      9  C   UNL     1      -3.943  13.250  20.798  0.00  0.00    +0.000 A 
ATOM     10  C   UNL     1      -4.965  12.256  20.891  0.00  0.00    +0.000 A 
ATOM     11  C   UNL     1      -6.363  12.593  20.776  0.00  0.00    +0.000 A 
ATOM     12  C   UNL     1      -7.514  11.630  20.909  0.00  0.00    +0.000 C 
ATOM     13  C   UNL     1      -6.758  13.909  20.541  0.00  0.00    +0.000 A 
ATOM     14  C   UNL     1      -5.807  14.892  20.520  0.00  0.00    +0.000 A 
ATOM     15  C   UNL     1      -4.440  14.587  20.706  0.00  0.00    +0.000 A 
ATOM     16  O   UNL     1      -3.796  15.782  20.862  0.00  0.00    +0.000 OA
ATOM     17  C   UNL     1      -2.438  15.604  20.803  0.00  0.00    +0.000 C 
ATOM     18  C   UNL     1      -1.731  16.873  20.655  0.00  0.00    +0.000 C 
ATOM     19  O   UNL     1      -2.246  17.993  20.647  0.00  0.00    +0.000 OA
ATOM     20  N   UNL     1      -0.413  16.614  20.515  0.00  0.00    +0.000 N 
ATOM     21  C   UNL     1       0.422  17.709  20.172  0.00  0.00    +0.000 C 
ATOM     22  C   UNL     1       1.787  17.227  20.459  0.00  0.00    +0.000 C 
ATOM     23  N   UNL     1       2.863  18.220  20.258  0.00  0.00    +0.000 NA
ATOM     24  C   UNL     1       3.936  17.290  20.047  0.00  0.00    +0.000 C 
ATOM     25  C   UNL     1       5.358  17.168  19.609  0.00  0.00    +0.000 C 
ATOM     26  N   UNL     1       5.457  15.621  19.588  0.00  0.00    +0.000 N 
ATOM     27  C   UNL     1       4.528  14.837  18.798  0.00  0.00    +0.000 C 
ATOM     28  O   UNL     1       4.685  14.881  17.572  0.00  0.00    +0.000 OA
ATOM     29  C   UNL     1       3.216  13.831  19.496  0.00  0.00    +0.000 C 
ATOM     30  O   UNL     1       1.681  13.915  19.368  0.00  0.00    +0.000 OA
ATOM     31  H   UNL     1      -0.102  15.655  20.325  0.00  0.00    +0.000 HD
ATOM     32  H   UNL     1       2.959  18.758  21.117  0.00  0.00    +0.000 HD
ATOM     33  H   UNL     1       5.753  15.274  20.488  0.00  0.00    +0.000 HD
ENDROOT
TORSDOF 0
ENDMDL
