MODEL 1
REMARK VINA RESULT:      -8.5      0.000      0.000
REMARK  Name = 
REMARK  0 active torsions:
REMARK  status: ('A' for Active; 'I' for Inactive)
REMARK                            x       y       z     vdW  Elec       q    Type
REMARK                         _______ _______ _______ _____ _____    ______ ____
ROOT
ATOM      1  O   UNL     1       3.522   2.783  16.120  0.00  0.00    +0.000 OA
ATOM      2  C   UNL     1       4.231   3.651  16.643  0.00  0.00    +0.000 A 
ATOM      3  C   UNL     1       5.409   4.256  15.966  0.00  0.00    +0.000 A 
ATOM      4  C   UNL     1       6.313   5.088  16.616  0.00  0.00    +0.000 A 
ATOM      5  N   UNL     1       7.299   5.464  15.788  0.00  0.00    +0.000 N 
ATOM      6  C   UNL     1       7.076   4.969  14.534  0.00  0.00    +0.000 A 
ATOM      7  C   UNL     1       7.826   5.173  13.379  0.00  0.00    +0.000 A 
ATOM      8  C   UNL     1       7.372   4.585  12.207  0.00  0.00    +0.000 A 
ATOM      9  C   UNL     1       6.200   3.825  12.208  0.00  0.00    +0.000 A 
ATOM     10  C   UNL     1       5.457   3.625  13.387  0.00  0.00    +0.000 A 
ATOM     11  C   UNL     1       5.894   4.204  14.596  0.00  0.00    +0.000 A 
ATOM     12  S   UNL     1       6.340   5.732  18.202  0.00  0.00    +0.000 S 
ATOM     13  C   UNL     1       4.758   5.162  18.579  0.00  0.00    +0.000 A 
ATOM     14  N   UNL     1       4.204   5.654  19.702  0.00  0.00    +0.000 N 
ATOM     15  C   UNL     1       3.027   5.009  19.917  0.00  0.00    +0.000 A 
ATOM     16  C   UNL     1       2.149   5.174  20.988  0.00  0.00    +0.000 A 
ATOM     17  C   UNL     1       1.973   3.935  21.578  0.00  0.00    +0.000 A 
ATOM     18  C   UNL     1       1.825   2.806  20.776  0.00  0.00    +0.000 A 
ATOM     19  C   UNL     1       2.160   2.848  19.405  0.00  0.00    +0.000 A 
ATOM     20  C   UNL     1       2.990   3.925  19.025  0.00  0.00    +0.000 A 
ATOM     21  C   UNL     1       3.939   4.226  17.980  0.00  0.00    +0.000 A 
ATOM     22  H   UNL     1       8.067   6.069  16.048  0.00  0.00    +0.000 HD
ATOM     23  H   UNL     1       4.626   6.325  20.327  0.00  0.00    +0.000 HD
ENDROOT
TORSDOF 0
ENDMDL
MODEL 2
REMARK VINA RESULT:      -8.4      3.411      4.639
REMARK  Name = 
REMARK  0 active torsions:
REMARK  status: ('A' for Active; 'I' for Inactive)
REMARK                            x       y       z     vdW  Elec       q    Type
REMARK                         _______ _______ _______ _____ _____    ______ ____
ROOT
ATOM      1  O   UNL     1       2.911   8.488  17.170  0.00  0.00    +0.000 OA
ATOM      2  C   UNL     1       2.843   7.577  18.004  0.00  0.00    +0.000 A 
ATOM      3  C   UNL     1       3.473   6.243  17.805  0.00  0.00    +0.000 A 
ATOM      4  C   UNL     1       3.243   5.164  18.649  0.00  0.00    +0.000 A 
ATOM      5  N   UNL     1       3.900   4.074  18.224  0.00  0.00    +0.000 N 
ATOM      6  C   UNL     1       4.655   4.379  17.125  0.00  0.00    +0.000 A 
ATOM      7  C   UNL     1       5.523   3.552  16.418  0.00  0.00    +0.000 A 
ATOM      8  C   UNL     1       6.208   4.108  15.347  0.00  0.00    +0.000 A 
ATOM      9  C   UNL     1       6.023   5.451  15.012  0.00  0.00    +0.000 A 
ATOM     10  C   UNL     1       5.136   6.271  15.736  0.00  0.00    +0.000 A 
ATOM     11  C   UNL     1       4.420   5.736  16.826  0.00  0.00    +0.000 A 
ATOM     12  S   UNL     1       2.355   5.016  20.105  0.00  0.00    +0.000 S 
ATOM     13  C   UNL     1       2.069   6.711  20.231  0.00  0.00    +0.000 A 
ATOM     14  N   UNL     1       1.584   7.144  21.409  0.00  0.00    +0.000 N 
ATOM     15  C   UNL     1       1.297   8.467  21.295  0.00  0.00    +0.000 A 
ATOM     16  C   UNL     1       0.735   9.302  22.259  0.00  0.00    +0.000 A 
ATOM     17  C   UNL     1      -0.405   9.864  21.712  0.00  0.00    +0.000 A 
ATOM     18  C   UNL     1      -0.389  10.305  20.391  0.00  0.00    +0.000 A 
ATOM     19  C   UNL     1       0.646   9.912  19.514  0.00  0.00    +0.000 A 
ATOM     20  C   UNL     1       1.387   8.784  19.929  0.00  0.00    +0.000 A 
ATOM     21  C   UNL     1       2.181   7.743  19.321  0.00  0.00    +0.000 A 
ATOM     22  H   UNL     1       3.877   3.174  18.684  0.00  0.00    +0.000 HD
ATOM     23  H   UNL     1       1.386   6.569  22.216  0.00  0.00    +0.000 HD
ENDROOT
TORSDOF 0
ENDMDL
MODEL 3
REMARK VINA RESULT:      -7.9      4.321      8.119
REMARK  Name = 
REMARK  0 active torsions:
REMARK  status: ('A' for Active; 'I' for Inactive)
REMARK                            x       y       z     vdW  Elec       q    Type
REMARK                         _______ _______ _______ _____ _____    ______ ____
ROOT
ATOM      1  O   UNL     1       1.426   6.293  21.104  0.00  0.00    +0.000 OA
ATOM      2  C   UNL     1       1.670   7.141  20.239  0.00  0.00    +0.000 A 
ATOM      3  C   UNL     1       1.124   8.525  20.278  0.00  0.00    +0.000 A 
ATOM      4  C   UNL     1       1.242   9.417  19.220  0.00  0.00    +0.000 A 
ATOM      5  N   UNL     1       0.631  10.578  19.501  0.00  0.00    +0.000 N 
ATOM      6  C   UNL     1       0.137  10.553  20.775  0.00  0.00    +0.000 A 
ATOM      7  C   UNL     1      -0.511  11.571  21.469  0.00  0.00    +0.000 A 
ATOM      8  C   UNL     1      -0.893  11.312  22.778  0.00  0.00    +0.000 A 
ATOM      9  C   UNL     1      -0.622  10.072  23.359  0.00  0.00    +0.000 A 
ATOM     10  C   UNL     1       0.030   9.052  22.640  0.00  0.00    +0.000 A 
ATOM     11  C   UNL     1       0.426   9.280  21.306  0.00  0.00    +0.000 A 
ATOM     12  S   UNL     1       2.053   9.310  17.716  0.00  0.00    +0.000 S 
ATOM     13  C   UNL     1       2.826   7.822  18.114  0.00  0.00    +0.000 A 
ATOM     14  N   UNL     1       3.815   7.430  17.292  0.00  0.00    +0.000 N 
ATOM     15  C   UNL     1       4.222   6.189  17.670  0.00  0.00    +0.000 A 
ATOM     16  C   UNL     1       5.192   5.391  17.067  0.00  0.00    +0.000 A 
ATOM     17  C   UNL     1       4.597   4.183  16.744  0.00  0.00    +0.000 A 
ATOM     18  C   UNL     1       3.723   3.584  17.647  0.00  0.00    +0.000 A 
ATOM     19  C   UNL     1       3.192   4.318  18.730  0.00  0.00    +0.000 A 
ATOM     20  C   UNL     1       3.280   5.722  18.602  0.00  0.00    +0.000 A 
ATOM     21  C   UNL     1       2.590   6.887  19.102  0.00  0.00    +0.000 A 
ATOM     22  H   UNL     1       0.591  11.371  18.875  0.00  0.00    +0.000 HD
ATOM     23  H   UNL     1       4.144   7.930  16.479  0.00  0.00    +0.000 HD
ENDROOT
TORSDOF 0
ENDMDL
MODEL 4
REMARK VINA RESULT:      -7.9      4.084      5.473
REMARK  Name = 
REMARK  0 active torsions:
REMARK  status: ('A' for Active; 'I' for Inactive)
REMARK                            x       y       z     vdW  Elec       q    Type
REMARK                         _______ _______ _______ _____ _____    ______ ____
ROOT
ATOM      1  O   UNL     1       2.552   8.993  17.163  0.00  0.00    +0.000 OA
ATOM      2  C   UNL     1       2.441   8.211  18.114  0.00  0.00    +0.000 A 
ATOM      3  C   UNL     1       3.062   6.859  18.133  0.00  0.00    +0.000 A 
ATOM      4  C   UNL     1       2.786   5.912  19.112  0.00  0.00    +0.000 A 
ATOM      5  N   UNL     1       3.448   4.769  18.873  0.00  0.00    +0.000 N 
ATOM      6  C   UNL     1       4.248   4.910  17.774  0.00  0.00    +0.000 A 
ATOM      7  C   UNL     1       5.134   3.986  17.227  0.00  0.00    +0.000 A 
ATOM      8  C   UNL     1       5.868   4.380  16.117  0.00  0.00    +0.000 A 
ATOM      9  C   UNL     1       5.711   5.662  15.588  0.00  0.00    +0.000 A 
ATOM     10  C   UNL     1       4.806   6.582  16.151  0.00  0.00    +0.000 A 
ATOM     11  C   UNL     1       4.041   6.212  17.276  0.00  0.00    +0.000 A 
ATOM     12  S   UNL     1       1.840   5.979  20.536  0.00  0.00    +0.000 S 
ATOM     13  C   UNL     1       1.569   7.676  20.409  0.00  0.00    +0.000 A 
ATOM     14  N   UNL     1       1.043   8.275  21.492  0.00  0.00    +0.000 N 
ATOM     15  C   UNL     1       0.775   9.570  21.180  0.00  0.00    +0.000 A 
ATOM     16  C   UNL     1       0.186  10.538  21.992  0.00  0.00    +0.000 A 
ATOM     17  C   UNL     1      -0.926  11.022  21.324  0.00  0.00    +0.000 A 
ATOM     18  C   UNL     1      -0.852  11.270  19.955  0.00  0.00    +0.000 A 
ATOM     19  C   UNL     1       0.213  10.751  19.186  0.00  0.00    +0.000 A 
ATOM     20  C   UNL     1       0.923   9.688  19.788  0.00  0.00    +0.000 A 
ATOM     21  C   UNL     1       1.729   8.568  19.367  0.00  0.00    +0.000 A 
ATOM     22  H   UNL     1       3.396   3.945  19.455  0.00  0.00    +0.000 HD
ATOM     23  H   UNL     1       0.806   7.822  22.364  0.00  0.00    +0.000 HD
ENDROOT
TORSDOF 0
ENDMDL
MODEL 5
REMARK VINA RESULT:      -7.7      0.761      6.658
REMARK  Name = 
REMARK  0 active torsions:
REMARK  status: ('A' for Active; 'I' for Inactive)
REMARK                            x       y       z     vdW  Elec       q    Type
REMARK                         _______ _______ _______ _____ _____    ______ ____
ROOT
ATOM      1  O   UNL     1       4.131   2.287  16.520  0.00  0.00    +0.000 OA
ATOM      2  C   UNL     1       4.365   3.479  16.747  0.00  0.00    +0.000 A 
ATOM      3  C   UNL     1       3.817   4.207  17.923  0.00  0.00    +0.000 A 
ATOM      4  C   UNL     1       3.923   5.584  18.080  0.00  0.00    +0.000 A 
ATOM      5  N   UNL     1       3.313   5.987  19.204  0.00  0.00    +0.000 N 
ATOM      6  C   UNL     1       2.831   4.907  19.891  0.00  0.00    +0.000 A 
ATOM      7  C   UNL     1       2.188   4.887  21.126  0.00  0.00    +0.000 A 
ATOM      8  C   UNL     1       1.820   3.650  21.637  0.00  0.00    +0.000 A 
ATOM      9  C   UNL     1       2.099   2.482  20.925  0.00  0.00    +0.000 A 
ATOM     10  C   UNL     1       2.746   2.523  19.674  0.00  0.00    +0.000 A 
ATOM     11  C   UNL     1       3.128   3.764  19.124  0.00  0.00    +0.000 A 
ATOM     12  S   UNL     1       4.719   6.784  17.154  0.00  0.00    +0.000 S 
ATOM     13  C   UNL     1       5.498   5.636  16.132  0.00  0.00    +0.000 A 
ATOM     14  N   UNL     1       6.480   6.113  15.346  0.00  0.00    +0.000 N 
ATOM     15  C   UNL     1       6.892   5.115  14.521  0.00  0.00    +0.000 A 
ATOM     16  C   UNL     1       7.858   5.184  13.518  0.00  0.00    +0.000 A 
ATOM     17  C   UNL     1       7.262   4.778  12.336  0.00  0.00    +0.000 A 
ATOM     18  C   UNL     1       6.398   3.686  12.341  0.00  0.00    +0.000 A 
ATOM     19  C   UNL     1       5.877   3.186  13.555  0.00  0.00    +0.000 A 
ATOM     20  C   UNL     1       5.961   4.071  14.652  0.00  0.00    +0.000 A 
ATOM     21  C   UNL     1       5.274   4.293  15.902  0.00  0.00    +0.000 A 
ATOM     22  H   UNL     1       3.264   6.947  19.518  0.00  0.00    +0.000 HD
ATOM     23  H   UNL     1       6.799   7.070  15.312  0.00  0.00    +0.000 HD
ENDROOT
TORSDOF 0
ENDMDL
MODEL 6
REMARK VINA RESULT:      -7.6      3.453      7.391
REMARK  Name = 
REMARK  0 active torsions:
REMARK  status: ('A' for Active; 'I' for Inactive)
REMARK                            x       y       z     vdW  Elec       q    Type
REMARK                         _______ _______ _______ _____ _____    ______ ____
ROOT
ATOM      1  O   UNL     1       3.117   8.612  17.121  0.00  0.00    +0.000 OA
ATOM      2  C   UNL     1       2.997   7.673  17.917  0.00  0.00    +0.000 A 
ATOM      3  C   UNL     1       2.208   7.768  19.175  0.00  0.00    +0.000 A 
ATOM      4  C   UNL     1       2.225   6.784  20.156  0.00  0.00    +0.000 A 
ATOM      5  N   UNL     1       1.458   7.135  21.200  0.00  0.00    +0.000 N 
ATOM      6  C   UNL     1       0.837   8.326  20.947  0.00  0.00    +0.000 A 
ATOM      7  C   UNL     1      -0.082   9.006  21.743  0.00  0.00    +0.000 A 
ATOM      8  C   UNL     1      -0.603  10.193  21.249  0.00  0.00    +0.000 A 
ATOM      9  C   UNL     1      -0.212  10.667  19.995  0.00  0.00    +0.000 A 
ATOM     10  C   UNL     1       0.723   9.968  19.206  0.00  0.00    +0.000 A 
ATOM     11  C   UNL     1       1.276   8.762  19.681  0.00  0.00    +0.000 A 
ATOM     12  S   UNL     1       2.974   5.247  20.224  0.00  0.00    +0.000 S 
ATOM     13  C   UNL     1       3.479   5.297  18.577  0.00  0.00    +0.000 A 
ATOM     14  N   UNL     1       3.929   4.140  18.060  0.00  0.00    +0.000 N 
ATOM     15  C   UNL     1       4.403   4.385  16.809  0.00  0.00    +0.000 A 
ATOM     16  C   UNL     1       5.000   3.479  15.934  0.00  0.00    +0.000 A 
ATOM     17  C   UNL     1       6.244   3.984  15.596  0.00  0.00    +0.000 A 
ATOM     18  C   UNL     1       6.386   5.344  15.332  0.00  0.00    +0.000 A 
ATOM     19  C   UNL     1       5.375   6.258  15.701  0.00  0.00    +0.000 A 
ATOM     20  C   UNL     1       4.458   5.781  16.664  0.00  0.00    +0.000 A 
ATOM     21  C   UNL     1       3.577   6.330  17.666  0.00  0.00    +0.000 A 
ATOM     22  H   UNL     1       1.324   6.571  22.028  0.00  0.00    +0.000 HD
ATOM     23  H   UNL     1       3.987   3.257  18.545  0.00  0.00    +0.000 HD
ENDROOT
TORSDOF 0
ENDMDL
MODEL 7
REMARK VINA RESULT:      -7.5      4.719      7.170
REMARK  Name = 
REMARK  0 active torsions:
REMARK  status: ('A' for Active; 'I' for Inactive)
REMARK                            x       y       z     vdW  Elec       q    Type
REMARK                         _______ _______ _______ _____ _____    ______ ____
ROOT
ATOM      1  O   UNL     1       1.104   7.696  21.750  0.00  0.00    +0.000 OA
ATOM      2  C   UNL     1       1.489   7.800  20.579  0.00  0.00    +0.000 A 
ATOM      3  C   UNL     1       2.190   6.707  19.853  0.00  0.00    +0.000 A 
ATOM      4  C   UNL     1       2.786   6.883  18.610  0.00  0.00    +0.000 A 
ATOM      5  N   UNL     1       3.379   5.752  18.198  0.00  0.00    +0.000 N 
ATOM      6  C   UNL     1       3.156   4.749  19.099  0.00  0.00    +0.000 A 
ATOM      7  C   UNL     1       3.548   3.415  19.020  0.00  0.00    +0.000 A 
ATOM      8  C   UNL     1       3.168   2.573  20.056  0.00  0.00    +0.000 A 
ATOM      9  C   UNL     1       2.416   3.065  21.124  0.00  0.00    +0.000 A 
ATOM     10  C   UNL     1       2.033   4.418  21.190  0.00  0.00    +0.000 A 
ATOM     11  C   UNL     1       2.408   5.302  20.157  0.00  0.00    +0.000 A 
ATOM     12  S   UNL     1       2.831   8.219  17.541  0.00  0.00    +0.000 S 
ATOM     13  C   UNL     1       1.700   9.136  18.462  0.00  0.00    +0.000 A 
ATOM     14  N   UNL     1       1.202  10.234  17.865  0.00  0.00    +0.000 N 
ATOM     15  C   UNL     1       0.437  10.903  18.767  0.00  0.00    +0.000 A 
ATOM     16  C   UNL     1      -0.232  12.112  18.585  0.00  0.00    +0.000 A 
ATOM     17  C   UNL     1       0.207  12.984  19.568  0.00  0.00    +0.000 A 
ATOM     18  C   UNL     1       0.383  12.520  20.869  0.00  0.00    +0.000 A 
ATOM     19  C   UNL     1       0.427  11.135  21.140  0.00  0.00    +0.000 A 
ATOM     20  C   UNL     1       0.680  10.314  20.019  0.00  0.00    +0.000 A 
ATOM     21  C   UNL     1       1.231   9.006  19.754  0.00  0.00    +0.000 A 
ATOM     22  H   UNL     1       3.875   5.651  17.323  0.00  0.00    +0.000 HD
ATOM     23  H   UNL     1       1.424  10.555  16.934  0.00  0.00    +0.000 HD
ENDROOT
TORSDOF 0
ENDMDL
MODEL 8
REMARK VINA RESULT:      -7.4      4.145      7.750
REMARK  Name = 
REMARK  0 active torsions:
REMARK  status: ('A' for Active; 'I' for Inactive)
REMARK                            x       y       z     vdW  Elec       q    Type
REMARK                         _______ _______ _______ _____ _____    ______ ____
ROOT
ATOM      1  O   UNL     1       2.772   9.154  17.299  0.00  0.00    +0.000 OA
ATOM      2  C   UNL     1       2.542   8.309  18.171  0.00  0.00    +0.000 A 
ATOM      3  C   UNL     1       1.700   8.582  19.367  0.00  0.00    +0.000 A 
ATOM      4  C   UNL     1       1.592   7.700  20.435  0.00  0.00    +0.000 A 
ATOM      5  N   UNL     1       0.803   8.204  21.396  0.00  0.00    +0.000 N 
ATOM      6  C   UNL     1       0.286   9.406  20.997  0.00  0.00    +0.000 A 
ATOM      7  C   UNL     1      -0.617  10.223  21.672  0.00  0.00    +0.000 A 
ATOM      8  C   UNL     1      -1.021  11.391  21.039  0.00  0.00    +0.000 A 
ATOM      9  C   UNL     1      -0.532  11.711  19.771  0.00  0.00    +0.000 A 
ATOM     10  C   UNL     1       0.385  10.874  19.106  0.00  0.00    +0.000 A 
ATOM     11  C   UNL     1       0.821   9.683  19.723  0.00  0.00    +0.000 A 
ATOM     12  S   UNL     1       2.218   6.127  20.690  0.00  0.00    +0.000 S 
ATOM     13  C   UNL     1       2.808   5.981  19.077  0.00  0.00    +0.000 A 
ATOM     14  N   UNL     1       3.194   4.750  18.698  0.00  0.00    +0.000 N 
ATOM     15  C   UNL     1       3.747   4.836  17.459  0.00  0.00    +0.000 A 
ATOM     16  C   UNL     1       4.318   3.810  16.708  0.00  0.00    +0.000 A 
ATOM     17  C   UNL     1       5.612   4.190  16.397  0.00  0.00    +0.000 A 
ATOM     18  C   UNL     1       5.870   5.504  16.015  0.00  0.00    +0.000 A 
ATOM     19  C   UNL     1       4.914   6.520  16.238  0.00  0.00    +0.000 A 
ATOM     20  C   UNL     1       3.916   6.204  17.187  0.00  0.00    +0.000 A 
ATOM     21  C   UNL     1       3.029   6.910  18.080  0.00  0.00    +0.000 A 
ATOM     22  H   UNL     1       0.584   7.735  22.264  0.00  0.00    +0.000 HD
ATOM     23  H   UNL     1       3.160   3.916  19.266  0.00  0.00    +0.000 HD
ENDROOT
TORSDOF 0
ENDMDL
MODEL 9
REMARK VINA RESULT:      -7.4      4.938      6.571
REMARK  Name = 
REMARK  0 active torsions:
REMARK  status: ('A' for Active; 'I' for Inactive)
REMARK                            x       y       z     vdW  Elec       q    Type
REMARK                         _______ _______ _______ _____ _____    ______ ____
ROOT
ATOM      1  O   UNL     1       1.975   9.295  17.164  0.00  0.00    +0.000 OA
ATOM      2  C   UNL     1       1.864   8.808  18.295  0.00  0.00    +0.000 A 
ATOM      3  C   UNL     1       2.551   7.556  18.713  0.00  0.00    +0.000 A 
ATOM      4  C   UNL     1       2.283   6.909  19.914  0.00  0.00    +0.000 A 
ATOM      5  N   UNL     1       3.009   5.787  20.026  0.00  0.00    +0.000 N 
ATOM      6  C   UNL     1       3.846   5.659  18.953  0.00  0.00    +0.000 A 
ATOM      7  C   UNL     1       4.799   4.672  18.715  0.00  0.00    +0.000 A 
ATOM      8  C   UNL     1       5.557   4.779  17.557  0.00  0.00    +0.000 A 
ATOM      9  C   UNL     1       5.358   5.848  16.681  0.00  0.00    +0.000 A 
ATOM     10  C   UNL     1       4.386   6.834  16.936  0.00  0.00    +0.000 A 
ATOM     11  C   UNL     1       3.595   6.752  18.100  0.00  0.00    +0.000 A 
ATOM     12  S   UNL     1       1.276   7.320  21.236  0.00  0.00    +0.000 S 
ATOM     13  C   UNL     1       0.927   8.893  20.625  0.00  0.00    +0.000 A 
ATOM     14  N   UNL     1       0.328   9.741  21.480  0.00  0.00    +0.000 N 
ATOM     15  C   UNL     1       0.009  10.877  20.805  0.00  0.00    +0.000 A 
ATOM     16  C   UNL     1      -0.660  11.997  21.293  0.00  0.00    +0.000 A 
ATOM     17  C   UNL     1      -1.766  12.207  20.487  0.00  0.00    +0.000 A 
ATOM     18  C   UNL     1      -1.649  12.062  19.107  0.00  0.00    +0.000 A 
ATOM     19  C   UNL     1      -0.529  11.410  18.544  0.00  0.00    +0.000 A 
ATOM     20  C   UNL     1       0.208  10.605  19.441  0.00  0.00    +0.000 A 
ATOM     21  C   UNL     1       1.085   9.461  19.376  0.00  0.00    +0.000 A 
ATOM     22  H   UNL     1       2.975   5.159  20.817  0.00  0.00    +0.000 HD
ATOM     23  H   UNL     1       0.078   9.539  22.437  0.00  0.00    +0.000 HD
ENDROOT
TORSDOF 0
ENDMDL
