MODEL 1
REMARK VINA RESULT:      -6.8      0.000      0.000
REMARK  Name = 
REMARK  8 active torsions:
REMARK  status: ('A' for Active; 'I' for Inactive)
REMARK    1  A    between atoms: C_1  and  N_2
REMARK    2  A    between atoms: N_2  and  C_3
REMARK    3  A    between atoms: C_3  and  C_4
REMARK    4  A    between atoms: N_6  and  C_7
REMARK    5  A    between atoms: C_7  and  C_8
REMARK    6  A    between atoms: C_8  and  C_9
REMARK    7  A    between atoms: C_12  and  S_13
REMARK    8  A    between atoms: S_13  and  N_14
REMARK                            x       y       z     vdW  Elec       q    Type
REMARK                         _______ _______ _______ _____ _____    ______ ____
ROOT
ATOM      1  C   UNL     1       3.566   6.101  18.977  0.00  0.00    +0.000 A 
ATOM      2  C   UNL     1       3.644   6.498  17.634  0.00  0.00    +0.000 A 
ATOM      3  C   UNL     1       4.702   6.076  16.828  0.00  0.00    +0.000 A 
ATOM      4  C   UNL     1       5.694   5.255  17.370  0.00  0.00    +0.000 A 
ATOM      5  C   UNL     1       5.621   4.833  18.698  0.00  0.00    +0.000 A 
ATOM      6  C   UNL     1       4.560   5.259  19.500  0.00  0.00    +0.000 A 
ENDROOT
BRANCH   4   7
ATOM      7  S   UNL     1       7.026   4.704  16.344  0.00  0.00    +0.000 S 
ATOM      8  O   UNL     1       7.266   5.679  15.307  0.00  0.00    +0.000 OA
ATOM      9  O   UNL     1       8.082   4.177  17.172  0.00  0.00    +0.000 OA
BRANCH   7  10
ATOM     10  N   UNL     1       6.338   3.376  15.577  0.00  0.00    +0.000 NA
ATOM     11  H   UNL     1       5.929   3.664  14.687  0.00  0.00    +0.000 HD
ATOM     12  H   UNL     1       7.025   2.627  15.496  0.00  0.00    +0.000 HD
ENDBRANCH   7  10
ENDBRANCH   4   7
BRANCH   1  13
ATOM     13  C   UNL     1       2.407   6.551  19.836  0.00  0.00    +0.000 C 
BRANCH  13  14
ATOM     14  C   UNL     1       1.724   5.373  20.537  0.00  0.00    +0.000 C 
BRANCH  14  17
ATOM     15  C   UNL     1       1.432   2.988  19.953  0.00  0.00    +0.000 C 
ATOM     16  O   UNL     1       1.743   2.592  21.072  0.00  0.00    +0.000 OA
ATOM     17  N   UNL     1       1.348   4.322  19.610  0.00  0.00    +0.000 N 
ATOM     18  H   UNL     1       1.270   4.527  18.619  0.00  0.00    +0.000 HD
BRANCH  15  19
ATOM     19  C   UNL     1       1.087   2.032  18.808  0.00  0.00    +0.000 C 
BRANCH  19  21
ATOM     20  C   UNL     1       3.404   1.726  18.169  0.00  0.00    +0.000 C 
ATOM     21  N   UNL     1       2.071   2.119  17.707  0.00  0.00    +0.000 NA
ATOM     22  H   UNL     1       1.784   1.455  16.986  0.00  0.00    +0.000 HD
ENDBRANCH  19  21
ENDBRANCH  15  19
ENDBRANCH  14  17
ENDBRANCH  13  14
ENDBRANCH   1  13
TORSDOF 7
ENDMDL
MODEL 2
REMARK VINA RESULT:      -6.7      0.929      1.066
REMARK  Name = 
REMARK  8 active torsions:
REMARK  status: ('A' for Active; 'I' for Inactive)
REMARK    1  A    between atoms: C_1  and  N_2
REMARK    2  A    between atoms: N_2  and  C_3
REMARK    3  A    between atoms: C_3  and  C_4
REMARK    4  A    between atoms: N_6  and  C_7
REMARK    5  A    between atoms: C_7  and  C_8
REMARK    6  A    between atoms: C_8  and  C_9
REMARK    7  A    between atoms: C_12  and  S_13
REMARK    8  A    between atoms: S_13  and  N_14
REMARK                            x       y       z     vdW  Elec       q    Type
REMARK                         _______ _______ _______ _____ _____    ______ ____
ROOT
ATOM      1  C   UNL     1       3.507   6.267  19.030  0.00  0.00    +0.000 A 
ATOM      2  C   UNL     1       3.580   6.714  17.702  0.00  0.00    +0.000 A 
ATOM      3  C   UNL     1       4.594   6.264  16.856  0.00  0.00    +0.000 A 
ATOM      4  C   UNL     1       5.547   5.364  17.342  0.00  0.00    +0.000 A 
ATOM      5  C   UNL     1       5.477   4.893  18.654  0.00  0.00    +0.000 A 
ATOM      6  C   UNL     1       4.459   5.348  19.496  0.00  0.00    +0.000 A 
ENDROOT
BRANCH   4   7
ATOM      7  S   UNL     1       6.823   4.780  16.265  0.00  0.00    +0.000 S 
ATOM      8  O   UNL     1       6.343   3.631  15.534  0.00  0.00    +0.000 OA
ATOM      9  O   UNL     1       7.455   5.902  15.618  0.00  0.00    +0.000 OA
BRANCH   7  10
ATOM     10  N   UNL     1       7.949   4.188  17.363  0.00  0.00    +0.000 NA
ATOM     11  H   UNL     1       7.967   3.168  17.326  0.00  0.00    +0.000 HD
ATOM     12  H   UNL     1       8.856   4.625  17.200  0.00  0.00    +0.000 HD
ENDBRANCH   7  10
ENDBRANCH   4   7
BRANCH   1  13
ATOM     13  C   UNL     1       2.394   6.748  19.932  0.00  0.00    +0.000 C 
BRANCH  13  14
ATOM     14  C   UNL     1       1.683   5.586  20.631  0.00  0.00    +0.000 C 
BRANCH  14  17
ATOM     15  C   UNL     1       1.123   3.236  20.110  0.00  0.00    +0.000 C 
ATOM     16  O   UNL     1       1.212   2.870  21.278  0.00  0.00    +0.000 OA
ATOM     17  N   UNL     1       1.287   4.544  19.704  0.00  0.00    +0.000 N 
ATOM     18  H   UNL     1       1.379   4.695  18.704  0.00  0.00    +0.000 HD
BRANCH  15  19
ATOM     19  C   UNL     1       0.802   2.268  18.968  0.00  0.00    +0.000 C 
BRANCH  19  21
ATOM     20  C   UNL     1       2.890   2.231  17.740  0.00  0.00    +0.000 C 
ATOM     21  N   UNL     1       1.981   1.459  18.590  0.00  0.00    +0.000 NA
ATOM     22  H   UNL     1       2.481   1.226  19.450  0.00  0.00    +0.000 HD
ENDBRANCH  19  21
ENDBRANCH  15  19
ENDBRANCH  14  17
ENDBRANCH  13  14
ENDBRANCH   1  13
TORSDOF 7
ENDMDL
MODEL 3
REMARK VINA RESULT:      -6.7      0.436      1.223
REMARK  Name = 
REMARK  8 active torsions:
REMARK  status: ('A' for Active; 'I' for Inactive)
REMARK    1  A    between atoms: C_1  and  N_2
REMARK    2  A    between atoms: N_2  and  C_3
REMARK    3  A    between atoms: C_3  and  C_4
REMARK    4  A    between atoms: N_6  and  C_7
REMARK    5  A    between atoms: C_7  and  C_8
REMARK    6  A    between atoms: C_8  and  C_9
REMARK    7  A    between atoms: C_12  and  S_13
REMARK    8  A    between atoms: S_13  and  N_14
REMARK                            x       y       z     vdW  Elec       q    Type
REMARK                         _______ _______ _______ _____ _____    ______ ____
ROOT
ATOM      1  C   UNL     1       3.640   6.211  18.904  0.00  0.00    +0.000 A 
ATOM      2  C   UNL     1       4.638   5.384  19.441  0.00  0.00    +0.000 A 
ATOM      3  C   UNL     1       5.679   4.913  18.639  0.00  0.00    +0.000 A 
ATOM      4  C   UNL     1       5.720   5.268  17.288  0.00  0.00    +0.000 A 
ATOM      5  C   UNL     1       4.747   6.108  16.743  0.00  0.00    +0.000 A 
ATOM      6  C   UNL     1       3.708   6.575  17.550  0.00  0.00    +0.000 A 
ENDROOT
BRANCH   4   7
ATOM      7  S   UNL     1       7.048   4.687  16.275  0.00  0.00    +0.000 S 
ATOM      8  O   UNL     1       7.300   5.641  15.221  0.00  0.00    +0.000 OA
ATOM      9  O   UNL     1       8.098   4.164  17.114  0.00  0.00    +0.000 OA
BRANCH   7  10
ATOM     10  N   UNL     1       6.348   3.352  15.530  0.00  0.00    +0.000 NA
ATOM     11  H   UNL     1       5.614   3.658  14.891  0.00  0.00    +0.000 HD
ATOM     12  H   UNL     1       7.070   2.781  15.091  0.00  0.00    +0.000 HD
ENDBRANCH   7  10
ENDBRANCH   4   7
BRANCH   1  13
ATOM     13  C   UNL     1       2.527   6.728  19.786  0.00  0.00    +0.000 C 
BRANCH  13  14
ATOM     14  C   UNL     1       1.792   5.593  20.504  0.00  0.00    +0.000 C 
BRANCH  14  17
ATOM     15  C   UNL     1       1.125   3.251  20.080  0.00  0.00    +0.000 C 
ATOM     16  O   UNL     1       1.025   2.978  21.272  0.00  0.00    +0.000 OA
ATOM     17  N   UNL     1       1.444   4.507  19.607  0.00  0.00    +0.000 N 
ATOM     18  H   UNL     1       1.684   4.569  18.622  0.00  0.00    +0.000 HD
BRANCH  15  19
ATOM     19  C   UNL     1       0.887   2.216  18.976  0.00  0.00    +0.000 C 
BRANCH  19  21
ATOM     20  C   UNL     1       2.825   2.249  17.523  0.00  0.00    +0.000 C 
ATOM     21  N   UNL     1       2.139   1.526  18.596  0.00  0.00    +0.000 NA
ATOM     22  H   UNL     1       2.751   1.529  19.414  0.00  0.00    +0.000 HD
ENDBRANCH  19  21
ENDBRANCH  15  19
ENDBRANCH  14  17
ENDBRANCH  13  14
ENDBRANCH   1  13
TORSDOF 7
ENDMDL
MODEL 4
REMARK VINA RESULT:      -6.7      0.851      1.078
REMARK  Name = 
REMARK  8 active torsions:
REMARK  status: ('A' for Active; 'I' for Inactive)
REMARK    1  A    between atoms: C_1  and  N_2
REMARK    2  A    between atoms: N_2  and  C_3
REMARK    3  A    between atoms: C_3  and  C_4
REMARK    4  A    between atoms: N_6  and  C_7
REMARK    5  A    between atoms: C_7  and  C_8
REMARK    6  A    between atoms: C_8  and  C_9
REMARK    7  A    between atoms: C_12  and  S_13
REMARK    8  A    between atoms: S_13  and  N_14
REMARK                            x       y       z     vdW  Elec       q    Type
REMARK                         _______ _______ _______ _____ _____    ______ ____
ROOT
ATOM      1  C   UNL     1       3.539   6.063  19.017  0.00  0.00    +0.000 A 
ATOM      2  C   UNL     1       3.617   6.402  17.658  0.00  0.00    +0.000 A 
ATOM      3  C   UNL     1       4.669   5.934  16.868  0.00  0.00    +0.000 A 
ATOM      4  C   UNL     1       5.654   5.126  17.443  0.00  0.00    +0.000 A 
ATOM      5  C   UNL     1       5.579   4.761  18.788  0.00  0.00    +0.000 A 
ATOM      6  C   UNL     1       4.525   5.232  19.573  0.00  0.00    +0.000 A 
ENDROOT
BRANCH   4   7
ATOM      7  S   UNL     1       6.977   4.519  16.439  0.00  0.00    +0.000 S 
ATOM      8  O   UNL     1       8.098   4.173  17.281  0.00  0.00    +0.000 OA
ATOM      9  O   UNL     1       6.450   3.620  15.442  0.00  0.00    +0.000 OA
BRANCH   7  10
ATOM     10  N   UNL     1       7.438   5.906  15.609  0.00  0.00    +0.000 NA
ATOM     11  H   UNL     1       8.455   5.982  15.598  0.00  0.00    +0.000 HD
ATOM     12  H   UNL     1       7.010   5.915  14.683  0.00  0.00    +0.000 HD
ENDBRANCH   7  10
ENDBRANCH   4   7
BRANCH   1  13
ATOM     13  C   UNL     1       2.387   6.560  19.858  0.00  0.00    +0.000 C 
BRANCH  13  14
ATOM     14  C   UNL     1       1.636   5.411  20.537  0.00  0.00    +0.000 C 
BRANCH  14  17
ATOM     15  C   UNL     1       1.212   3.028  20.031  0.00  0.00    +0.000 C 
ATOM     16  O   UNL     1       1.296   2.680  21.205  0.00  0.00    +0.000 OA
ATOM     17  N   UNL     1       1.316   4.339  19.613  0.00  0.00    +0.000 N 
ATOM     18  H   UNL     1       1.422   4.485  18.614  0.00  0.00    +0.000 HD
BRANCH  15  19
ATOM     19  C   UNL     1       0.968   2.033  18.893  0.00  0.00    +0.000 C 
BRANCH  19  21
ATOM     20  C   UNL     1       3.289   1.715  18.278  0.00  0.00    +0.000 C 
ATOM     21  N   UNL     1       1.976   2.172  17.820  0.00  0.00    +0.000 NA
ATOM     22  H   UNL     1       1.688   1.566  17.049  0.00  0.00    +0.000 HD
ENDBRANCH  19  21
ENDBRANCH  15  19
ENDBRANCH  14  17
ENDBRANCH  13  14
ENDBRANCH   1  13
TORSDOF 7
ENDMDL
MODEL 5
REMARK VINA RESULT:      -6.5      2.867      6.245
REMARK  Name = 
REMARK  8 active torsions:
REMARK  status: ('A' for Active; 'I' for Inactive)
REMARK    1  A    between atoms: C_1  and  N_2
REMARK    2  A    between atoms: N_2  and  C_3
REMARK    3  A    between atoms: C_3  and  C_4
REMARK    4  A    between atoms: N_6  and  C_7
REMARK    5  A    between atoms: C_7  and  C_8
REMARK    6  A    between atoms: C_8  and  C_9
REMARK    7  A    between atoms: C_12  and  S_13
REMARK    8  A    between atoms: S_13  and  N_14
REMARK                            x       y       z     vdW  Elec       q    Type
REMARK                         _______ _______ _______ _____ _____    ______ ____
ROOT
ATOM      1  C   UNL     1       4.499   4.451  16.579  0.00  0.00    +0.000 A 
ATOM      2  C   UNL     1       4.000   5.568  17.265  0.00  0.00    +0.000 A 
ATOM      3  C   UNL     1       3.269   5.411  18.443  0.00  0.00    +0.000 A 
ATOM      4  C   UNL     1       3.030   4.125  18.937  0.00  0.00    +0.000 A 
ATOM      5  C   UNL     1       3.537   3.004  18.279  0.00  0.00    +0.000 A 
ATOM      6  C   UNL     1       4.268   3.168  17.100  0.00  0.00    +0.000 A 
ENDROOT
BRANCH   4   7
ATOM      7  S   UNL     1       2.118   3.926  20.440  0.00  0.00    +0.000 S 
ATOM      8  O   UNL     1       0.706   3.875  20.140  0.00  0.00    +0.000 OA
ATOM      9  O   UNL     1       2.771   2.944  21.269  0.00  0.00    +0.000 OA
BRANCH   7  10
ATOM     10  N   UNL     1       2.375   5.407  21.192  0.00  0.00    +0.000 NA
ATOM     11  H   UNL     1       2.064   6.164  20.583  0.00  0.00    +0.000 HD
ATOM     12  H   UNL     1       1.938   5.409  22.114  0.00  0.00    +0.000 HD
ENDBRANCH   7  10
ENDBRANCH   4   7
BRANCH   1  13
ATOM     13  C   UNL     1       5.305   4.634  15.314  0.00  0.00    +0.000 C 
BRANCH  13  14
ATOM     14  C   UNL     1       6.811   4.614  15.587  0.00  0.00    +0.000 C 
BRANCH  14  17
ATOM     15  C   UNL     1       7.589   5.638  17.698  0.00  0.00    +0.000 C 
ATOM     16  O   UNL     1       7.638   4.567  18.295  0.00  0.00    +0.000 OA
ATOM     17  N   UNL     1       7.246   5.757  16.367  0.00  0.00    +0.000 N 
ATOM     18  H   UNL     1       7.056   6.697  16.034  0.00  0.00    +0.000 HD
BRANCH  15  19
ATOM     19  C   UNL     1       7.924   6.972  18.372  0.00  0.00    +0.000 C 
BRANCH  19  21
ATOM     20  C   UNL     1       8.298   9.339  18.020  0.00  0.00    +0.000 C 
ATOM     21  N   UNL     1       7.737   8.113  17.450  0.00  0.00    +0.000 NA
ATOM     22  H   UNL     1       8.255   7.903  16.594  0.00  0.00    +0.000 HD
ENDBRANCH  19  21
ENDBRANCH  15  19
ENDBRANCH  14  17
ENDBRANCH  13  14
ENDBRANCH   1  13
TORSDOF 7
ENDMDL
MODEL 6
REMARK VINA RESULT:      -6.3      0.887      1.592
REMARK  Name = 
REMARK  8 active torsions:
REMARK  status: ('A' for Active; 'I' for Inactive)
REMARK    1  A    between atoms: C_1  and  N_2
REMARK    2  A    between atoms: N_2  and  C_3
REMARK    3  A    between atoms: C_3  and  C_4
REMARK    4  A    between atoms: N_6  and  C_7
REMARK    5  A    between atoms: C_7  and  C_8
REMARK    6  A    between atoms: C_8  and  C_9
REMARK    7  A    between atoms: C_12  and  S_13
REMARK    8  A    between atoms: S_13  and  N_14
REMARK                            x       y       z     vdW  Elec       q    Type
REMARK                         _______ _______ _______ _____ _____    ______ ____
ROOT
ATOM      1  C   UNL     1       3.522   6.052  19.005  0.00  0.00    +0.000 A 
ATOM      2  C   UNL     1       4.540   5.275  19.579  0.00  0.00    +0.000 A 
ATOM      3  C   UNL     1       5.599   4.804  18.802  0.00  0.00    +0.000 A 
ATOM      4  C   UNL     1       5.639   5.107  17.438  0.00  0.00    +0.000 A 
ATOM      5  C   UNL     1       4.646   5.897  16.855  0.00  0.00    +0.000 A 
ATOM      6  C   UNL     1       3.589   6.365  17.639  0.00  0.00    +0.000 A 
ENDROOT
BRANCH   4   7
ATOM      7  S   UNL     1       6.990   4.526  16.455  0.00  0.00    +0.000 S 
ATOM      8  O   UNL     1       8.095   4.181  17.317  0.00  0.00    +0.000 OA
ATOM      9  O   UNL     1       6.493   3.635  15.436  0.00  0.00    +0.000 OA
BRANCH   7  10
ATOM     10  N   UNL     1       7.453   5.928  15.652  0.00  0.00    +0.000 NA
ATOM     11  H   UNL     1       8.146   6.432  16.207  0.00  0.00    +0.000 HD
ATOM     12  H   UNL     1       7.763   5.701  14.707  0.00  0.00    +0.000 HD
ENDBRANCH   7  10
ENDBRANCH   4   7
BRANCH   1  13
ATOM     13  C   UNL     1       2.390   6.571  19.861  0.00  0.00    +0.000 C 
BRANCH  13  14
ATOM     14  C   UNL     1       1.584   5.433  20.494  0.00  0.00    +0.000 C 
BRANCH  14  17
ATOM     15  C   UNL     1       1.350   2.991  20.193  0.00  0.00    +0.000 C 
ATOM     16  O   UNL     1       1.094   2.787  21.376  0.00  0.00    +0.000 OA
ATOM     17  N   UNL     1       1.555   4.246  19.660  0.00  0.00    +0.000 N 
ATOM     18  H   UNL     1       1.944   4.279  18.723  0.00  0.00    +0.000 HD
BRANCH  15  19
ATOM     19  C   UNL     1       1.455   1.858  19.168  0.00  0.00    +0.000 C 
BRANCH  19  21
ATOM     20  C   UNL     1       3.334   2.004  17.646  0.00  0.00    +0.000 C 
ATOM     21  N   UNL     1       1.927   2.351  17.856  0.00  0.00    +0.000 NA
ATOM     22  H   UNL     1       1.379   1.876  17.135  0.00  0.00    +0.000 HD
ENDBRANCH  19  21
ENDBRANCH  15  19
ENDBRANCH  14  17
ENDBRANCH  13  14
ENDBRANCH   1  13
TORSDOF 7
ENDMDL
MODEL 7
REMARK VINA RESULT:      -6.3      3.302      6.652
REMARK  Name = 
REMARK  8 active torsions:
REMARK  status: ('A' for Active; 'I' for Inactive)
REMARK    1  A    between atoms: C_1  and  N_2
REMARK    2  A    between atoms: N_2  and  C_3
REMARK    3  A    between atoms: C_3  and  C_4
REMARK    4  A    between atoms: N_6  and  C_7
REMARK    5  A    between atoms: C_7  and  C_8
REMARK    6  A    between atoms: C_8  and  C_9
REMARK    7  A    between atoms: C_12  and  S_13
REMARK    8  A    between atoms: S_13  and  N_14
REMARK                            x       y       z     vdW  Elec       q    Type
REMARK                         _______ _______ _______ _____ _____    ______ ____
ROOT
ATOM      1  C   UNL     1       4.720   4.742  16.822  0.00  0.00    +0.000 A 
ATOM      2  C   UNL     1       4.469   3.429  17.249  0.00  0.00    +0.000 A 
ATOM      3  C   UNL     1       3.641   3.183  18.346  0.00  0.00    +0.000 A 
ATOM      4  C   UNL     1       3.064   4.259  19.026  0.00  0.00    +0.000 A 
ATOM      5  C   UNL     1       3.285   5.570  18.602  0.00  0.00    +0.000 A 
ATOM      6  C   UNL     1       4.115   5.810  17.504  0.00  0.00    +0.000 A 
ENDROOT
BRANCH   4   7
ATOM      7  S   UNL     1       2.001   3.948  20.405  0.00  0.00    +0.000 S 
ATOM      8  O   UNL     1       0.648   3.768  19.936  0.00  0.00    +0.000 OA
ATOM      9  O   UNL     1       2.641   3.020  21.303  0.00  0.00    +0.000 OA
BRANCH   7  10
ATOM     10  N   UNL     1       2.022   5.435  21.191  0.00  0.00    +0.000 NA
ATOM     11  H   UNL     1       2.525   5.353  22.075  0.00  0.00    +0.000 HD
ATOM     12  H   UNL     1       2.391   6.152  20.567  0.00  0.00    +0.000 HD
ENDBRANCH   7  10
ENDBRANCH   4   7
BRANCH   1  13
ATOM     13  C   UNL     1       5.603   4.995  15.623  0.00  0.00    +0.000 C 
BRANCH  13  14
ATOM     14  C   UNL     1       7.072   5.161  16.020  0.00  0.00    +0.000 C 
BRANCH  14  17
ATOM     15  C   UNL     1       7.682   6.943  17.621  0.00  0.00    +0.000 C 
ATOM     16  O   UNL     1       7.749   6.175  18.576  0.00  0.00    +0.000 OA
ATOM     17  N   UNL     1       7.407   6.538  16.331  0.00  0.00    +0.000 N 
ATOM     18  H   UNL     1       7.190   7.273  15.666  0.00  0.00    +0.000 HD
BRANCH  15  19
ATOM     19  C   UNL     1       7.913   8.451  17.760  0.00  0.00    +0.000 C 
BRANCH  19  21
ATOM     20  C   UNL     1       9.181  10.176  18.894  0.00  0.00    +0.000 C 
ATOM     21  N   UNL     1       8.789   8.765  18.910  0.00  0.00    +0.000 NA
ATOM     22  H   UNL     1       8.247   8.603  19.761  0.00  0.00    +0.000 HD
ENDBRANCH  19  21
ENDBRANCH  15  19
ENDBRANCH  14  17
ENDBRANCH  13  14
ENDBRANCH   1  13
TORSDOF 7
ENDMDL
MODEL 8
REMARK VINA RESULT:      -6.3      3.360      6.660
REMARK  Name = 
REMARK  8 active torsions:
REMARK  status: ('A' for Active; 'I' for Inactive)
REMARK    1  A    between atoms: C_1  and  N_2
REMARK    2  A    between atoms: N_2  and  C_3
REMARK    3  A    between atoms: C_3  and  C_4
REMARK    4  A    between atoms: N_6  and  C_7
REMARK    5  A    between atoms: C_7  and  C_8
REMARK    6  A    between atoms: C_8  and  C_9
REMARK    7  A    between atoms: C_12  and  S_13
REMARK    8  A    between atoms: S_13  and  N_14
REMARK                            x       y       z     vdW  Elec       q    Type
REMARK                         _______ _______ _______ _____ _____    ______ ____
ROOT
ATOM      1  C   UNL     1       4.800   4.190  17.323  0.00  0.00    +0.000 A 
ATOM      2  C   UNL     1       3.422   4.193  17.057  0.00  0.00    +0.000 A 
ATOM      3  C   UNL     1       2.497   4.154  18.101  0.00  0.00    +0.000 A 
ATOM      4  C   UNL     1       2.952   4.108  19.422  0.00  0.00    +0.000 A 
ATOM      5  C   UNL     1       4.318   4.126  19.705  0.00  0.00    +0.000 A 
ATOM      6  C   UNL     1       5.240   4.164  18.656  0.00  0.00    +0.000 A 
ENDROOT
BRANCH   4   7
ATOM      7  S   UNL     1       1.780   4.077  20.747  0.00  0.00    +0.000 S 
ATOM      8  O   UNL     1       2.326   3.326  21.852  0.00  0.00    +0.000 OA
ATOM      9  O   UNL     1       1.206   5.389  20.909  0.00  0.00    +0.000 OA
BRANCH   7  10
ATOM     10  N   UNL     1       0.560   3.119  20.098  0.00  0.00    +0.000 NA
ATOM     11  H   UNL     1       0.925   2.576  19.315  0.00  0.00    +0.000 HD
ATOM     12  H   UNL     1       0.134   2.555  20.833  0.00  0.00    +0.000 HD
ENDBRANCH   7  10
ENDBRANCH   4   7
BRANCH   1  13
ATOM     13  C   UNL     1       5.792   4.249  16.185  0.00  0.00    +0.000 C 
BRANCH  13  14
ATOM     14  C   UNL     1       7.186   4.663  16.663  0.00  0.00    +0.000 C 
BRANCH  14  17
ATOM     15  C   UNL     1       7.682   6.809  17.786  0.00  0.00    +0.000 C 
ATOM     16  O   UNL     1       7.907   6.283  18.871  0.00  0.00    +0.000 OA
ATOM     17  N   UNL     1       7.372   6.102  16.643  0.00  0.00    +0.000 N 
ATOM     18  H   UNL     1       7.022   6.645  15.859  0.00  0.00    +0.000 HD
BRANCH  15  19
ATOM     19  C   UNL     1       7.737   8.326  17.579  0.00  0.00    +0.000 C 
BRANCH  19  21
ATOM     20  C   UNL     1       8.866  10.376  18.203  0.00  0.00    +0.000 C 
ATOM     21  N   UNL     1       8.620   8.980  18.569  0.00  0.00    +0.000 NA
ATOM     22  H   UNL     1       8.131   8.976  19.466  0.00  0.00    +0.000 HD
ENDBRANCH  19  21
ENDBRANCH  15  19
ENDBRANCH  14  17
ENDBRANCH  13  14
ENDBRANCH   1  13
TORSDOF 7
ENDMDL
MODEL 9
REMARK VINA RESULT:      -6.2      2.872      5.807
REMARK  Name = 
REMARK  8 active torsions:
REMARK  status: ('A' for Active; 'I' for Inactive)
REMARK    1  A    between atoms: C_1  and  N_2
REMARK    2  A    between atoms: N_2  and  C_3
REMARK    3  A    between atoms: C_3  and  C_4
REMARK    4  A    between atoms: N_6  and  C_7
REMARK    5  A    between atoms: C_7  and  C_8
REMARK    6  A    between atoms: C_8  and  C_9
REMARK    7  A    between atoms: C_12  and  S_13
REMARK    8  A    between atoms: S_13  and  N_14
REMARK                            x       y       z     vdW  Elec       q    Type
REMARK                         _______ _______ _______ _____ _____    ______ ____
ROOT
ATOM      1  C   UNL     1       5.068   5.482  18.138  0.00  0.00    +0.000 A 
ATOM      2  C   UNL     1       3.807   5.852  17.646  0.00  0.00    +0.000 A 
ATOM      3  C   UNL     1       2.672   5.104  17.964  0.00  0.00    +0.000 A 
ATOM      4  C   UNL     1       2.799   3.973  18.776  0.00  0.00    +0.000 A 
ATOM      5  C   UNL     1       4.043   3.603  19.291  0.00  0.00    +0.000 A 
ATOM      6  C   UNL     1       5.175   4.356  18.969  0.00  0.00    +0.000 A 
ENDROOT
BRANCH   4   7
ATOM      7  S   UNL     1       1.360   3.035  19.193  0.00  0.00    +0.000 S 
ATOM      8  O   UNL     1       0.962   3.344  20.547  0.00  0.00    +0.000 OA
ATOM      9  O   UNL     1       0.434   3.060  18.088  0.00  0.00    +0.000 OA
BRANCH   7  10
ATOM     10  N   UNL     1       1.976   1.471  19.241  0.00  0.00    +0.000 NA
ATOM     11  H   UNL     1       2.354   1.276  20.168  0.00  0.00    +0.000 HD
ATOM     12  H   UNL     1       1.265   0.808  18.933  0.00  0.00    +0.000 HD
ENDBRANCH   7  10
ENDBRANCH   4   7
BRANCH   1  13
ATOM     13  C   UNL     1       6.286   6.309  17.802  0.00  0.00    +0.000 C 
BRANCH  13  14
ATOM     14  C   UNL     1       7.370   5.477  17.110  0.00  0.00    +0.000 C 
BRANCH  14  17
ATOM     15  C   UNL     1       6.589   4.390  15.032  0.00  0.00    +0.000 C 
ATOM     16  O   UNL     1       6.063   3.452  15.623  0.00  0.00    +0.000 OA
ATOM     17  N   UNL     1       7.206   5.447  15.669  0.00  0.00    +0.000 N 
ATOM     18  H   UNL     1       7.767   6.059  15.084  0.00  0.00    +0.000 HD
BRANCH  15  19
ATOM     19  C   UNL     1       6.604   4.494  13.504  0.00  0.00    +0.000 C 
BRANCH  19  21
ATOM     20  C   UNL     1       5.158   3.246  12.014  0.00  0.00    +0.000 C 
ATOM     21  N   UNL     1       6.348   3.186  12.864  0.00  0.00    +0.000 NA
ATOM     22  H   UNL     1       7.149   2.977  12.264  0.00  0.00    +0.000 HD
ENDBRANCH  19  21
ENDBRANCH  15  19
ENDBRANCH  14  17
ENDBRANCH  13  14
ENDBRANCH   1  13
TORSDOF 7
ENDMDL
