MODEL 1
REMARK VINA RESULT:      -7.7      0.000      0.000
REMARK  Name = 
REMARK  7 active torsions:
REMARK  status: ('A' for Active; 'I' for Inactive)
REMARK    1  A    between atoms: C_1  and  O_2
REMARK    2  A    between atoms: O_2  and  C_3
REMARK    3  A    between atoms: C_6  and  C_7
REMARK    4  A    between atoms: C_7  and  C_8
REMARK    5  A    between atoms: C_8  and  O_9
REMARK    6  A    between atoms: O_9  and  C_10
REMARK    7  A    between atoms: N_21  and  O_22
REMARK                            x       y       z     vdW  Elec       q    Type
REMARK                         _______ _______ _______ _____ _____    ______ ____
ROOT
ATOM      1  C   UNL     1       2.672   3.268  17.174  0.00  0.00    +0.000 C 
ENDROOT
BRANCH   1   2
ATOM      2  C   UNL     1       2.300   3.582  18.640  0.00  0.00    +0.000 C 
ATOM      3  N   UNL     1       2.116   2.655  19.538  0.00  0.00    +0.000 NA
BRANCH   2   7
ATOM      4  C   UNL     1       1.736   7.650  19.978  0.00  0.00    +0.000 A 
ATOM      5  C   UNL     1       2.236   7.401  18.699  0.00  0.00    +0.000 A 
ATOM      6  C   UNL     1       2.409   6.091  18.235  0.00  0.00    +0.000 A 
ATOM      7  C   UNL     1       2.123   5.007  19.071  0.00  0.00    +0.000 A 
ATOM      8  C   UNL     1       1.616   5.262  20.355  0.00  0.00    +0.000 A 
ATOM      9  C   UNL     1       1.428   6.568  20.807  0.00  0.00    +0.000 A 
BRANCH   4  11
ATOM     10  C   UNL     1       1.170   9.847  19.298  0.00  0.00    +0.000 C 
ATOM     11  O   UNL     1       1.629   8.968  20.320  0.00  0.00    +0.000 OA
ENDBRANCH   4  11
ENDBRANCH   2   7
BRANCH   3  12
ATOM     12  O   UNL     1       2.283   1.368  19.027  0.00  0.00    +0.000 OA
ATOM     13  H   UNL     1       2.744   0.915  19.755  0.00  0.00    +0.000 HD
ENDBRANCH   3  12
ENDBRANCH   1   2
BRANCH   1  14
ATOM     14  O   UNL     1       4.060   2.982  17.056  0.00  0.00    +0.000 OA
BRANCH  14  15
ATOM     15  C   UNL     1       4.948   4.015  17.074  0.00  0.00    +0.000 A 
ATOM     16  C   UNL     1       4.945   4.759  15.887  0.00  0.00    +0.000 A 
ATOM     17  C   UNL     1       5.736   5.896  15.757  0.00  0.00    +0.000 A 
ATOM     18  C   UNL     1       6.551   6.262  16.818  0.00  0.00    +0.000 A 
ATOM     19  O   UNL     1       7.218   7.496  16.716  0.00  0.00    +0.000 OA
ATOM     20  C   UNL     1       7.854   8.009  17.835  0.00  0.00    +0.000 A 
ATOM     21  O   UNL     1       8.114   9.198  17.966  0.00  0.00    +0.000 OA
ATOM     22  C   UNL     1       8.277   7.022  18.845  0.00  0.00    +0.000 A 
ATOM     23  C   UNL     1       7.689   5.823  18.931  0.00  0.00    +0.000 A 
ATOM     24  C   UNL     1       6.656   5.474  17.965  0.00  0.00    +0.000 A 
ATOM     25  C   UNL     1       5.823   4.356  18.107  0.00  0.00    +0.000 A 
ENDBRANCH  14  15
ENDBRANCH   1  14
TORSDOF 6
ENDMDL
MODEL 2
REMARK VINA RESULT:      -7.6      1.314      1.607
REMARK  Name = 
REMARK  7 active torsions:
REMARK  status: ('A' for Active; 'I' for Inactive)
REMARK    1  A    between atoms: C_1  and  O_2
REMARK    2  A    between atoms: O_2  and  C_3
REMARK    3  A    between atoms: C_6  and  C_7
REMARK    4  A    between atoms: C_7  and  C_8
REMARK    5  A    between atoms: C_8  and  O_9
REMARK    6  A    between atoms: O_9  and  C_10
REMARK    7  A    between atoms: N_21  and  O_22
REMARK                            x       y       z     vdW  Elec       q    Type
REMARK                         _______ _______ _______ _____ _____    ______ ____
ROOT
ATOM      1  C   UNL     1       1.852   3.338  19.339  0.00  0.00    +0.000 C 
ENDROOT
BRANCH   1   2
ATOM      2  C   UNL     1       2.077   4.387  20.451  0.00  0.00    +0.000 C 
ATOM      3  N   UNL     1       2.386   4.066  21.675  0.00  0.00    +0.000 NA
BRANCH   2   7
ATOM      4  C   UNL     1       1.578   8.601  19.643  0.00  0.00    +0.000 A 
ATOM      5  C   UNL     1       2.119   7.764  18.666  0.00  0.00    +0.000 A 
ATOM      6  C   UNL     1       2.273   6.392  18.896  0.00  0.00    +0.000 A 
ATOM      7  C   UNL     1       1.924   5.845  20.135  0.00  0.00    +0.000 A 
ATOM      8  C   UNL     1       1.376   6.689  21.114  0.00  0.00    +0.000 A 
ATOM      9  C   UNL     1       1.208   8.053  20.874  0.00  0.00    +0.000 A 
BRANCH   4  11
ATOM     10  C   UNL     1       1.910  10.260  17.986  0.00  0.00    +0.000 C 
ATOM     11  O   UNL     1       1.495   9.922  19.305  0.00  0.00    +0.000 OA
ENDBRANCH   4  11
ENDBRANCH   2   7
BRANCH   3  12
ATOM     12  O   UNL     1       2.481   2.688  21.864  0.00  0.00    +0.000 OA
ATOM     13  H   UNL     1       1.657   2.366  21.457  0.00  0.00    +0.000 HD
ENDBRANCH   3  12
ENDBRANCH   1   2
BRANCH   1  14
ATOM     14  O   UNL     1       3.089   2.769  18.926  0.00  0.00    +0.000 OA
BRANCH  14  15
ATOM     15  C   UNL     1       4.072   3.593  18.469  0.00  0.00    +0.000 A 
ATOM     16  C   UNL     1       3.984   3.836  17.092  0.00  0.00    +0.000 A 
ATOM     17  C   UNL     1       4.863   4.716  16.467  0.00  0.00    +0.000 A 
ATOM     18  C   UNL     1       5.848   5.325  17.231  0.00  0.00    +0.000 A 
ATOM     19  O   UNL     1       6.617   6.322  16.605  0.00  0.00    +0.000 OA
ATOM     20  C   UNL     1       7.448   7.114  17.382  0.00  0.00    +0.000 A 
ATOM     21  O   UNL     1       7.844   8.215  17.022  0.00  0.00    +0.000 OA
ATOM     22  C   UNL     1       7.900   6.521  18.653  0.00  0.00    +0.000 A 
ATOM     23  C   UNL     1       7.210   5.539  19.244  0.00  0.00    +0.000 A 
ATOM     24  C   UNL     1       6.026   5.012  18.580  0.00  0.00    +0.000 A 
ATOM     25  C   UNL     1       5.109   4.160  19.212  0.00  0.00    +0.000 A 
ENDBRANCH  14  15
ENDBRANCH   1  14
TORSDOF 6
ENDMDL
MODEL 3
REMARK VINA RESULT:      -7.6      0.878      1.379
REMARK  Name = 
REMARK  7 active torsions:
REMARK  status: ('A' for Active; 'I' for Inactive)
REMARK    1  A    between atoms: C_1  and  O_2
REMARK    2  A    between atoms: O_2  and  C_3
REMARK    3  A    between atoms: C_6  and  C_7
REMARK    4  A    between atoms: C_7  and  C_8
REMARK    5  A    between atoms: C_8  and  O_9
REMARK    6  A    between atoms: O_9  and  C_10
REMARK    7  A    between atoms: N_21  and  O_22
REMARK                            x       y       z     vdW  Elec       q    Type
REMARK                         _______ _______ _______ _____ _____    ______ ____
ROOT
ATOM      1  C   UNL     1       3.489   2.859  19.192  0.00  0.00    +0.000 C 
ENDROOT
BRANCH   1   2
ATOM      2  C   UNL     1       2.136   3.577  18.993  0.00  0.00    +0.000 C 
ATOM      3  N   UNL     1       1.115   3.016  18.409  0.00  0.00    +0.000 NA
BRANCH   2   7
ATOM      4  C   UNL     1       1.720   7.683  20.271  0.00  0.00    +0.000 A 
ATOM      5  C   UNL     1       1.266   6.648  21.092  0.00  0.00    +0.000 A 
ATOM      6  C   UNL     1       1.407   5.309  20.708  0.00  0.00    +0.000 A 
ATOM      7  C   UNL     1       1.969   4.990  19.468  0.00  0.00    +0.000 A 
ATOM      8  C   UNL     1       2.429   6.033  18.648  0.00  0.00    +0.000 A 
ATOM      9  C   UNL     1       2.303   7.365  19.042  0.00  0.00    +0.000 A 
BRANCH   4  11
ATOM     10  C   UNL     1       1.308   9.061  22.153  0.00  0.00    +0.000 C 
ATOM     11  O   UNL     1       1.510   8.945  20.748  0.00  0.00    +0.000 OA
ENDBRANCH   4  11
ENDBRANCH   2   7
BRANCH   3  12
ATOM     12  O   UNL     1       1.383   1.714  17.987  0.00  0.00    +0.000 OA
ATOM     13  H   UNL     1       1.324   1.210  18.817  0.00  0.00    +0.000 HD
ENDBRANCH   3  12
ENDBRANCH   1   2
BRANCH   1  14
ATOM     14  O   UNL     1       4.254   2.885  17.993  0.00  0.00    +0.000 OA
BRANCH  14  15
ATOM     15  C   UNL     1       5.095   3.933  17.772  0.00  0.00    +0.000 A 
ATOM     16  C   UNL     1       5.016   4.433  16.466  0.00  0.00    +0.000 A 
ATOM     17  C   UNL     1       5.751   5.551  16.086  0.00  0.00    +0.000 A 
ATOM     18  C   UNL     1       6.588   6.144  17.019  0.00  0.00    +0.000 A 
ATOM     19  O   UNL     1       7.197   7.358  16.653  0.00  0.00    +0.000 OA
ATOM     20  C   UNL     1       7.851   8.100  17.623  0.00  0.00    +0.000 A 
ATOM     21  O   UNL     1       8.063   9.301  17.512  0.00  0.00    +0.000 OA
ATOM     22  C   UNL     1       8.353   7.342  18.784  0.00  0.00    +0.000 A 
ATOM     23  C   UNL     1       7.822   6.163  19.124  0.00  0.00    +0.000 A 
ATOM     24  C   UNL     1       6.770   5.597  18.290  0.00  0.00    +0.000 A 
ATOM     25  C   UNL     1       5.992   4.498  18.681  0.00  0.00    +0.000 A 
ENDBRANCH  14  15
ENDBRANCH   1  14
TORSDOF 6
ENDMDL
MODEL 4
REMARK VINA RESULT:      -7.5      1.111      1.605
REMARK  Name = 
REMARK  7 active torsions:
REMARK  status: ('A' for Active; 'I' for Inactive)
REMARK    1  A    between atoms: C_1  and  O_2
REMARK    2  A    between atoms: O_2  and  C_3
REMARK    3  A    between atoms: C_6  and  C_7
REMARK    4  A    between atoms: C_7  and  C_8
REMARK    5  A    between atoms: C_8  and  O_9
REMARK    6  A    between atoms: O_9  and  C_10
REMARK    7  A    between atoms: N_21  and  O_22
REMARK                            x       y       z     vdW  Elec       q    Type
REMARK                         _______ _______ _______ _____ _____    ______ ____
ROOT
ATOM      1  C   UNL     1       2.189   3.448  18.906  0.00  0.00    +0.000 C 
ENDROOT
BRANCH   1   2
ATOM      2  C   UNL     1       2.137   4.383  20.135  0.00  0.00    +0.000 C 
ATOM      3  N   UNL     1       2.235   3.950  21.360  0.00  0.00    +0.000 NA
BRANCH   2   7
ATOM      4  C   UNL     1       1.649   8.621  19.453  0.00  0.00    +0.000 A 
ATOM      5  C   UNL     1       1.372   8.081  20.711  0.00  0.00    +0.000 A 
ATOM      6  C   UNL     1       1.541   6.715  20.962  0.00  0.00    +0.000 A 
ATOM      7  C   UNL     1       1.951   5.858  19.935  0.00  0.00    +0.000 A 
ATOM      8  C   UNL     1       2.232   6.405  18.673  0.00  0.00    +0.000 A 
ATOM      9  C   UNL     1       2.079   7.771  18.432  0.00  0.00    +0.000 A 
BRANCH   4  11
ATOM     10  C   UNL     1       0.307  10.345  18.539  0.00  0.00    +0.000 C 
ATOM     11  O   UNL     1       1.428   9.963  19.330  0.00  0.00    +0.000 OA
ENDBRANCH   4  11
ENDBRANCH   2   7
BRANCH   3  12
ATOM     12  O   UNL     1       2.382   2.566  21.432  0.00  0.00    +0.000 OA
ATOM     13  H   UNL     1       1.722   2.253  20.788  0.00  0.00    +0.000 HD
ENDBRANCH   3  12
ENDBRANCH   1   2
BRANCH   1  14
ATOM     14  O   UNL     1       3.516   2.989  18.679  0.00  0.00    +0.000 OA
BRANCH  14  15
ATOM     15  C   UNL     1       4.464   3.885  18.289  0.00  0.00    +0.000 A 
ATOM     16  C   UNL     1       4.354   4.245  16.939  0.00  0.00    +0.000 A 
ATOM     17  C   UNL     1       5.194   5.208  16.388  0.00  0.00    +0.000 A 
ATOM     18  C   UNL     1       6.163   5.783  17.196  0.00  0.00    +0.000 A 
ATOM     19  O   UNL     1       6.890   6.858  16.655  0.00  0.00    +0.000 OA
ATOM     20  C   UNL     1       7.700   7.609  17.491  0.00  0.00    +0.000 A 
ATOM     21  O   UNL     1       8.053   8.752  17.227  0.00  0.00    +0.000 OA
ATOM     22  C   UNL     1       8.186   6.924  18.702  0.00  0.00    +0.000 A 
ATOM     23  C   UNL     1       7.538   5.869  19.209  0.00  0.00    +0.000 A 
ATOM     24  C   UNL     1       6.367   5.359  18.510  0.00  0.00    +0.000 A 
ATOM     25  C   UNL     1       5.487   4.423  19.071  0.00  0.00    +0.000 A 
ENDBRANCH  14  15
ENDBRANCH   1  14
TORSDOF 6
ENDMDL
MODEL 5
REMARK VINA RESULT:      -7.4      0.724      1.201
REMARK  Name = 
REMARK  7 active torsions:
REMARK  status: ('A' for Active; 'I' for Inactive)
REMARK    1  A    between atoms: C_1  and  O_2
REMARK    2  A    between atoms: O_2  and  C_3
REMARK    3  A    between atoms: C_6  and  C_7
REMARK    4  A    between atoms: C_7  and  C_8
REMARK    5  A    between atoms: C_8  and  O_9
REMARK    6  A    between atoms: O_9  and  C_10
REMARK    7  A    between atoms: N_21  and  O_22
REMARK                            x       y       z     vdW  Elec       q    Type
REMARK                         _______ _______ _______ _____ _____    ______ ____
ROOT
ATOM      1  C   UNL     1       3.438   2.679  18.788  0.00  0.00    +0.000 C 
ENDROOT
BRANCH   1   2
ATOM      2  C   UNL     1       2.074   3.400  18.879  0.00  0.00    +0.000 C 
ATOM      3  N   UNL     1       0.935   2.770  18.824  0.00  0.00    +0.000 NA
BRANCH   2   7
ATOM      4  C   UNL     1       1.981   7.709  19.171  0.00  0.00    +0.000 A 
ATOM      5  C   UNL     1       1.889   6.930  20.326  0.00  0.00    +0.000 A 
ATOM      6  C   UNL     1       1.937   5.533  20.259  0.00  0.00    +0.000 A 
ATOM      7  C   UNL     1       2.033   4.892  19.020  0.00  0.00    +0.000 A 
ATOM      8  C   UNL     1       2.129   5.679  17.861  0.00  0.00    +0.000 A 
ATOM      9  C   UNL     1       2.100   7.072  17.933  0.00  0.00    +0.000 A 
BRANCH   4  11
ATOM     10  C   UNL     1       1.811   9.858  18.191  0.00  0.00    +0.000 C 
ATOM     11  O   UNL     1       1.905   9.058  19.365  0.00  0.00    +0.000 OA
ENDBRANCH   4  11
ENDBRANCH   2   7
BRANCH   3  12
ATOM     12  O   UNL     1       1.087   1.392  18.670  0.00  0.00    +0.000 OA
ATOM     13  H   UNL     1       2.054   1.297  18.604  0.00  0.00    +0.000 HD
ENDBRANCH   3  12
ENDBRANCH   1   2
BRANCH   1  14
ATOM     14  O   UNL     1       4.055   2.927  17.530  0.00  0.00    +0.000 OA
BRANCH  14  15
ATOM     15  C   UNL     1       4.940   3.957  17.424  0.00  0.00    +0.000 A 
ATOM     16  C   UNL     1       4.931   4.556  16.157  0.00  0.00    +0.000 A 
ATOM     17  C   UNL     1       5.719   5.672  15.892  0.00  0.00    +0.000 A 
ATOM     18  C   UNL     1       6.535   6.163  16.900  0.00  0.00    +0.000 A 
ATOM     19  O   UNL     1       7.198   7.378  16.652  0.00  0.00    +0.000 OA
ATOM     20  C   UNL     1       7.835   8.021  17.701  0.00  0.00    +0.000 A 
ATOM     21  O   UNL     1       8.092   9.218  17.690  0.00  0.00    +0.000 OA
ATOM     22  C   UNL     1       8.263   7.161  18.819  0.00  0.00    +0.000 A 
ATOM     23  C   UNL     1       7.680   5.979  19.047  0.00  0.00    +0.000 A 
ATOM     24  C   UNL     1       6.646   5.515  18.132  0.00  0.00    +0.000 A 
ATOM     25  C   UNL     1       5.816   4.419  18.407  0.00  0.00    +0.000 A 
ENDBRANCH  14  15
ENDBRANCH   1  14
TORSDOF 6
ENDMDL
MODEL 6
REMARK VINA RESULT:      -7.4      2.835      7.115
REMARK  Name = 
REMARK  7 active torsions:
REMARK  status: ('A' for Active; 'I' for Inactive)
REMARK    1  A    between atoms: C_1  and  O_2
REMARK    2  A    between atoms: O_2  and  C_3
REMARK    3  A    between atoms: C_6  and  C_7
REMARK    4  A    between atoms: C_7  and  C_8
REMARK    5  A    between atoms: C_8  and  O_9
REMARK    6  A    between atoms: O_9  and  C_10
REMARK    7  A    between atoms: N_21  and  O_22
REMARK                            x       y       z     vdW  Elec       q    Type
REMARK                         _______ _______ _______ _____ _____    ______ ____
ROOT
ATOM      1  C   UNL     1       7.483   5.089  18.110  0.00  0.00    +0.000 C 
ENDROOT
BRANCH   1   2
ATOM      2  C   UNL     1       7.347   5.837  16.765  0.00  0.00    +0.000 C 
ATOM      3  N   UNL     1       7.572   7.114  16.638  0.00  0.00    +0.000 NA
BRANCH   2   7
ATOM      4  C   UNL     1       6.193   3.740  13.169  0.00  0.00    +0.000 A 
ATOM      5  C   UNL     1       5.550   3.458  14.376  0.00  0.00    +0.000 A 
ATOM      6  C   UNL     1       5.893   4.138  15.551  0.00  0.00    +0.000 A 
ATOM      7  C   UNL     1       6.922   5.085  15.539  0.00  0.00    +0.000 A 
ATOM      8  C   UNL     1       7.563   5.368  14.322  0.00  0.00    +0.000 A 
ATOM      9  C   UNL     1       7.206   4.701  13.150  0.00  0.00    +0.000 A 
BRANCH   4  11
ATOM     10  C   UNL     1       4.486   3.295  11.588  0.00  0.00    +0.000 C 
ATOM     11  O   UNL     1       5.782   2.998  12.099  0.00  0.00    +0.000 OA
ENDBRANCH   4  11
ENDBRANCH   2   7
BRANCH   3  12
ATOM     12  O   UNL     1       7.938   7.719  17.840  0.00  0.00    +0.000 OA
ATOM     13  H   UNL     1       7.158   8.266  18.043  0.00  0.00    +0.000 HD
ENDBRANCH   3  12
ENDBRANCH   1   2
BRANCH   1  14
ATOM     14  O   UNL     1       6.570   5.609  19.069  0.00  0.00    +0.000 OA
BRANCH  14  15
ATOM     15  C   UNL     1       5.291   5.140  19.082  0.00  0.00    +0.000 A 
ATOM     16  C   UNL     1       4.416   5.919  18.314  0.00  0.00    +0.000 A 
ATOM     17  C   UNL     1       3.085   5.546  18.152  0.00  0.00    +0.000 A 
ATOM     18  C   UNL     1       2.635   4.400  18.792  0.00  0.00    +0.000 A 
ATOM     19  O   UNL     1       1.334   3.966  18.485  0.00  0.00    +0.000 OA
ATOM     20  C   UNL     1       0.925   2.714  18.915  0.00  0.00    +0.000 A 
ATOM     21  O   UNL     1       0.002   2.100  18.395  0.00  0.00    +0.000 OA
ATOM     22  C   UNL     1       1.622   2.181  20.100  0.00  0.00    +0.000 A 
ATOM     23  C   UNL     1       2.842   2.612  20.439  0.00  0.00    +0.000 A 
ATOM     24  C   UNL     1       3.458   3.672  19.653  0.00  0.00    +0.000 A 
ATOM     25  C   UNL     1       4.809   4.028  19.774  0.00  0.00    +0.000 A 
ENDBRANCH  14  15
ENDBRANCH   1  14
TORSDOF 6
ENDMDL
MODEL 7
REMARK VINA RESULT:      -7.4      1.801      2.942
REMARK  Name = 
REMARK  7 active torsions:
REMARK  status: ('A' for Active; 'I' for Inactive)
REMARK    1  A    between atoms: C_1  and  O_2
REMARK    2  A    between atoms: O_2  and  C_3
REMARK    3  A    between atoms: C_6  and  C_7
REMARK    4  A    between atoms: C_7  and  C_8
REMARK    5  A    between atoms: C_8  and  O_9
REMARK    6  A    between atoms: O_9  and  C_10
REMARK    7  A    between atoms: N_21  and  O_22
REMARK                            x       y       z     vdW  Elec       q    Type
REMARK                         _______ _______ _______ _____ _____    ______ ____
ROOT
ATOM      1  C   UNL     1       3.390   3.127  19.701  0.00  0.00    +0.000 C 
ENDROOT
BRANCH   1   2
ATOM      2  C   UNL     1       2.490   4.122  20.467  0.00  0.00    +0.000 C 
ATOM      3  N   UNL     1       1.854   3.806  21.560  0.00  0.00    +0.000 NA
BRANCH   2   7
ATOM      4  C   UNL     1       2.014   8.098  18.847  0.00  0.00    +0.000 A 
ATOM      5  C   UNL     1       1.816   7.873  20.211  0.00  0.00    +0.000 A 
ATOM      6  C   UNL     1       1.983   6.598  20.763  0.00  0.00    +0.000 A 
ATOM      7  C   UNL     1       2.310   5.515  19.941  0.00  0.00    +0.000 A 
ATOM      8  C   UNL     1       2.513   5.746  18.571  0.00  0.00    +0.000 A 
ATOM      9  C   UNL     1       2.363   7.022  18.028  0.00  0.00    +0.000 A 
BRANCH   4  11
ATOM     10  C   UNL     1       0.453   9.739  18.154  0.00  0.00    +0.000 C 
ATOM     11  O   UNL     1       1.804   9.380  18.427  0.00  0.00    +0.000 OA
ENDBRANCH   4  11
ENDBRANCH   2   7
BRANCH   3  12
ATOM     12  O   UNL     1       2.072   2.484  21.948  0.00  0.00    +0.000 OA
ATOM     13  H   UNL     1       3.033   2.470  22.104  0.00  0.00    +0.000 HD
ENDBRANCH   3  12
ENDBRANCH   1   2
BRANCH   1  14
ATOM     14  O   UNL     1       4.747   3.551  19.731  0.00  0.00    +0.000 OA
BRANCH  14  15
ATOM     15  C   UNL     1       5.290   4.096  18.607  0.00  0.00    +0.000 A 
ATOM     16  C   UNL     1       6.173   5.149  18.882  0.00  0.00    +0.000 A 
ATOM     17  C   UNL     1       6.876   5.774  17.856  0.00  0.00    +0.000 A 
ATOM     18  C   UNL     1       6.663   5.353  16.552  0.00  0.00    +0.000 A 
ATOM     19  O   UNL     1       7.499   5.895  15.560  0.00  0.00    +0.000 OA
ATOM     20  C   UNL     1       7.481   5.341  14.291  0.00  0.00    +0.000 A 
ATOM     21  O   UNL     1       8.405   5.465  13.497  0.00  0.00    +0.000 OA
ATOM     22  C   UNL     1       6.239   4.644  13.910  0.00  0.00    +0.000 A 
ATOM     23  C   UNL     1       5.404   4.160  14.837  0.00  0.00    +0.000 A 
ATOM     24  C   UNL     1       5.705   4.385  16.243  0.00  0.00    +0.000 A 
ATOM     25  C   UNL     1       5.035   3.729  17.285  0.00  0.00    +0.000 A 
ENDBRANCH  14  15
ENDBRANCH   1  14
TORSDOF 6
ENDMDL
MODEL 8
REMARK VINA RESULT:      -7.4      1.771      2.792
REMARK  Name = 
REMARK  7 active torsions:
REMARK  status: ('A' for Active; 'I' for Inactive)
REMARK    1  A    between atoms: C_1  and  O_2
REMARK    2  A    between atoms: O_2  and  C_3
REMARK    3  A    between atoms: C_6  and  C_7
REMARK    4  A    between atoms: C_7  and  C_8
REMARK    5  A    between atoms: C_8  and  O_9
REMARK    6  A    between atoms: O_9  and  C_10
REMARK    7  A    between atoms: N_21  and  O_22
REMARK                            x       y       z     vdW  Elec       q    Type
REMARK                         _______ _______ _______ _____ _____    ______ ____
ROOT
ATOM      1  C   UNL     1       2.931   3.217  19.427  0.00  0.00    +0.000 C 
ENDROOT
BRANCH   1   2
ATOM      2  C   UNL     1       2.491   4.246  20.491  0.00  0.00    +0.000 C 
ATOM      3  N   UNL     1       2.314   3.938  21.745  0.00  0.00    +0.000 NA
BRANCH   2   7
ATOM      4  C   UNL     1       1.696   8.356  19.426  0.00  0.00    +0.000 A 
ATOM      5  C   UNL     1       2.241   7.485  18.481  0.00  0.00    +0.000 A 
ATOM      6  C   UNL     1       2.489   6.144  18.796  0.00  0.00    +0.000 A 
ATOM      7  C   UNL     1       2.234   5.667  20.086  0.00  0.00    +0.000 A 
ATOM      8  C   UNL     1       1.682   6.545  21.032  0.00  0.00    +0.000 A 
ATOM      9  C   UNL     1       1.419   7.877  20.709  0.00  0.00    +0.000 A 
BRANCH   4  11
ATOM     10  C   UNL     1       0.604   9.829  17.927  0.00  0.00    +0.000 C 
ATOM     11  O   UNL     1       1.517   9.642  19.003  0.00  0.00    +0.000 OA
ENDBRANCH   4  11
ENDBRANCH   2   7
BRANCH   3  12
ATOM     12  O   UNL     1       2.558   2.590  22.008  0.00  0.00    +0.000 OA
ATOM     13  H   UNL     1       2.876   2.265  21.147  0.00  0.00    +0.000 HD
ENDBRANCH   3  12
ENDBRANCH   1   2
BRANCH   1  14
ATOM     14  O   UNL     1       4.350   3.150  19.347  0.00  0.00    +0.000 OA
BRANCH  14  15
ATOM     15  C   UNL     1       4.982   3.784  18.320  0.00  0.00    +0.000 A 
ATOM     16  C   UNL     1       5.861   4.785  18.754  0.00  0.00    +0.000 A 
ATOM     17  C   UNL     1       6.647   5.485  17.844  0.00  0.00    +0.000 A 
ATOM     18  C   UNL     1       6.520   5.192  16.494  0.00  0.00    +0.000 A 
ATOM     19  O   UNL     1       7.434   5.804  15.618  0.00  0.00    +0.000 OA
ATOM     20  C   UNL     1       7.497   5.370  14.304  0.00  0.00    +0.000 A 
ATOM     21  O   UNL     1       8.478   5.545  13.591  0.00  0.00    +0.000 OA
ATOM     22  C   UNL     1       6.274   4.741  13.774  0.00  0.00    +0.000 A 
ATOM     23  C   UNL     1       5.366   4.194  14.590  0.00  0.00    +0.000 A 
ATOM     24  C   UNL     1       5.570   4.281  16.030  0.00  0.00    +0.000 A 
ATOM     25  C   UNL     1       4.815   3.547  16.955  0.00  0.00    +0.000 A 
ENDBRANCH  14  15
ENDBRANCH   1  14
TORSDOF 6
ENDMDL
MODEL 9
REMARK VINA RESULT:      -7.4      1.532      2.810
REMARK  Name = 
REMARK  7 active torsions:
REMARK  status: ('A' for Active; 'I' for Inactive)
REMARK    1  A    between atoms: C_1  and  O_2
REMARK    2  A    between atoms: O_2  and  C_3
REMARK    3  A    between atoms: C_6  and  C_7
REMARK    4  A    between atoms: C_7  and  C_8
REMARK    5  A    between atoms: C_8  and  O_9
REMARK    6  A    between atoms: O_9  and  C_10
REMARK    7  A    between atoms: N_21  and  O_22
REMARK                            x       y       z     vdW  Elec       q    Type
REMARK                         _______ _______ _______ _____ _____    ______ ____
ROOT
ATOM      1  C   UNL     1       3.497   2.781  19.524  0.00  0.00    +0.000 C 
ENDROOT
BRANCH   1   2
ATOM      2  C   UNL     1       2.461   3.641  18.766  0.00  0.00    +0.000 C 
ATOM      3  N   UNL     1       1.767   3.190  17.759  0.00  0.00    +0.000 NA
BRANCH   2   7
ATOM      4  C   UNL     1       1.861   7.780  19.847  0.00  0.00    +0.000 A 
ATOM      5  C   UNL     1       1.644   6.774  20.792  0.00  0.00    +0.000 A 
ATOM      6  C   UNL     1       1.850   5.428  20.471  0.00  0.00    +0.000 A 
ATOM      7  C   UNL     1       2.237   5.065  19.177  0.00  0.00    +0.000 A 
ATOM      8  C   UNL     1       2.458   6.079  18.231  0.00  0.00    +0.000 A 
ATOM      9  C   UNL     1       2.269   7.422  18.560  0.00  0.00    +0.000 A 
BRANCH   4  11
ATOM     10  C   UNL     1       0.943   9.906  19.351  0.00  0.00    +0.000 C 
ATOM     11  O   UNL     1       1.608   9.051  20.275  0.00  0.00    +0.000 OA
ENDBRANCH   4  11
ENDBRANCH   2   7
BRANCH   3  12
ATOM     12  O   UNL     1       2.068   1.864  17.447  0.00  0.00    +0.000 OA
ATOM     13  H   UNL     1       2.883   1.956  16.922  0.00  0.00    +0.000 HD
ENDBRANCH   3  12
ENDBRANCH   1   2
BRANCH   1  14
ATOM     14  O   UNL     1       4.748   3.455  19.604  0.00  0.00    +0.000 OA
BRANCH  14  15
ATOM     15  C   UNL     1       5.271   4.006  18.473  0.00  0.00    +0.000 A 
ATOM     16  C   UNL     1       5.994   5.180  18.722  0.00  0.00    +0.000 A 
ATOM     17  C   UNL     1       6.661   5.837  17.693  0.00  0.00    +0.000 A 
ATOM     18  C   UNL     1       6.570   5.322  16.408  0.00  0.00    +0.000 A 
ATOM     19  O   UNL     1       7.377   5.917  15.422  0.00  0.00    +0.000 OA
ATOM     20  C   UNL     1       7.495   5.297  14.188  0.00  0.00    +0.000 A 
ATOM     21  O   UNL     1       8.434   5.501  13.429  0.00  0.00    +0.000 OA
ATOM     22  C   UNL     1       6.375   4.422  13.798  0.00  0.00    +0.000 A 
ATOM     23  C   UNL     1       5.565   3.883  14.715  0.00  0.00    +0.000 A 
ATOM     24  C   UNL     1       5.763   4.221  16.117  0.00  0.00    +0.000 A 
ATOM     25  C   UNL     1       5.132   3.538  17.166  0.00  0.00    +0.000 A 
ENDBRANCH  14  15
ENDBRANCH   1  14
TORSDOF 6
ENDMDL
