MODEL 1
REMARK VINA RESULT:      -8.7      0.000      0.000
REMARK  Name = 
REMARK  9 active torsions:
REMARK  status: ('A' for Active; 'I' for Inactive)
REMARK    1  A    between atoms: C_1  and  O_2
REMARK    2  A    between atoms: O_2  and  C_3
REMARK    3  A    between atoms: C_5  and  N_6
REMARK    4  A    between atoms: N_6  and  C_7
REMARK    5  A    between atoms: C_7  and  C_8
REMARK    6  A    between atoms: C_7  and  C_19
REMARK    7  A    between atoms: C_8  and  C_10
REMARK    8  A    between atoms: C_26  and  O_27
REMARK    9  A    between atoms: O_27  and  C_28
REMARK                            x       y       z     vdW  Elec       q    Type
REMARK                         _______ _______ _______ _____ _____    ______ ____
ROOT
ATOM      1  C   UNL     1       1.968   6.629  19.428  0.00  0.00    +0.000 C 
ENDROOT
BRANCH   1   2
ATOM      2  C   UNL     1       1.761   5.168  19.787  0.00  0.00    +0.000 A 
ATOM      3  C   UNL     1       1.456   4.169  18.856  0.00  0.00    +0.000 A 
ATOM      4  C   UNL     1       1.347   2.837  19.256  0.00  0.00    +0.000 A 
ATOM      5  C   UNL     1       1.566   2.535  20.585  0.00  0.00    +0.000 A 
ATOM      6  N   UNL     1       1.875   3.458  21.519  0.00  0.00    +0.000 NA
ATOM      7  C   UNL     1       1.968   4.745  21.101  0.00  0.00    +0.000 A 
ENDBRANCH   1   2
BRANCH   1   8
ATOM      8  N   UNL     1       2.041   7.522  20.587  0.00  0.00    +0.000 N 
ATOM      9  H   UNL     1       2.289   7.061  21.455  0.00  0.00    +0.000 HD
BRANCH   8  12
ATOM     10  C   UNL     1      -0.076  10.393  19.616  0.00  0.00    +0.000 A 
ATOM     11  C   UNL     1       0.809   9.305  19.565  0.00  0.00    +0.000 A 
ATOM     12  C   UNL     1       1.277   8.672  20.726  0.00  0.00    +0.000 A 
ATOM     13  C   UNL     1       0.872   9.204  21.957  0.00  0.00    +0.000 A 
ATOM     14  C   UNL     1      -0.052  10.253  22.020  0.00  0.00    +0.000 A 
ATOM     15  C   UNL     1      -0.503  10.870  20.847  0.00  0.00    +0.000 A 
BRANCH  10  17
ATOM     16  C   UNL     1      -1.429  10.122  17.681  0.00  0.00    +0.000 C 
ATOM     17  O   UNL     1      -0.449  10.872  18.390  0.00  0.00    +0.000 OA
ENDBRANCH  10  17
BRANCH  14  18
ATOM     18  O   UNL     1      -0.453  10.639  23.274  0.00  0.00    +0.000 OA
ATOM     19  C   UNL     1      -1.668  11.389  23.286  0.00  0.00    +0.000 C 
ENDBRANCH  14  18
ENDBRANCH   8  12
ENDBRANCH   1   8
BRANCH   1  20
ATOM     20  C   UNL     1       3.100   6.919  18.429  0.00  0.00    +0.000 C 
ATOM     21  O   UNL     1       2.945   7.934  17.724  0.00  0.00    +0.000 OA
BRANCH  20  22
ATOM     22  C   UNL     1       4.315   6.108  18.177  0.00  0.00    +0.000 A 
ATOM     23  C   UNL     1       4.914   5.504  19.284  0.00  0.00    +0.000 A 
ATOM     24  N   UNL     1       6.228   5.374  18.978  0.00  0.00    +0.000 N 
ATOM     25  C   UNL     1       6.314   5.127  17.637  0.00  0.00    +0.000 A 
ATOM     26  C   UNL     1       7.354   4.522  16.927  0.00  0.00    +0.000 A 
ATOM     27  C   UNL     1       7.194   4.381  15.558  0.00  0.00    +0.000 A 
ATOM     28  C   UNL     1       6.072   4.924  14.929  0.00  0.00    +0.000 A 
ATOM     29  C   UNL     1       5.060   5.587  15.659  0.00  0.00    +0.000 A 
ATOM     30  C   UNL     1       5.133   5.648  17.069  0.00  0.00    +0.000 A 
ATOM     31  H   UNL     1       6.989   5.326  19.641  0.00  0.00    +0.000 HD
ENDBRANCH  20  22
ENDBRANCH   1  20
TORSDOF 7
ENDMDL
MODEL 2
REMARK VINA RESULT:      -8.5      0.673      2.294
REMARK  Name = 
REMARK  9 active torsions:
REMARK  status: ('A' for Active; 'I' for Inactive)
REMARK    1  A    between atoms: C_1  and  O_2
REMARK    2  A    between atoms: O_2  and  C_3
REMARK    3  A    between atoms: C_5  and  N_6
REMARK    4  A    between atoms: N_6  and  C_7
REMARK    5  A    between atoms: C_7  and  C_8
REMARK    6  A    between atoms: C_7  and  C_19
REMARK    7  A    between atoms: C_8  and  C_10
REMARK    8  A    between atoms: C_26  and  O_27
REMARK    9  A    between atoms: O_27  and  C_28
REMARK                            x       y       z     vdW  Elec       q    Type
REMARK                         _______ _______ _______ _____ _____    ______ ____
ROOT
ATOM      1  C   UNL     1       2.063   6.629  19.419  0.00  0.00    +0.000 C 
ENDROOT
BRANCH   1   2
ATOM      2  C   UNL     1       1.952   5.184  19.872  0.00  0.00    +0.000 A 
ATOM      3  C   UNL     1       2.187   4.753  21.182  0.00  0.00    +0.000 A 
ATOM      4  C   UNL     1       1.998   3.416  21.534  0.00  0.00    +0.000 A 
ATOM      5  C   UNL     1       1.558   2.542  20.560  0.00  0.00    +0.000 A 
ATOM      6  N   UNL     1       1.304   2.909  19.288  0.00  0.00    +0.000 NA
ATOM      7  C   UNL     1       1.502   4.213  18.974  0.00  0.00    +0.000 A 
ENDBRANCH   1   2
BRANCH   1   8
ATOM      8  N   UNL     1       2.029   7.600  20.516  0.00  0.00    +0.000 N 
ATOM      9  H   UNL     1       2.284   7.219  21.420  0.00  0.00    +0.000 HD
BRANCH   8  12
ATOM     10  C   UNL     1      -0.176  10.202  21.942  0.00  0.00    +0.000 A 
ATOM     11  C   UNL     1       0.593   9.039  21.784  0.00  0.00    +0.000 A 
ATOM     12  C   UNL     1       1.174   8.692  20.555  0.00  0.00    +0.000 A 
ATOM     13  C   UNL     1       0.912   9.527  19.462  0.00  0.00    +0.000 A 
ATOM     14  C   UNL     1       0.193  10.717  19.618  0.00  0.00    +0.000 A 
ATOM     15  C   UNL     1      -0.380  11.040  20.854  0.00  0.00    +0.000 A 
BRANCH  10  17
ATOM     16  C   UNL     1      -1.683  11.357  23.370  0.00  0.00    +0.000 C 
ATOM     17  O   UNL     1      -0.645  10.398  23.212  0.00  0.00    +0.000 OA
ENDBRANCH  10  17
BRANCH  14  18
ATOM     18  O   UNL     1       0.071  11.508  18.505  0.00  0.00    +0.000 OA
ATOM     19  C   UNL     1      -1.241  12.039  18.313  0.00  0.00    +0.000 C 
ENDBRANCH  14  18
ENDBRANCH   8  12
ENDBRANCH   1   8
BRANCH   1  20
ATOM     20  C   UNL     1       3.206   6.937  18.438  0.00  0.00    +0.000 C 
ATOM     21  O   UNL     1       3.078   7.986  17.779  0.00  0.00    +0.000 OA
BRANCH  20  22
ATOM     22  C   UNL     1       4.403   6.111  18.154  0.00  0.00    +0.000 A 
ATOM     23  C   UNL     1       5.007   5.477  19.241  0.00  0.00    +0.000 A 
ATOM     24  N   UNL     1       6.314   5.330  18.914  0.00  0.00    +0.000 N 
ATOM     25  C   UNL     1       6.377   5.105  17.567  0.00  0.00    +0.000 A 
ATOM     26  C   UNL     1       7.396   4.496  16.831  0.00  0.00    +0.000 A 
ATOM     27  C   UNL     1       7.214   4.383  15.462  0.00  0.00    +0.000 A 
ATOM     28  C   UNL     1       6.092   4.957  14.860  0.00  0.00    +0.000 A 
ATOM     29  C   UNL     1       5.103   5.623  15.616  0.00  0.00    +0.000 A 
ATOM     30  C   UNL     1       5.197   5.657  17.026  0.00  0.00    +0.000 A 
ATOM     31  H   UNL     1       7.084   5.256  19.564  0.00  0.00    +0.000 HD
ENDBRANCH  20  22
ENDBRANCH   1  20
TORSDOF 7
ENDMDL
MODEL 3
REMARK VINA RESULT:      -8.5      1.903      3.228
REMARK  Name = 
REMARK  9 active torsions:
REMARK  status: ('A' for Active; 'I' for Inactive)
REMARK    1  A    between atoms: C_1  and  O_2
REMARK    2  A    between atoms: O_2  and  C_3
REMARK    3  A    between atoms: C_5  and  N_6
REMARK    4  A    between atoms: N_6  and  C_7
REMARK    5  A    between atoms: C_7  and  C_8
REMARK    6  A    between atoms: C_7  and  C_19
REMARK    7  A    between atoms: C_8  and  C_10
REMARK    8  A    between atoms: C_26  and  O_27
REMARK    9  A    between atoms: O_27  and  C_28
REMARK                            x       y       z     vdW  Elec       q    Type
REMARK                         _______ _______ _______ _____ _____    ______ ____
ROOT
ATOM      1  C   UNL     1       3.617   5.291  18.689  0.00  0.00    +0.000 C 
ENDROOT
BRANCH   1   2
ATOM      2  C   UNL     1       2.624   4.147  18.791  0.00  0.00    +0.000 A 
ATOM      3  C   UNL     1       1.732   3.977  19.855  0.00  0.00    +0.000 A 
ATOM      4  C   UNL     1       0.804   2.936  19.842  0.00  0.00    +0.000 A 
ATOM      5  C   UNL     1       0.780   2.096  18.746  0.00  0.00    +0.000 A 
ATOM      6  N   UNL     1       1.609   2.225  17.690  0.00  0.00    +0.000 NA
ATOM      7  C   UNL     1       2.504   3.242  17.734  0.00  0.00    +0.000 A 
ENDBRANCH   1   2
BRANCH   1   8
ATOM      8  N   UNL     1       3.445   6.322  19.715  0.00  0.00    +0.000 N 
ATOM      9  H   UNL     1       3.658   6.014  20.658  0.00  0.00    +0.000 HD
BRANCH   8  12
ATOM     10  C   UNL     1       0.780   8.662  20.757  0.00  0.00    +0.000 A 
ATOM     11  C   UNL     1       1.650   7.563  20.706  0.00  0.00    +0.000 A 
ATOM     12  C   UNL     1       2.523   7.355  19.627  0.00  0.00    +0.000 A 
ATOM     13  C   UNL     1       2.456   8.262  18.562  0.00  0.00    +0.000 A 
ATOM     14  C   UNL     1       1.631   9.390  18.625  0.00  0.00    +0.000 A 
ATOM     15  C   UNL     1       0.767   9.575  19.711  0.00  0.00    +0.000 A 
BRANCH  10  17
ATOM     16  C   UNL     1      -0.370  10.019  22.334  0.00  0.00    +0.000 C 
ATOM     17  O   UNL     1       0.018   8.723  21.892  0.00  0.00    +0.000 OA
ENDBRANCH  10  17
BRANCH  14  18
ATOM     18  O   UNL     1       1.708  10.263  17.570  0.00  0.00    +0.000 OA
ATOM     19  C   UNL     1       2.211  11.552  17.922  0.00  0.00    +0.000 C 
ENDBRANCH  14  18
ENDBRANCH   8  12
ENDBRANCH   1   8
BRANCH   1  20
ATOM     20  C   UNL     1       5.094   4.886  18.549  0.00  0.00    +0.000 C 
ATOM     21  O   UNL     1       5.637   4.472  19.590  0.00  0.00    +0.000 OA
BRANCH  20  22
ATOM     22  C   UNL     1       5.948   4.979  17.341  0.00  0.00    +0.000 A 
ATOM     23  C   UNL     1       7.224   5.516  17.508  0.00  0.00    +0.000 A 
ATOM     24  N   UNL     1       7.562   6.065  16.316  0.00  0.00    +0.000 N 
ATOM     25  C   UNL     1       7.013   5.287  15.335  0.00  0.00    +0.000 A 
ATOM     26  C   UNL     1       7.395   5.173  13.997  0.00  0.00    +0.000 A 
ATOM     27  C   UNL     1       6.671   4.300  13.200  0.00  0.00    +0.000 A 
ATOM     28  C   UNL     1       5.548   3.653  13.719  0.00  0.00    +0.000 A 
ATOM     29  C   UNL     1       5.143   3.830  15.060  0.00  0.00    +0.000 A 
ATOM     30  C   UNL     1       5.923   4.622  15.934  0.00  0.00    +0.000 A 
ATOM     31  H   UNL     1       8.216   6.823  16.176  0.00  0.00    +0.000 HD
ENDBRANCH  20  22
ENDBRANCH   1  20
TORSDOF 7
ENDMDL
MODEL 4
REMARK VINA RESULT:      -8.4      3.169      8.233
REMARK  Name = 
REMARK  9 active torsions:
REMARK  status: ('A' for Active; 'I' for Inactive)
REMARK    1  A    between atoms: C_1  and  O_2
REMARK    2  A    between atoms: O_2  and  C_3
REMARK    3  A    between atoms: C_5  and  N_6
REMARK    4  A    between atoms: N_6  and  C_7
REMARK    5  A    between atoms: C_7  and  C_8
REMARK    6  A    between atoms: C_7  and  C_19
REMARK    7  A    between atoms: C_8  and  C_10
REMARK    8  A    between atoms: C_26  and  O_27
REMARK    9  A    between atoms: O_27  and  C_28
REMARK                            x       y       z     vdW  Elec       q    Type
REMARK                         _______ _______ _______ _____ _____    ______ ____
ROOT
ATOM      1  C   UNL     1       4.987   6.278  16.897  0.00  0.00    +0.000 C 
ENDROOT
BRANCH   1   2
ATOM      2  C   UNL     1       6.167   6.166  17.846  0.00  0.00    +0.000 A 
ATOM      3  C   UNL     1       7.287   7.003  17.806  0.00  0.00    +0.000 A 
ATOM      4  C   UNL     1       8.300   6.879  18.757  0.00  0.00    +0.000 A 
ATOM      5  C   UNL     1       8.155   5.923  19.743  0.00  0.00    +0.000 A 
ATOM      6  N   UNL     1       7.090   5.101  19.834  0.00  0.00    +0.000 NA
ATOM      7  C   UNL     1       6.125   5.241  18.892  0.00  0.00    +0.000 A 
ENDBRANCH   1   2
BRANCH   1   8
ATOM      8  N   UNL     1       4.773   5.087  16.071  0.00  0.00    +0.000 N 
ATOM      9  H   UNL     1       4.369   4.301  16.567  0.00  0.00    +0.000 HD
BRANCH   8  12
ATOM     10  C   UNL     1       5.706   3.560  12.837  0.00  0.00    +0.000 A 
ATOM     11  C   UNL     1       5.039   3.850  14.036  0.00  0.00    +0.000 A 
ATOM     12  C   UNL     1       5.557   4.754  14.976  0.00  0.00    +0.000 A 
ATOM     13  C   UNL     1       6.806   5.325  14.699  0.00  0.00    +0.000 A 
ATOM     14  C   UNL     1       7.455   5.085  13.483  0.00  0.00    +0.000 A 
ATOM     15  C   UNL     1       6.920   4.176  12.562  0.00  0.00    +0.000 A 
BRANCH  10  17
ATOM     16  C   UNL     1       4.040   3.212  11.178  0.00  0.00    +0.000 C 
ATOM     17  O   UNL     1       5.048   2.675  12.027  0.00  0.00    +0.000 OA
ENDBRANCH  10  17
BRANCH  14  18
ATOM     18  O   UNL     1       8.628   5.764  13.272  0.00  0.00    +0.000 OA
ATOM     19  C   UNL     1       8.700   6.414  12.003  0.00  0.00    +0.000 C 
ENDBRANCH  14  18
ENDBRANCH   8  12
ENDBRANCH   1   8
BRANCH   1  20
ATOM     20  C   UNL     1       3.670   6.767  17.521  0.00  0.00    +0.000 C 
ATOM     21  O   UNL     1       3.299   7.902  17.167  0.00  0.00    +0.000 OA
BRANCH  20  22
ATOM     22  C   UNL     1       2.829   6.071  18.523  0.00  0.00    +0.000 A 
ATOM     23  C   UNL     1       2.424   6.811  19.635  0.00  0.00    +0.000 A 
ATOM     24  N   UNL     1       2.243   5.918  20.638  0.00  0.00    +0.000 N 
ATOM     25  C   UNL     1       1.769   4.764  20.079  0.00  0.00    +0.000 A 
ATOM     26  C   UNL     1       1.051   3.732  20.687  0.00  0.00    +0.000 A 
ATOM     27  C   UNL     1       0.677   2.661  19.892  0.00  0.00    +0.000 A 
ATOM     28  C   UNL     1       1.104   2.597  18.564  0.00  0.00    +0.000 A 
ATOM     29  C   UNL     1       1.882   3.625  17.985  0.00  0.00    +0.000 A 
ATOM     30  C   UNL     1       2.185   4.786  18.732  0.00  0.00    +0.000 A 
ATOM     31  H   UNL     1       2.309   6.115  21.626  0.00  0.00    +0.000 HD
ENDBRANCH  20  22
ENDBRANCH   1  20
TORSDOF 7
ENDMDL
MODEL 5
REMARK VINA RESULT:      -8.4      3.114      8.615
REMARK  Name = 
REMARK  9 active torsions:
REMARK  status: ('A' for Active; 'I' for Inactive)
REMARK    1  A    between atoms: C_1  and  O_2
REMARK    2  A    between atoms: O_2  and  C_3
REMARK    3  A    between atoms: C_5  and  N_6
REMARK    4  A    between atoms: N_6  and  C_7
REMARK    5  A    between atoms: C_7  and  C_8
REMARK    6  A    between atoms: C_7  and  C_19
REMARK    7  A    between atoms: C_8  and  C_10
REMARK    8  A    between atoms: C_26  and  O_27
REMARK    9  A    between atoms: O_27  and  C_28
REMARK                            x       y       z     vdW  Elec       q    Type
REMARK                         _______ _______ _______ _____ _____    ______ ____
ROOT
ATOM      1  C   UNL     1       4.846   5.357  16.746  0.00  0.00    +0.000 C 
ENDROOT
BRANCH   1   2
ATOM      2  C   UNL     1       6.017   5.996  17.470  0.00  0.00    +0.000 A 
ATOM      3  C   UNL     1       6.767   5.357  18.463  0.00  0.00    +0.000 A 
ATOM      4  C   UNL     1       7.872   5.988  19.035  0.00  0.00    +0.000 A 
ATOM      5  C   UNL     1       8.211   7.247  18.580  0.00  0.00    +0.000 A 
ATOM      6  N   UNL     1       7.530   7.901  17.617  0.00  0.00    +0.000 NA
ATOM      7  C   UNL     1       6.458   7.264  17.085  0.00  0.00    +0.000 A 
ENDBRANCH   1   2
BRANCH   1   8
ATOM      8  N   UNL     1       5.193   4.134  16.018  0.00  0.00    +0.000 N 
ATOM      9  H   UNL     1       5.351   3.326  16.609  0.00  0.00    +0.000 HD
BRANCH   8  12
ATOM     10  C   UNL     1       5.868   3.406  12.457  0.00  0.00    +0.000 A 
ATOM     11  C   UNL     1       5.326   3.370  13.750  0.00  0.00    +0.000 A 
ATOM     12  C   UNL     1       5.868   4.120  14.806  0.00  0.00    +0.000 A 
ATOM     13  C   UNL     1       7.017   4.872  14.536  0.00  0.00    +0.000 A 
ATOM     14  C   UNL     1       7.536   4.958  13.239  0.00  0.00    +0.000 A 
ATOM     15  C   UNL     1       6.979   4.199  12.203  0.00  0.00    +0.000 A 
BRANCH  10  17
ATOM     16  C   UNL     1       3.933   3.109  11.111  0.00  0.00    +0.000 C 
ATOM     17  O   UNL     1       5.201   2.634  11.546  0.00  0.00    +0.000 OA
ENDBRANCH  10  17
BRANCH  14  18
ATOM     18  O   UNL     1       8.609   5.794  13.064  0.00  0.00    +0.000 OA
ATOM     19  C   UNL     1       8.594   6.503  11.826  0.00  0.00    +0.000 C 
ENDBRANCH  14  18
ENDBRANCH   8  12
ENDBRANCH   1   8
BRANCH   1  20
ATOM     20  C   UNL     1       3.567   5.167  17.578  0.00  0.00    +0.000 C 
ATOM     21  O   UNL     1       2.902   4.148  17.313  0.00  0.00    +0.000 OA
BRANCH  20  22
ATOM     22  C   UNL     1       3.017   6.075  18.612  0.00  0.00    +0.000 A 
ATOM     23  C   UNL     1       3.204   5.705  19.944  0.00  0.00    +0.000 A 
ATOM     24  N   UNL     1       2.176   6.253  20.637  0.00  0.00    +0.000 N 
ATOM     25  C   UNL     1       1.876   7.449  20.048  0.00  0.00    +0.000 A 
ATOM     26  C   UNL     1       1.218   8.551  20.599  0.00  0.00    +0.000 A 
ATOM     27  C   UNL     1       1.041   9.659  19.786  0.00  0.00    +0.000 A 
ATOM     28  C   UNL     1       1.426   9.608  18.445  0.00  0.00    +0.000 A 
ATOM     29  C   UNL     1       2.036   8.460  17.892  0.00  0.00    +0.000 A 
ATOM     30  C   UNL     1       2.337   7.354  18.719  0.00  0.00    +0.000 A 
ATOM     31  H   UNL     1       1.799   5.909  21.509  0.00  0.00    +0.000 HD
ENDBRANCH  20  22
ENDBRANCH   1  20
TORSDOF 7
ENDMDL
MODEL 6
REMARK VINA RESULT:      -8.3      2.045      7.507
REMARK  Name = 
REMARK  9 active torsions:
REMARK  status: ('A' for Active; 'I' for Inactive)
REMARK    1  A    between atoms: C_1  and  O_2
REMARK    2  A    between atoms: O_2  and  C_3
REMARK    3  A    between atoms: C_5  and  N_6
REMARK    4  A    between atoms: N_6  and  C_7
REMARK    5  A    between atoms: C_7  and  C_8
REMARK    6  A    between atoms: C_7  and  C_19
REMARK    7  A    between atoms: C_8  and  C_10
REMARK    8  A    between atoms: C_26  and  O_27
REMARK    9  A    between atoms: O_27  and  C_28
REMARK                            x       y       z     vdW  Elec       q    Type
REMARK                         _______ _______ _______ _____ _____    ______ ____
ROOT
ATOM      1  C   UNL     1       3.055   7.059  18.630  0.00  0.00    +0.000 C 
ENDROOT
BRANCH   1   2
ATOM      2  C   UNL     1       2.526   5.647  18.808  0.00  0.00    +0.000 A 
ATOM      3  C   UNL     1       1.787   4.960  17.839  0.00  0.00    +0.000 A 
ATOM      4  C   UNL     1       1.394   3.639  18.052  0.00  0.00    +0.000 A 
ATOM      5  C   UNL     1       1.771   3.028  19.231  0.00  0.00    +0.000 A 
ATOM      6  N   UNL     1       2.494   3.641  20.191  0.00  0.00    +0.000 NA
ATOM      7  C   UNL     1       2.856   4.927  19.958  0.00  0.00    +0.000 A 
ENDBRANCH   1   2
BRANCH   1   8
ATOM      8  N   UNL     1       3.942   7.222  17.475  0.00  0.00    +0.000 N 
ATOM      9  H   UNL     1       3.514   7.687  16.682  0.00  0.00    +0.000 HD
BRANCH   8  12
ATOM     10  C   UNL     1       6.284   5.259  15.396  0.00  0.00    +0.000 A 
ATOM     11  C   UNL     1       5.186   6.027  15.813  0.00  0.00    +0.000 A 
ATOM     12  C   UNL     1       4.972   6.347  17.162  0.00  0.00    +0.000 A 
ATOM     13  C   UNL     1       5.870   5.821  18.098  0.00  0.00    +0.000 A 
ATOM     14  C   UNL     1       6.998   5.099  17.691  0.00  0.00    +0.000 A 
ATOM     15  C   UNL     1       7.188   4.790  16.339  0.00  0.00    +0.000 A 
BRANCH  10  17
ATOM     16  C   UNL     1       6.207   3.726  13.581  0.00  0.00    +0.000 C 
ATOM     17  O   UNL     1       6.352   5.064  14.044  0.00  0.00    +0.000 OA
ENDBRANCH  10  17
BRANCH  14  18
ATOM     18  O   UNL     1       7.862   4.706  18.680  0.00  0.00    +0.000 OA
ATOM     19  C   UNL     1       7.990   5.649  19.744  0.00  0.00    +0.000 C 
ENDBRANCH  14  18
ENDBRANCH   8  12
ENDBRANCH   1   8
BRANCH   1  20
ATOM     20  C   UNL     1       2.004   8.179  18.688  0.00  0.00    +0.000 C 
ATOM     21  O   UNL     1       1.688   8.675  17.590  0.00  0.00    +0.000 OA
BRANCH  20  22
ATOM     22  C   UNL     1       1.368   8.764  19.893  0.00  0.00    +0.000 A 
ATOM     23  C   UNL     1       1.367   7.984  21.049  0.00  0.00    +0.000 A 
ATOM     24  N   UNL     1       0.285   8.373  21.767  0.00  0.00    +0.000 N 
ATOM     25  C   UNL     1       0.118   9.714  21.562  0.00  0.00    +0.000 A 
ATOM     26  C   UNL     1      -0.554  10.641  22.362  0.00  0.00    +0.000 A 
ATOM     27  C   UNL     1      -0.575  11.958  21.931  0.00  0.00    +0.000 A 
ATOM     28  C   UNL     1      -0.025  12.294  20.692  0.00  0.00    +0.000 A 
ATOM     29  C   UNL     1       0.597  11.328  19.870  0.00  0.00    +0.000 A 
ATOM     30  C   UNL     1       0.739   9.998  20.329  0.00  0.00    +0.000 A 
ATOM     31  H   UNL     1      -0.216   7.808  22.438  0.00  0.00    +0.000 HD
ENDBRANCH  20  22
ENDBRANCH   1  20
TORSDOF 7
ENDMDL
MODEL 7
REMARK VINA RESULT:      -8.3      2.064      7.827
REMARK  Name = 
REMARK  9 active torsions:
REMARK  status: ('A' for Active; 'I' for Inactive)
REMARK    1  A    between atoms: C_1  and  O_2
REMARK    2  A    between atoms: O_2  and  C_3
REMARK    3  A    between atoms: C_5  and  N_6
REMARK    4  A    between atoms: N_6  and  C_7
REMARK    5  A    between atoms: C_7  and  C_8
REMARK    6  A    between atoms: C_7  and  C_19
REMARK    7  A    between atoms: C_8  and  C_10
REMARK    8  A    between atoms: C_26  and  O_27
REMARK    9  A    between atoms: O_27  and  C_28
REMARK                            x       y       z     vdW  Elec       q    Type
REMARK                         _______ _______ _______ _____ _____    ______ ____
ROOT
ATOM      1  C   UNL     1       3.180   7.093  18.589  0.00  0.00    +0.000 C 
ENDROOT
BRANCH   1   2
ATOM      2  C   UNL     1       2.720   5.654  18.736  0.00  0.00    +0.000 A 
ATOM      3  C   UNL     1       1.887   5.001  17.821  0.00  0.00    +0.000 A 
ATOM      4  C   UNL     1       1.564   3.654  17.992  0.00  0.00    +0.000 A 
ATOM      5  C   UNL     1       2.101   2.987  19.075  0.00  0.00    +0.000 A 
ATOM      6  N   UNL     1       2.918   3.567  19.977  0.00  0.00    +0.000 NA
ATOM      7  C   UNL     1       3.210   4.877  19.788  0.00  0.00    +0.000 A 
ENDBRANCH   1   2
BRANCH   1   8
ATOM      8  N   UNL     1       4.060   7.322  17.440  0.00  0.00    +0.000 N 
ATOM      9  H   UNL     1       3.668   7.927  16.727  0.00  0.00    +0.000 HD
BRANCH   8  12
ATOM     10  C   UNL     1       6.949   5.017  17.520  0.00  0.00    +0.000 A 
ATOM     11  C   UNL     1       6.040   6.035  17.846  0.00  0.00    +0.000 A 
ATOM     12  C   UNL     1       4.994   6.402  16.986  0.00  0.00    +0.000 A 
ATOM     13  C   UNL     1       4.920   5.750  15.749  0.00  0.00    +0.000 A 
ATOM     14  C   UNL     1       5.787   4.698  15.434  0.00  0.00    +0.000 A 
ATOM     15  C   UNL     1       6.824   4.351  16.308  0.00  0.00    +0.000 A 
BRANCH  10  17
ATOM     16  C   UNL     1       7.936   5.681  19.577  0.00  0.00    +0.000 C 
ATOM     17  O   UNL     1       7.889   4.773  18.483  0.00  0.00    +0.000 OA
ENDBRANCH  10  17
BRANCH  14  18
ATOM     18  O   UNL     1       5.571   4.065  14.237  0.00  0.00    +0.000 OA
ATOM     19  C   UNL     1       6.712   4.048  13.379  0.00  0.00    +0.000 C 
ENDBRANCH  14  18
ENDBRANCH   8  12
ENDBRANCH   1   8
BRANCH   1  20
ATOM     20  C   UNL     1       2.076   8.160  18.666  0.00  0.00    +0.000 C 
ATOM     21  O   UNL     1       1.734   8.658  17.577  0.00  0.00    +0.000 OA
BRANCH  20  22
ATOM     22  C   UNL     1       1.415   8.693  19.881  0.00  0.00    +0.000 A 
ATOM     23  C   UNL     1       1.358   7.851  20.993  0.00  0.00    +0.000 A 
ATOM     24  N   UNL     1       0.263   8.227  21.696  0.00  0.00    +0.000 N 
ATOM     25  C   UNL     1       0.134   9.581  21.562  0.00  0.00    +0.000 A 
ATOM     26  C   UNL     1      -0.542  10.480  22.390  0.00  0.00    +0.000 A 
ATOM     27  C   UNL     1      -0.517  11.818  22.033  0.00  0.00    +0.000 A 
ATOM     28  C   UNL     1       0.080  12.208  20.832  0.00  0.00    +0.000 A 
ATOM     29  C   UNL     1       0.706  11.273  19.978  0.00  0.00    +0.000 A 
ATOM     30  C   UNL     1       0.802   9.917  20.366  0.00  0.00    +0.000 A 
ATOM     31  H   UNL     1      -0.272   7.639  22.319  0.00  0.00    +0.000 HD
ENDBRANCH  20  22
ENDBRANCH   1  20
TORSDOF 7
ENDMDL
MODEL 8
REMARK VINA RESULT:      -8.3      3.106      8.785
REMARK  Name = 
REMARK  9 active torsions:
REMARK  status: ('A' for Active; 'I' for Inactive)
REMARK    1  A    between atoms: C_1  and  O_2
REMARK    2  A    between atoms: O_2  and  C_3
REMARK    3  A    between atoms: C_5  and  N_6
REMARK    4  A    between atoms: N_6  and  C_7
REMARK    5  A    between atoms: C_7  and  C_8
REMARK    6  A    between atoms: C_7  and  C_19
REMARK    7  A    between atoms: C_8  and  C_10
REMARK    8  A    between atoms: C_26  and  O_27
REMARK    9  A    between atoms: O_27  and  C_28
REMARK                            x       y       z     vdW  Elec       q    Type
REMARK                         _______ _______ _______ _____ _____    ______ ____
ROOT
ATOM      1  C   UNL     1       4.838   5.279  16.711  0.00  0.00    +0.000 C 
ENDROOT
BRANCH   1   2
ATOM      2  C   UNL     1       6.062   5.805  17.439  0.00  0.00    +0.000 A 
ATOM      3  C   UNL     1       6.634   7.061  17.204  0.00  0.00    +0.000 A 
ATOM      4  C   UNL     1       7.719   7.499  17.963  0.00  0.00    +0.000 A 
ATOM      5  C   UNL     1       8.197   6.669  18.957  0.00  0.00    +0.000 A 
ATOM      6  N   UNL     1       7.674   5.457  19.233  0.00  0.00    +0.000 NA
ATOM      7  C   UNL     1       6.624   5.056  18.475  0.00  0.00    +0.000 A 
ENDBRANCH   1   2
BRANCH   1   8
ATOM      8  N   UNL     1       5.091   4.077  15.914  0.00  0.00    +0.000 N 
ATOM      9  H   UNL     1       5.313   3.252  16.460  0.00  0.00    +0.000 HD
BRANCH   8  12
ATOM     10  C   UNL     1       7.417   4.883  13.157  0.00  0.00    +0.000 A 
ATOM     11  C   UNL     1       6.740   4.905  14.386  0.00  0.00    +0.000 A 
ATOM     12  C   UNL     1       5.620   4.096  14.631  0.00  0.00    +0.000 A 
ATOM     13  C   UNL     1       5.160   3.296  13.578  0.00  0.00    +0.000 A 
ATOM     14  C   UNL     1       5.859   3.226  12.367  0.00  0.00    +0.000 A 
ATOM     15  C   UNL     1       6.972   4.045  12.144  0.00  0.00    +0.000 A 
BRANCH  10  17
ATOM     16  C   UNL     1       8.651   6.490  11.914  0.00  0.00    +0.000 C 
ATOM     17  O   UNL     1       8.501   5.716  13.099  0.00  0.00    +0.000 OA
ENDBRANCH  10  17
BRANCH  14  18
ATOM     18  O   UNL     1       5.377   2.344  11.434  0.00  0.00    +0.000 OA
ATOM     19  C   UNL     1       6.299   1.312  11.084  0.00  0.00    +0.000 C 
ENDBRANCH  14  18
ENDBRANCH   8  12
ENDBRANCH   1   8
BRANCH   1  20
ATOM     20  C   UNL     1       3.567   5.127  17.563  0.00  0.00    +0.000 C 
ATOM     21  O   UNL     1       2.910   4.088  17.363  0.00  0.00    +0.000 OA
BRANCH  20  22
ATOM     22  C   UNL     1       3.015   6.088  18.547  0.00  0.00    +0.000 A 
ATOM     23  C   UNL     1       3.122   5.746  19.895  0.00  0.00    +0.000 A 
ATOM     24  N   UNL     1       2.091   6.362  20.524  0.00  0.00    +0.000 N 
ATOM     25  C   UNL     1       1.880   7.556  19.892  0.00  0.00    +0.000 A 
ATOM     26  C   UNL     1       1.253   8.703  20.383  0.00  0.00    +0.000 A 
ATOM     27  C   UNL     1       1.170   9.796  19.536  0.00  0.00    +0.000 A 
ATOM     28  C   UNL     1       1.614   9.689  18.216  0.00  0.00    +0.000 A 
ATOM     29  C   UNL     1       2.190   8.498  17.722  0.00  0.00    +0.000 A 
ATOM     30  C   UNL     1       2.397   7.401  18.589  0.00  0.00    +0.000 A 
ATOM     31  H   UNL     1       1.657   6.061  21.385  0.00  0.00    +0.000 HD
ENDBRANCH  20  22
ENDBRANCH   1  20
TORSDOF 7
ENDMDL
MODEL 9
REMARK VINA RESULT:      -8.3      2.239      7.540
REMARK  Name = 
REMARK  9 active torsions:
REMARK  status: ('A' for Active; 'I' for Inactive)
REMARK    1  A    between atoms: C_1  and  O_2
REMARK    2  A    between atoms: O_2  and  C_3
REMARK    3  A    between atoms: C_5  and  N_6
REMARK    4  A    between atoms: N_6  and  C_7
REMARK    5  A    between atoms: C_7  and  C_8
REMARK    6  A    between atoms: C_7  and  C_19
REMARK    7  A    between atoms: C_8  and  C_10
REMARK    8  A    between atoms: C_26  and  O_27
REMARK    9  A    between atoms: O_27  and  C_28
REMARK                            x       y       z     vdW  Elec       q    Type
REMARK                         _______ _______ _______ _____ _____    ______ ____
ROOT
ATOM      1  C   UNL     1       3.040   7.372  18.478  0.00  0.00    +0.000 C 
ENDROOT
BRANCH   1   2
ATOM      2  C   UNL     1       2.455   6.010  18.803  0.00  0.00    +0.000 A 
ATOM      3  C   UNL     1       2.321   5.504  20.101  0.00  0.00    +0.000 A 
ATOM      4  C   UNL     1       1.710   4.270  20.322  0.00  0.00    +0.000 A 
ATOM      5  C   UNL     1       1.229   3.576  19.230  0.00  0.00    +0.000 A 
ATOM      6  N   UNL     1       1.321   4.024  17.961  0.00  0.00    +0.000 NA
ATOM      7  C   UNL     1       1.924   5.224  17.778  0.00  0.00    +0.000 A 
ENDBRANCH   1   2
BRANCH   1   8
ATOM      8  N   UNL     1       4.080   7.342  17.446  0.00  0.00    +0.000 N 
ATOM      9  H   UNL     1       3.852   7.865  16.608  0.00  0.00    +0.000 HD
BRANCH   8  12
ATOM     10  C   UNL     1       5.804   4.555  15.737  0.00  0.00    +0.000 A 
ATOM     11  C   UNL     1       4.875   5.554  16.063  0.00  0.00    +0.000 A 
ATOM     12  C   UNL     1       4.955   6.282  17.260  0.00  0.00    +0.000 A 
ATOM     13  C   UNL     1       5.974   5.936  18.156  0.00  0.00    +0.000 A 
ATOM     14  C   UNL     1       6.939   4.980  17.819  0.00  0.00    +0.000 A 
ATOM     15  C   UNL     1       6.836   4.265  16.620  0.00  0.00    +0.000 A 
BRANCH  10  17
ATOM     16  C   UNL     1       6.591   4.161  13.529  0.00  0.00    +0.000 C 
ATOM     17  O   UNL     1       5.591   3.965  14.522  0.00  0.00    +0.000 OA
ENDBRANCH  10  17
BRANCH  14  18
ATOM     18  O   UNL     1       7.946   4.781  18.728  0.00  0.00    +0.000 OA
ATOM     19  C   UNL     1       7.913   5.682  19.834  0.00  0.00    +0.000 C 
ENDBRANCH  14  18
ENDBRANCH   8  12
ENDBRANCH   1   8
BRANCH   1  20
ATOM     20  C   UNL     1       2.022   8.492  18.211  0.00  0.00    +0.000 C 
ATOM     21  O   UNL     1       1.766   8.709  17.012  0.00  0.00    +0.000 OA
BRANCH  20  22
ATOM     22  C   UNL     1       1.355   9.366  19.206  0.00  0.00    +0.000 A 
ATOM     23  C   UNL     1       1.178  10.705  18.855  0.00  0.00    +0.000 A 
ATOM     24  N   UNL     1       1.156  11.401  20.017  0.00  0.00    +0.000 N 
ATOM     25  C   UNL     1       0.557  10.610  20.957  0.00  0.00    +0.000 A 
ATOM     26  C   UNL     1      -0.068  10.991  22.147  0.00  0.00    +0.000 A 
ATOM     27  C   UNL     1      -0.608   9.986  22.933  0.00  0.00    +0.000 A 
ATOM     28  C   UNL     1      -0.429   8.648  22.574  0.00  0.00    +0.000 A 
ATOM     29  C   UNL     1       0.260   8.283  21.396  0.00  0.00    +0.000 A 
ATOM     30  C   UNL     1       0.724   9.283  20.511  0.00  0.00    +0.000 A 
ATOM     31  H   UNL     1       1.404  12.374  20.130  0.00  0.00    +0.000 HD
ENDBRANCH  20  22
ENDBRANCH   1  20
TORSDOF 7
ENDMDL
