MODEL 1
REMARK VINA RESULT:      -7.8      0.000      0.000
REMARK  Name = 
REMARK  2 active torsions:
REMARK  status: ('A' for Active; 'I' for Inactive)
REMARK    1  A    between atoms: C_4  and  C_5
REMARK    2  A    between atoms: N_9  and  C_10
REMARK                            x       y       z     vdW  Elec       q    Type
REMARK                         _______ _______ _______ _____ _____    ______ ____
ROOT
ATOM      1  C   UNL     1       3.053   6.914  18.089  0.00  0.00    +0.000 A 
ATOM      2  C   UNL     1       3.903   7.232  17.034  0.00  0.00    +0.000 A 
ATOM      3  N   UNL     1       4.638   6.118  16.751  0.00  0.00    +0.000 N 
ATOM      4  C   UNL     1       4.229   5.124  17.517  0.00  0.00    +0.000 A 
ATOM      5  N   UNL     1       3.262   5.523  18.342  0.00  0.00    +0.000 N 
ATOM      6  S   UNL     1       4.969   3.588  17.148  0.00  0.00    +0.000 S 
ATOM      7  C   UNL     1       6.011   4.339  15.834  0.00  0.00    +0.000 C 
ATOM      8  C   UNL     1       5.683   5.843  15.777  0.00  0.00    +0.000 C 
ENDROOT
BRANCH   1  12
ATOM      9  C   UNL     1       0.506   9.745  20.087  0.00  0.00    +0.000 A 
ATOM     10  C   UNL     1       0.784   9.895  18.729  0.00  0.00    +0.000 A 
ATOM     11  C   UNL     1       1.625   8.986  18.081  0.00  0.00    +0.000 A 
ATOM     12  C   UNL     1       2.176   7.912  18.793  0.00  0.00    +0.000 A 
ATOM     13  C   UNL     1       1.918   7.785  20.161  0.00  0.00    +0.000 A 
ATOM     14  C   UNL     1       1.076   8.694  20.803  0.00  0.00    +0.000 A 
ENDBRANCH   1  12
BRANCH   5  15
ATOM     15  C   UNL     1       2.489   4.630  19.212  0.00  0.00    +0.000 A 
ATOM     16  C   UNL     1       1.442   3.877  18.683  0.00  0.00    +0.000 A 
ATOM     17  C   UNL     1       0.705   3.041  19.523  0.00  0.00    +0.000 A 
ATOM     18  C   UNL     1       1.040   2.933  20.873  0.00  0.00    +0.000 A 
ATOM     19  C   UNL     1       2.102   3.673  21.391  0.00  0.00    +0.000 A 
ATOM     20  C   UNL     1       2.817   4.543  20.564  0.00  0.00    +0.000 A 
ENDBRANCH   5  15
TORSDOF 2
ENDMDL
MODEL 2
REMARK VINA RESULT:      -7.8      0.038      1.083
REMARK  Name = 
REMARK  2 active torsions:
REMARK  status: ('A' for Active; 'I' for Inactive)
REMARK    1  A    between atoms: C_4  and  C_5
REMARK    2  A    between atoms: N_9  and  C_10
REMARK                            x       y       z     vdW  Elec       q    Type
REMARK                         _______ _______ _______ _____ _____    ______ ____
ROOT
ATOM      1  C   UNL     1       3.044   6.913  18.110  0.00  0.00    +0.000 A 
ATOM      2  C   UNL     1       3.881   7.240  17.046  0.00  0.00    +0.000 A 
ATOM      3  N   UNL     1       4.616   6.129  16.749  0.00  0.00    +0.000 N 
ATOM      4  C   UNL     1       4.219   5.130  17.514  0.00  0.00    +0.000 A 
ATOM      5  N   UNL     1       3.261   5.521  18.353  0.00  0.00    +0.000 N 
ATOM      6  S   UNL     1       4.959   3.598  17.129  0.00  0.00    +0.000 S 
ATOM      7  C   UNL     1       5.983   4.360  15.806  0.00  0.00    +0.000 C 
ATOM      8  C   UNL     1       5.650   5.863  15.761  0.00  0.00    +0.000 C 
ENDROOT
BRANCH   1  12
ATOM      9  C   UNL     1       0.512   9.726  20.152  0.00  0.00    +0.000 A 
ATOM     10  C   UNL     1       0.791   9.896  18.797  0.00  0.00    +0.000 A 
ATOM     11  C   UNL     1       1.628   8.993  18.135  0.00  0.00    +0.000 A 
ATOM     12  C   UNL     1       2.173   7.905  18.829  0.00  0.00    +0.000 A 
ATOM     13  C   UNL     1       1.914   7.757  20.195  0.00  0.00    +0.000 A 
ATOM     14  C   UNL     1       1.077   8.661  20.851  0.00  0.00    +0.000 A 
ENDBRANCH   1  12
BRANCH   5  15
ATOM     15  C   UNL     1       2.501   4.621  19.227  0.00  0.00    +0.000 A 
ATOM     16  C   UNL     1       2.836   4.515  20.576  0.00  0.00    +0.000 A 
ATOM     17  C   UNL     1       2.114   3.645  21.395  0.00  0.00    +0.000 A 
ATOM     18  C   UNL     1       1.043   2.920  20.874  0.00  0.00    +0.000 A 
ATOM     19  C   UNL     1       0.700   3.048  19.530  0.00  0.00    +0.000 A 
ATOM     20  C   UNL     1       1.444   3.884  18.695  0.00  0.00    +0.000 A 
ENDBRANCH   5  15
TORSDOF 2
ENDMDL
MODEL 3
REMARK VINA RESULT:      -7.7      0.035      1.530
REMARK  Name = 
REMARK  2 active torsions:
REMARK  status: ('A' for Active; 'I' for Inactive)
REMARK    1  A    between atoms: C_4  and  C_5
REMARK    2  A    between atoms: N_9  and  C_10
REMARK                            x       y       z     vdW  Elec       q    Type
REMARK                         _______ _______ _______ _____ _____    ______ ____
ROOT
ATOM      1  C   UNL     1       3.054   6.906  18.101  0.00  0.00    +0.000 A 
ATOM      2  C   UNL     1       3.896   7.227  17.040  0.00  0.00    +0.000 A 
ATOM      3  N   UNL     1       4.638   6.117  16.757  0.00  0.00    +0.000 N 
ATOM      4  C   UNL     1       4.240   5.123  17.528  0.00  0.00    +0.000 A 
ATOM      5  N   UNL     1       3.274   5.517  18.357  0.00  0.00    +0.000 N 
ATOM      6  S   UNL     1       4.989   3.591  17.160  0.00  0.00    +0.000 S 
ATOM      7  C   UNL     1       6.019   4.346  15.838  0.00  0.00    +0.000 C 
ATOM      8  C   UNL     1       5.679   5.847  15.779  0.00  0.00    +0.000 C 
ENDROOT
BRANCH   1  12
ATOM      9  C   UNL     1       0.578   9.774  20.134  0.00  0.00    +0.000 A 
ATOM     10  C   UNL     1       1.107   8.691  20.834  0.00  0.00    +0.000 A 
ATOM     11  C   UNL     1       1.898   7.748  20.172  0.00  0.00    +0.000 A 
ATOM     12  C   UNL     1       2.174   7.900  18.807  0.00  0.00    +0.000 A 
ATOM     13  C   UNL     1       1.615   8.972  18.104  0.00  0.00    +0.000 A 
ATOM     14  C   UNL     1       0.827   9.912  18.770  0.00  0.00    +0.000 A 
ENDBRANCH   1  12
BRANCH   5  15
ATOM     15  C   UNL     1       2.512   4.621  19.234  0.00  0.00    +0.000 A 
ATOM     16  C   UNL     1       2.848   4.516  20.582  0.00  0.00    +0.000 A 
ATOM     17  C   UNL     1       2.124   3.650  21.404  0.00  0.00    +0.000 A 
ATOM     18  C   UNL     1       1.050   2.927  20.885  0.00  0.00    +0.000 A 
ATOM     19  C   UNL     1       0.707   3.054  19.541  0.00  0.00    +0.000 A 
ATOM     20  C   UNL     1       1.453   3.886  18.704  0.00  0.00    +0.000 A 
ENDBRANCH   5  15
TORSDOF 2
ENDMDL
MODEL 4
REMARK VINA RESULT:      -7.7      0.038      1.082
REMARK  Name = 
REMARK  2 active torsions:
REMARK  status: ('A' for Active; 'I' for Inactive)
REMARK    1  A    between atoms: C_4  and  C_5
REMARK    2  A    between atoms: N_9  and  C_10
REMARK                            x       y       z     vdW  Elec       q    Type
REMARK                         _______ _______ _______ _____ _____    ______ ____
ROOT
ATOM      1  C   UNL     1       3.068   6.902  18.074  0.00  0.00    +0.000 A 
ATOM      2  C   UNL     1       3.927   7.216  17.024  0.00  0.00    +0.000 A 
ATOM      3  N   UNL     1       4.667   6.102  16.753  0.00  0.00    +0.000 N 
ATOM      4  C   UNL     1       4.253   5.112  17.521  0.00  0.00    +0.000 A 
ATOM      5  N   UNL     1       3.279   5.512  18.336  0.00  0.00    +0.000 N 
ATOM      6  S   UNL     1       5.000   3.575  17.167  0.00  0.00    +0.000 S 
ATOM      7  C   UNL     1       6.052   4.322  15.857  0.00  0.00    +0.000 C 
ATOM      8  C   UNL     1       5.720   5.825  15.790  0.00  0.00    +0.000 C 
ENDROOT
BRANCH   1  12
ATOM      9  C   UNL     1       0.578   9.787  20.065  0.00  0.00    +0.000 A 
ATOM     10  C   UNL     1       1.119   8.721  20.782  0.00  0.00    +0.000 A 
ATOM     11  C   UNL     1       1.915   7.772  20.134  0.00  0.00    +0.000 A 
ATOM     12  C   UNL     1       2.183   7.902  18.765  0.00  0.00    +0.000 A 
ATOM     13  C   UNL     1       1.612   8.955  18.044  0.00  0.00    +0.000 A 
ATOM     14  C   UNL     1       0.819   9.901  18.697  0.00  0.00    +0.000 A 
ENDBRANCH   1  12
BRANCH   5  15
ATOM     15  C   UNL     1       2.500   4.622  19.204  0.00  0.00    +0.000 A 
ATOM     16  C   UNL     1       1.450   3.876  18.673  0.00  0.00    +0.000 A 
ATOM     17  C   UNL     1       0.708   3.043  19.511  0.00  0.00    +0.000 A 
ATOM     18  C   UNL     1       1.042   2.931  20.861  0.00  0.00    +0.000 A 
ATOM     19  C   UNL     1       2.107   3.664  21.380  0.00  0.00    +0.000 A 
ATOM     20  C   UNL     1       2.827   4.531  20.556  0.00  0.00    +0.000 A 
ENDBRANCH   5  15
TORSDOF 2
ENDMDL
MODEL 5
REMARK VINA RESULT:      -7.5      2.221      5.044
REMARK  Name = 
REMARK  2 active torsions:
REMARK  status: ('A' for Active; 'I' for Inactive)
REMARK    1  A    between atoms: C_4  and  C_5
REMARK    2  A    between atoms: N_9  and  C_10
REMARK                            x       y       z     vdW  Elec       q    Type
REMARK                         _______ _______ _______ _____ _____    ______ ____
ROOT
ATOM      1  C   UNL     1       4.658   4.907  18.384  0.00  0.00    +0.000 A 
ATOM      2  C   UNL     1       4.683   3.531  18.169  0.00  0.00    +0.000 A 
ATOM      3  N   UNL     1       3.457   3.042  18.512  0.00  0.00    +0.000 N 
ATOM      4  C   UNL     1       2.668   4.046  18.845  0.00  0.00    +0.000 A 
ATOM      5  N   UNL     1       3.317   5.207  18.779  0.00  0.00    +0.000 N 
ATOM      6  S   UNL     1       1.014   3.584  19.150  0.00  0.00    +0.000 S 
ATOM      7  C   UNL     1       1.394   1.810  18.853  0.00  0.00    +0.000 C 
ATOM      8  C   UNL     1       2.893   1.701  18.517  0.00  0.00    +0.000 C 
ENDROOT
BRANCH   1  12
ATOM      9  C   UNL     1       8.078   7.493  18.058  0.00  0.00    +0.000 A 
ATOM     10  C   UNL     1       6.997   7.656  17.194  0.00  0.00    +0.000 A 
ATOM     11  C   UNL     1       5.891   6.806  17.286  0.00  0.00    +0.000 A 
ATOM     12  C   UNL     1       5.862   5.799  18.260  0.00  0.00    +0.000 A 
ATOM     13  C   UNL     1       6.963   5.621  19.104  0.00  0.00    +0.000 A 
ATOM     14  C   UNL     1       8.064   6.474  19.008  0.00  0.00    +0.000 A 
ENDBRANCH   1  12
BRANCH   5  15
ATOM     15  C   UNL     1       2.689   6.523  18.937  0.00  0.00    +0.000 A 
ATOM     16  C   UNL     1       2.231   6.929  20.190  0.00  0.00    +0.000 A 
ATOM     17  C   UNL     1       1.623   8.178  20.326  0.00  0.00    +0.000 A 
ATOM     18  C   UNL     1       1.511   9.026  19.224  0.00  0.00    +0.000 A 
ATOM     19  C   UNL     1       1.990   8.622  17.980  0.00  0.00    +0.000 A 
ATOM     20  C   UNL     1       2.562   7.357  17.827  0.00  0.00    +0.000 A 
ENDBRANCH   5  15
TORSDOF 2
ENDMDL
MODEL 6
REMARK VINA RESULT:      -7.5      2.245      4.976
REMARK  Name = 
REMARK  2 active torsions:
REMARK  status: ('A' for Active; 'I' for Inactive)
REMARK    1  A    between atoms: C_4  and  C_5
REMARK    2  A    between atoms: N_9  and  C_10
REMARK                            x       y       z     vdW  Elec       q    Type
REMARK                         _______ _______ _______ _____ _____    ______ ____
ROOT
ATOM      1  C   UNL     1       4.711   4.944  18.434  0.00  0.00    +0.000 A 
ATOM      2  C   UNL     1       4.748   3.565  18.242  0.00  0.00    +0.000 A 
ATOM      3  N   UNL     1       3.523   3.071  18.586  0.00  0.00    +0.000 N 
ATOM      4  C   UNL     1       2.725   4.074  18.898  0.00  0.00    +0.000 A 
ATOM      5  N   UNL     1       3.365   5.239  18.816  0.00  0.00    +0.000 N 
ATOM      6  S   UNL     1       1.072   3.603  19.200  0.00  0.00    +0.000 S 
ATOM      7  C   UNL     1       1.469   1.828  18.934  0.00  0.00    +0.000 C 
ATOM      8  C   UNL     1       2.971   1.726  18.609  0.00  0.00    +0.000 C 
ENDROOT
BRANCH   1  12
ATOM      9  C   UNL     1       8.111   7.552  18.086  0.00  0.00    +0.000 A 
ATOM     10  C   UNL     1       7.025   7.706  17.228  0.00  0.00    +0.000 A 
ATOM     11  C   UNL     1       5.925   6.849  17.327  0.00  0.00    +0.000 A 
ATOM     12  C   UNL     1       5.907   5.844  18.303  0.00  0.00    +0.000 A 
ATOM     13  C   UNL     1       7.014   5.674  19.141  0.00  0.00    +0.000 A 
ATOM     14  C   UNL     1       8.108   6.534  19.038  0.00  0.00    +0.000 A 
ENDBRANCH   1  12
BRANCH   5  15
ATOM     15  C   UNL     1       2.725   6.553  18.950  0.00  0.00    +0.000 A 
ATOM     16  C   UNL     1       2.595   7.380  17.836  0.00  0.00    +0.000 A 
ATOM     17  C   UNL     1       1.996   8.633  17.978  0.00  0.00    +0.000 A 
ATOM     18  C   UNL     1       1.500   9.035  19.218  0.00  0.00    +0.000 A 
ATOM     19  C   UNL     1       1.615   8.193  20.323  0.00  0.00    +0.000 A 
ATOM     20  C   UNL     1       2.249   6.956  20.197  0.00  0.00    +0.000 A 
ENDBRANCH   5  15
TORSDOF 2
ENDMDL
MODEL 7
REMARK VINA RESULT:      -7.5      2.229      5.066
REMARK  Name = 
REMARK  2 active torsions:
REMARK  status: ('A' for Active; 'I' for Inactive)
REMARK    1  A    between atoms: C_4  and  C_5
REMARK    2  A    between atoms: N_9  and  C_10
REMARK                            x       y       z     vdW  Elec       q    Type
REMARK                         _______ _______ _______ _____ _____    ______ ____
ROOT
ATOM      1  C   UNL     1       4.662   4.931  18.382  0.00  0.00    +0.000 A 
ATOM      2  C   UNL     1       4.697   3.558  18.151  0.00  0.00    +0.000 A 
ATOM      3  N   UNL     1       3.471   3.057  18.480  0.00  0.00    +0.000 N 
ATOM      4  C   UNL     1       2.674   4.052  18.819  0.00  0.00    +0.000 A 
ATOM      5  N   UNL     1       3.317   5.218  18.770  0.00  0.00    +0.000 N 
ATOM      6  S   UNL     1       1.021   3.576  19.106  0.00  0.00    +0.000 S 
ATOM      7  C   UNL     1       1.414   1.808  18.791  0.00  0.00    +0.000 C 
ATOM      8  C   UNL     1       2.917   1.713  18.465  0.00  0.00    +0.000 C 
ENDROOT
BRANCH   1  12
ATOM      9  C   UNL     1       8.113   7.474  18.054  0.00  0.00    +0.000 A 
ATOM     10  C   UNL     1       8.075   6.475  19.024  0.00  0.00    +0.000 A 
ATOM     11  C   UNL     1       6.947   5.657  19.145  0.00  0.00    +0.000 A 
ATOM     12  C   UNL     1       5.861   5.832  18.277  0.00  0.00    +0.000 A 
ATOM     13  C   UNL     1       5.893   6.857  17.327  0.00  0.00    +0.000 A 
ATOM     14  C   UNL     1       7.022   7.669  17.210  0.00  0.00    +0.000 A 
ENDBRANCH   1  12
BRANCH   5  15
ATOM     15  C   UNL     1       2.679   6.528  18.940  0.00  0.00    +0.000 A 
ATOM     16  C   UNL     1       2.519   7.371  17.842  0.00  0.00    +0.000 A 
ATOM     17  C   UNL     1       1.922   8.621  18.018  0.00  0.00    +0.000 A 
ATOM     18  C   UNL     1       1.458   9.004  19.276  0.00  0.00    +0.000 A 
ATOM     19  C   UNL     1       1.603   8.147  20.365  0.00  0.00    +0.000 A 
ATOM     20  C   UNL     1       2.235   6.913  20.204  0.00  0.00    +0.000 A 
ENDBRANCH   5  15
TORSDOF 2
ENDMDL
MODEL 8
REMARK VINA RESULT:      -7.5      2.227      5.158
REMARK  Name = 
REMARK  2 active torsions:
REMARK  status: ('A' for Active; 'I' for Inactive)
REMARK    1  A    between atoms: C_4  and  C_5
REMARK    2  A    between atoms: N_9  and  C_10
REMARK                            x       y       z     vdW  Elec       q    Type
REMARK                         _______ _______ _______ _____ _____    ______ ____
ROOT
ATOM      1  C   UNL     1       4.629   4.923  18.442  0.00  0.00    +0.000 A 
ATOM      2  C   UNL     1       4.658   3.546  18.239  0.00  0.00    +0.000 A 
ATOM      3  N   UNL     1       3.431   3.057  18.583  0.00  0.00    +0.000 N 
ATOM      4  C   UNL     1       2.640   4.062  18.906  0.00  0.00    +0.000 A 
ATOM      5  N   UNL     1       3.287   5.224  18.831  0.00  0.00    +0.000 N 
ATOM      6  S   UNL     1       0.986   3.599  19.210  0.00  0.00    +0.000 S 
ATOM      7  C   UNL     1       1.370   1.823  18.929  0.00  0.00    +0.000 C 
ATOM      8  C   UNL     1       2.871   1.715  18.598  0.00  0.00    +0.000 C 
ENDROOT
BRANCH   1  12
ATOM      9  C   UNL     1       8.089   7.445  18.046  0.00  0.00    +0.000 A 
ATOM     10  C   UNL     1       8.058   6.455  19.026  0.00  0.00    +0.000 A 
ATOM     11  C   UNL     1       6.928   5.645  19.168  0.00  0.00    +0.000 A 
ATOM     12  C   UNL     1       5.831   5.817  18.313  0.00  0.00    +0.000 A 
ATOM     13  C   UNL     1       5.856   6.833  17.353  0.00  0.00    +0.000 A 
ATOM     14  C   UNL     1       6.988   7.637  17.214  0.00  0.00    +0.000 A 
ENDBRANCH   1  12
BRANCH   5  15
ATOM     15  C   UNL     1       2.656   6.540  18.978  0.00  0.00    +0.000 A 
ATOM     16  C   UNL     1       2.206   6.960  20.228  0.00  0.00    +0.000 A 
ATOM     17  C   UNL     1       1.595   8.209  20.353  0.00  0.00    +0.000 A 
ATOM     18  C   UNL     1       1.471   9.043  19.241  0.00  0.00    +0.000 A 
ATOM     19  C   UNL     1       1.943   8.624  17.998  0.00  0.00    +0.000 A 
ATOM     20  C   UNL     1       2.517   7.359  17.858  0.00  0.00    +0.000 A 
ENDBRANCH   5  15
TORSDOF 2
ENDMDL
MODEL 9
REMARK VINA RESULT:      -7.0      1.529      4.218
REMARK  Name = 
REMARK  2 active torsions:
REMARK  status: ('A' for Active; 'I' for Inactive)
REMARK    1  A    between atoms: C_4  and  C_5
REMARK    2  A    between atoms: N_9  and  C_10
REMARK                            x       y       z     vdW  Elec       q    Type
REMARK                         _______ _______ _______ _____ _____    ______ ____
ROOT
ATOM      1  C   UNL     1       2.480   6.165  19.781  0.00  0.00    +0.000 A 
ATOM      2  C   UNL     1       1.820   5.484  20.801  0.00  0.00    +0.000 A 
ATOM      3  N   UNL     1       2.320   4.215  20.836  0.00  0.00    +0.000 N 
ATOM      4  C   UNL     1       3.296   4.111  19.954  0.00  0.00    +0.000 A 
ATOM      5  N   UNL     1       3.463   5.252  19.287  0.00  0.00    +0.000 N 
ATOM      6  S   UNL     1       4.143   2.587  20.003  0.00  0.00    +0.000 S 
ATOM      7  C   UNL     1       3.043   1.952  21.333  0.00  0.00    +0.000 C 
ATOM      8  C   UNL     1       2.020   3.056  21.662  0.00  0.00    +0.000 C 
ENDROOT
BRANCH   1  12
ATOM      9  C   UNL     1       1.407  10.112  18.455  0.00  0.00    +0.000 A 
ATOM     10  C   UNL     1       2.085   9.249  17.597  0.00  0.00    +0.000 A 
ATOM     11  C   UNL     1       2.450   7.972  18.030  0.00  0.00    +0.000 A 
ATOM     12  C   UNL     1       2.119   7.551  19.325  0.00  0.00    +0.000 A 
ATOM     13  C   UNL     1       1.466   8.432  20.193  0.00  0.00    +0.000 A 
ATOM     14  C   UNL     1       1.102   9.706  19.753  0.00  0.00    +0.000 A 
ENDBRANCH   1  12
BRANCH   5  15
ATOM     15  C   UNL     1       4.560   5.517  18.349  0.00  0.00    +0.000 A 
ATOM     16  C   UNL     1       4.344   5.404  16.977  0.00  0.00    +0.000 A 
ATOM     17  C   UNL     1       5.399   5.646  16.095  0.00  0.00    +0.000 A 
ATOM     18  C   UNL     1       6.646   6.033  16.584  0.00  0.00    +0.000 A 
ATOM     19  C   UNL     1       6.849   6.163  17.957  0.00  0.00    +0.000 A 
ATOM     20  C   UNL     1       5.810   5.883  18.847  0.00  0.00    +0.000 A 
ENDBRANCH   5  15
TORSDOF 2
ENDMDL
