MODEL 1
REMARK VINA RESULT:      -8.3      0.000      0.000
REMARK  Name = 
REMARK  11 active torsions:
REMARK  status: ('A' for Active; 'I' for Inactive)
REMARK    1  A    between atoms: C_1  and  O_2
REMARK    2  A    between atoms: O_2  and  C_3
REMARK    3  A    between atoms: C_6  and  C_7
REMARK    4  A    between atoms: C_8  and  C_9
REMARK    5  A    between atoms: C_9  and  C_11
REMARK    6  A    between atoms: C_11  and  C_12
REMARK    7  A    between atoms: C_12  and  C_14
REMARK    8  A    between atoms: C_15  and  C_16
REMARK    9  A    between atoms: C_18  and  O_19
REMARK   10  A    between atoms: C_22  and  N_23
REMARK   11  A    between atoms: C_27  and  O_28
REMARK                            x       y       z     vdW  Elec       q    Type
REMARK                         _______ _______ _______ _____ _____    ______ ____
ROOT
ATOM      1  C   UNL     1       2.005   2.012  19.486  0.00  0.00    +0.000 C 
ENDROOT
BRANCH   1   2
ATOM      2  C   UNL     1       1.496   2.967  20.531  0.00  0.00    +0.000 C 
ATOM      3  O   UNL     1       1.250   2.584  21.673  0.00  0.00    +0.000 OA
BRANCH   2   5
ATOM      4  C   UNL     1       1.947   5.384  20.641  0.00  0.00    +0.000 C 
ATOM      5  C   UNL     1       1.238   4.375  20.113  0.00  0.00    +0.000 C 
BRANCH   4   9
ATOM      6  C   UNL     1       1.322   9.485  19.499  0.00  0.00    +0.000 A 
ATOM      7  C   UNL     1       1.912   8.566  18.622  0.00  0.00    +0.000 A 
ATOM      8  C   UNL     1       2.121   7.234  19.002  0.00  0.00    +0.000 A 
ATOM      9  C   UNL     1       1.750   6.795  20.276  0.00  0.00    +0.000 A 
ATOM     10  C   UNL     1       1.146   7.711  21.149  0.00  0.00    +0.000 A 
ATOM     11  C   UNL     1       0.942   9.045  20.770  0.00  0.00    +0.000 A 
BRANCH   6  13
ATOM     12  C   UNL     1      -0.094  11.136  18.510  0.00  0.00    +0.000 C 
ATOM     13  O   UNL     1       1.193  10.736  18.958  0.00  0.00    +0.000 OA
ENDBRANCH   6  13
BRANCH  11  14
ATOM     14  O   UNL     1       0.361   9.887  21.680  0.00  0.00    +0.000 OA
ATOM     15  H   UNL     1       0.035  10.678  21.221  0.00  0.00    +0.000 HD
ENDBRANCH  11  14
ENDBRANCH   4   9
ENDBRANCH   2   5
ENDBRANCH   1   2
BRANCH   1  16
ATOM     16  C   UNL     1       2.707   2.685  18.340  0.00  0.00    +0.000 C 
ATOM     17  O   UNL     1       2.222   2.681  17.209  0.00  0.00    +0.000 OA
BRANCH  16  18
ATOM     18  C   UNL     1       4.001   3.375  18.620  0.00  0.00    +0.000 C 
ATOM     19  C   UNL     1       4.278   4.514  17.969  0.00  0.00    +0.000 C 
BRANCH  19  20
ATOM     20  C   UNL     1       5.514   5.279  18.164  0.00  0.00    +0.000 A 
ATOM     21  C   UNL     1       6.255   5.045  19.332  0.00  0.00    +0.000 A 
ATOM     22  C   UNL     1       7.480   5.687  19.521  0.00  0.00    +0.000 A 
ATOM     23  C   UNL     1       7.993   6.562  18.568  0.00  0.00    +0.000 A 
ATOM     24  C   UNL     1       7.271   6.814  17.405  0.00  0.00    +0.000 A 
ATOM     25  C   UNL     1       6.036   6.177  17.218  0.00  0.00    +0.000 A 
BRANCH  25  26
ATOM     26  N   UNL     1       5.312   6.464  15.993  0.00  0.00    +0.000 N 
ATOM     27  O   UNL     1       5.674   5.874  14.966  0.00  0.00    +0.000 OA
ATOM     28  O   UNL     1       4.365   7.258  16.074  0.00  0.00    +0.000 OA
ENDBRANCH  25  26
BRANCH  22  29
ATOM     29  O   UNL     1       8.229   5.469  20.640  0.00  0.00    +0.000 OA
ATOM     30  H   UNL     1       8.851   6.205  20.760  0.00  0.00    +0.000 HD
ENDBRANCH  22  29
ENDBRANCH  19  20
ENDBRANCH  16  18
ENDBRANCH   1  16
TORSDOF 10
ENDMDL
MODEL 2
REMARK VINA RESULT:      -7.7      1.849      3.075
REMARK  Name = 
REMARK  11 active torsions:
REMARK  status: ('A' for Active; 'I' for Inactive)
REMARK    1  A    between atoms: C_1  and  O_2
REMARK    2  A    between atoms: O_2  and  C_3
REMARK    3  A    between atoms: C_6  and  C_7
REMARK    4  A    between atoms: C_8  and  C_9
REMARK    5  A    between atoms: C_9  and  C_11
REMARK    6  A    between atoms: C_11  and  C_12
REMARK    7  A    between atoms: C_12  and  C_14
REMARK    8  A    between atoms: C_15  and  C_16
REMARK    9  A    between atoms: C_18  and  O_19
REMARK   10  A    between atoms: C_22  and  N_23
REMARK   11  A    between atoms: C_27  and  O_28
REMARK                            x       y       z     vdW  Elec       q    Type
REMARK                         _______ _______ _______ _____ _____    ______ ____
ROOT
ATOM      1  C   UNL     1       2.769   2.736  19.718  0.00  0.00    +0.000 C 
ENDROOT
BRANCH   1   2
ATOM      2  C   UNL     1       2.207   3.586  20.825  0.00  0.00    +0.000 C 
ATOM      3  O   UNL     1       2.178   3.177  21.985  0.00  0.00    +0.000 OA
BRANCH   2   5
ATOM      4  C   UNL     1       2.392   6.012  20.452  0.00  0.00    +0.000 C 
ATOM      5  C   UNL     1       1.628   4.908  20.455  0.00  0.00    +0.000 C 
BRANCH   4   9
ATOM      6  C   UNL     1       0.974   9.957  19.482  0.00  0.00    +0.000 A 
ATOM      7  C   UNL     1       0.757   9.394  20.747  0.00  0.00    +0.000 A 
ATOM      8  C   UNL     1       1.213   8.106  21.054  0.00  0.00    +0.000 A 
ATOM      9  C   UNL     1       1.891   7.348  20.096  0.00  0.00    +0.000 A 
ATOM     10  C   UNL     1       2.122   7.915  18.835  0.00  0.00    +0.000 A 
ATOM     11  C   UNL     1       1.660   9.202  18.525  0.00  0.00    +0.000 A 
BRANCH   6  13
ATOM     12  C   UNL     1      -0.923  11.404  19.604  0.00  0.00    +0.000 C 
ATOM     13  O   UNL     1       0.465  11.221  19.362  0.00  0.00    +0.000 OA
ENDBRANCH   6  13
BRANCH  11  14
ATOM     14  O   UNL     1       1.908   9.687  17.270  0.00  0.00    +0.000 OA
ATOM     15  H   UNL     1       1.080  10.016  16.884  0.00  0.00    +0.000 HD
ENDBRANCH  11  14
ENDBRANCH   4   9
ENDBRANCH   2   5
ENDBRANCH   1   2
BRANCH   1  16
ATOM     16  C   UNL     1       2.165   3.018  18.372  0.00  0.00    +0.000 C 
ATOM     17  O   UNL     1       0.963   2.848  18.168  0.00  0.00    +0.000 OA
BRANCH  16  18
ATOM     18  C   UNL     1       3.063   3.528  17.294  0.00  0.00    +0.000 C 
ATOM     19  C   UNL     1       4.390   3.459  17.475  0.00  0.00    +0.000 C 
BRANCH  19  20
ATOM     20  C   UNL     1       5.367   3.926  16.487  0.00  0.00    +0.000 A 
ATOM     21  C   UNL     1       5.164   3.573  15.144  0.00  0.00    +0.000 A 
ATOM     22  C   UNL     1       6.020   4.065  14.157  0.00  0.00    +0.000 A 
ATOM     23  C   UNL     1       7.082   4.907  14.474  0.00  0.00    +0.000 A 
ATOM     24  C   UNL     1       7.306   5.264  15.801  0.00  0.00    +0.000 A 
ATOM     25  C   UNL     1       6.452   4.764  16.794  0.00  0.00    +0.000 A 
BRANCH  25  26
ATOM     26  N   UNL     1       6.717   5.158  18.166  0.00  0.00    +0.000 N 
ATOM     27  O   UNL     1       5.987   6.029  18.658  0.00  0.00    +0.000 OA
ATOM     28  O   UNL     1       7.636   4.570  18.751  0.00  0.00    +0.000 OA
ENDBRANCH  25  26
BRANCH  22  29
ATOM     29  O   UNL     1       5.841   3.751  12.842  0.00  0.00    +0.000 OA
ATOM     30  H   UNL     1       6.283   2.909  12.647  0.00  0.00    +0.000 HD
ENDBRANCH  22  29
ENDBRANCH  19  20
ENDBRANCH  16  18
ENDBRANCH   1  16
TORSDOF 10
ENDMDL
MODEL 3
REMARK VINA RESULT:      -7.7      4.429      7.809
REMARK  Name = 
REMARK  11 active torsions:
REMARK  status: ('A' for Active; 'I' for Inactive)
REMARK    1  A    between atoms: C_1  and  O_2
REMARK    2  A    between atoms: O_2  and  C_3
REMARK    3  A    between atoms: C_6  and  C_7
REMARK    4  A    between atoms: C_8  and  C_9
REMARK    5  A    between atoms: C_9  and  C_11
REMARK    6  A    between atoms: C_11  and  C_12
REMARK    7  A    between atoms: C_12  and  C_14
REMARK    8  A    between atoms: C_15  and  C_16
REMARK    9  A    between atoms: C_18  and  O_19
REMARK   10  A    between atoms: C_22  and  N_23
REMARK   11  A    between atoms: C_27  and  O_28
REMARK                            x       y       z     vdW  Elec       q    Type
REMARK                         _______ _______ _______ _____ _____    ______ ____
ROOT
ATOM      1  C   UNL     1       7.633   6.037  18.587  0.00  0.00    +0.000 C 
ENDROOT
BRANCH   1   2
ATOM      2  C   UNL     1       7.529   7.306  17.785  0.00  0.00    +0.000 C 
ATOM      3  O   UNL     1       6.727   7.405  16.857  0.00  0.00    +0.000 OA
BRANCH   2   5
ATOM      4  C   UNL     1       8.067   9.688  18.092  0.00  0.00    +0.000 C 
ATOM      5  C   UNL     1       8.475   8.410  18.113  0.00  0.00    +0.000 C 
BRANCH   4   9
ATOM      6  C   UNL     1      10.552  13.077  19.014  0.00  0.00    +0.000 A 
ATOM      7  C   UNL     1       9.688  13.085  17.912  0.00  0.00    +0.000 A 
ATOM      8  C   UNL     1       8.888  11.976  17.611  0.00  0.00    +0.000 A 
ATOM      9  C   UNL     1       8.942  10.827  18.406  0.00  0.00    +0.000 A 
ATOM     10  C   UNL     1       9.795  10.824  19.518  0.00  0.00    +0.000 A 
ATOM     11  C   UNL     1      10.601  11.932  19.815  0.00  0.00    +0.000 A 
BRANCH   6  13
ATOM     12  C   UNL     1      10.672  15.434  18.639  0.00  0.00    +0.000 C 
ATOM     13  O   UNL     1      11.251  14.245  19.157  0.00  0.00    +0.000 OA
ENDBRANCH   6  13
BRANCH  11  14
ATOM     14  O   UNL     1      11.421  11.853  20.908  0.00  0.00    +0.000 OA
ATOM     15  H   UNL     1      10.935  11.450  21.646  0.00  0.00    +0.000 HD
ENDBRANCH  11  14
ENDBRANCH   4   9
ENDBRANCH   2   5
ENDBRANCH   1   2
BRANCH   1  16
ATOM     16  C   UNL     1       7.309   4.797  17.803  0.00  0.00    +0.000 C 
ATOM     17  O   UNL     1       8.199   4.123  17.285  0.00  0.00    +0.000 OA
BRANCH  16  18
ATOM     18  C   UNL     1       5.876   4.396  17.687  0.00  0.00    +0.000 C 
ATOM     19  C   UNL     1       5.177   4.172  18.810  0.00  0.00    +0.000 C 
BRANCH  19  20
ATOM     20  C   UNL     1       3.765   3.777  18.819  0.00  0.00    +0.000 A 
ATOM     21  C   UNL     1       2.909   4.370  17.878  0.00  0.00    +0.000 A 
ATOM     22  C   UNL     1       1.576   3.964  17.794  0.00  0.00    +0.000 A 
ATOM     23  C   UNL     1       1.068   2.972  18.628  0.00  0.00    +0.000 A 
ATOM     24  C   UNL     1       1.898   2.375  19.573  0.00  0.00    +0.000 A 
ATOM     25  C   UNL     1       3.234   2.788  19.665  0.00  0.00    +0.000 A 
BRANCH  25  26
ATOM     26  N   UNL     1       4.068   2.144  20.662  0.00  0.00    +0.000 N 
ATOM     27  O   UNL     1       3.616   2.056  21.812  0.00  0.00    +0.000 OA
ATOM     28  O   UNL     1       5.160   1.702  20.281  0.00  0.00    +0.000 OA
ENDBRANCH  25  26
BRANCH  22  29
ATOM     29  O   UNL     1       0.724   4.512  16.881  0.00  0.00    +0.000 OA
ATOM     30  H   UNL     1       0.357   5.338  17.236  0.00  0.00    +0.000 HD
ENDBRANCH  22  29
ENDBRANCH  19  20
ENDBRANCH  16  18
ENDBRANCH   1  16
TORSDOF 10
ENDMDL
MODEL 4
REMARK VINA RESULT:      -7.7      3.571      6.853
REMARK  Name = 
REMARK  11 active torsions:
REMARK  status: ('A' for Active; 'I' for Inactive)
REMARK    1  A    between atoms: C_1  and  O_2
REMARK    2  A    between atoms: O_2  and  C_3
REMARK    3  A    between atoms: C_6  and  C_7
REMARK    4  A    between atoms: C_8  and  C_9
REMARK    5  A    between atoms: C_9  and  C_11
REMARK    6  A    between atoms: C_11  and  C_12
REMARK    7  A    between atoms: C_12  and  C_14
REMARK    8  A    between atoms: C_15  and  C_16
REMARK    9  A    between atoms: C_18  and  O_19
REMARK   10  A    between atoms: C_22  and  N_23
REMARK   11  A    between atoms: C_27  and  O_28
REMARK                            x       y       z     vdW  Elec       q    Type
REMARK                         _______ _______ _______ _____ _____    ______ ____
ROOT
ATOM      1  C   UNL     1       7.080   5.746  16.482  0.00  0.00    +0.000 C 
ENDROOT
BRANCH   1   2
ATOM      2  C   UNL     1       7.543   5.789  17.913  0.00  0.00    +0.000 C 
ATOM      3  O   UNL     1       7.504   4.785  18.622  0.00  0.00    +0.000 OA
BRANCH   2   5
ATOM      4  C   UNL     1       8.015   8.193  17.671  0.00  0.00    +0.000 C 
ATOM      5  C   UNL     1       7.988   7.105  18.455  0.00  0.00    +0.000 C 
BRANCH   4   9
ATOM      6  C   UNL     1       9.344  12.051  19.034  0.00  0.00    +0.000 A 
ATOM      7  C   UNL     1       9.641  10.884  19.749  0.00  0.00    +0.000 A 
ATOM      8  C   UNL     1       9.198   9.631  19.305  0.00  0.00    +0.000 A 
ATOM      9  C   UNL     1       8.439   9.522  18.137  0.00  0.00    +0.000 A 
ATOM     10  C   UNL     1       8.154  10.688  17.413  0.00  0.00    +0.000 A 
ATOM     11  C   UNL     1       8.592  11.942  17.861  0.00  0.00    +0.000 A 
BRANCH   6  13
ATOM     12  C   UNL     1       8.960  14.061  20.269  0.00  0.00    +0.000 C 
ATOM     13  O   UNL     1       9.859  13.180  19.612  0.00  0.00    +0.000 OA
ENDBRANCH   6  13
BRANCH  11  14
ATOM     14  O   UNL     1       8.263  13.040  17.112  0.00  0.00    +0.000 OA
ATOM     15  H   UNL     1       7.323  12.994  16.872  0.00  0.00    +0.000 HD
ENDBRANCH  11  14
ENDBRANCH   4   9
ENDBRANCH   2   5
ENDBRANCH   1   2
BRANCH   1  16
ATOM     16  C   UNL     1       5.714   6.336  16.269  0.00  0.00    +0.000 C 
ATOM     17  O   UNL     1       5.415   6.872  15.203  0.00  0.00    +0.000 OA
BRANCH  16  18
ATOM     18  C   UNL     1       4.727   6.235  17.384  0.00  0.00    +0.000 C 
ATOM     19  C   UNL     1       4.159   5.047  17.636  0.00  0.00    +0.000 C 
BRANCH  19  20
ATOM     20  C   UNL     1       3.179   4.829  18.705  0.00  0.00    +0.000 A 
ATOM     21  C   UNL     1       2.843   5.918  19.523  0.00  0.00    +0.000 A 
ATOM     22  C   UNL     1       1.854   5.780  20.498  0.00  0.00    +0.000 A 
ATOM     23  C   UNL     1       1.183   4.574  20.682  0.00  0.00    +0.000 A 
ATOM     24  C   UNL     1       1.505   3.478  19.886  0.00  0.00    +0.000 A 
ATOM     25  C   UNL     1       2.505   3.613  18.912  0.00  0.00    +0.000 A 
BRANCH  25  26
ATOM     26  N   UNL     1       2.813   2.449  18.102  0.00  0.00    +0.000 N 
ATOM     27  O   UNL     1       3.670   1.666  18.535  0.00  0.00    +0.000 OA
ATOM     28  O   UNL     1       2.174   2.310  17.051  0.00  0.00    +0.000 OA
ENDBRANCH  25  26
BRANCH  22  29
ATOM     29  O   UNL     1       1.496   6.824  21.298  0.00  0.00    +0.000 OA
ATOM     30  H   UNL     1       1.931   7.635  20.986  0.00  0.00    +0.000 HD
ENDBRANCH  22  29
ENDBRANCH  19  20
ENDBRANCH  16  18
ENDBRANCH   1  16
TORSDOF 10
ENDMDL
MODEL 5
REMARK VINA RESULT:      -7.7      4.299      7.507
REMARK  Name = 
REMARK  11 active torsions:
REMARK  status: ('A' for Active; 'I' for Inactive)
REMARK    1  A    between atoms: C_1  and  O_2
REMARK    2  A    between atoms: O_2  and  C_3
REMARK    3  A    between atoms: C_6  and  C_7
REMARK    4  A    between atoms: C_8  and  C_9
REMARK    5  A    between atoms: C_9  and  C_11
REMARK    6  A    between atoms: C_11  and  C_12
REMARK    7  A    between atoms: C_12  and  C_14
REMARK    8  A    between atoms: C_15  and  C_16
REMARK    9  A    between atoms: C_18  and  O_19
REMARK   10  A    between atoms: C_22  and  N_23
REMARK   11  A    between atoms: C_27  and  O_28
REMARK                            x       y       z     vdW  Elec       q    Type
REMARK                         _______ _______ _______ _____ _____    ______ ____
ROOT
ATOM      1  C   UNL     1       8.294   6.476  18.340  0.00  0.00    +0.000 C 
ENDROOT
BRANCH   1   2
ATOM      2  C   UNL     1       7.533   7.555  17.619  0.00  0.00    +0.000 C 
ATOM      3  O   UNL     1       6.616   7.277  16.848  0.00  0.00    +0.000 OA
BRANCH   2   5
ATOM      4  C   UNL     1       8.829   9.277  18.809  0.00  0.00    +0.000 C 
ATOM      5  C   UNL     1       7.975   8.964  17.823  0.00  0.00    +0.000 C 
BRANCH   4   9
ATOM      6  C   UNL     1      10.318  13.237  19.593  0.00  0.00    +0.000 A 
ATOM      7  C   UNL     1      10.320  12.248  20.585  0.00  0.00    +0.000 A 
ATOM      8  C   UNL     1       9.826  10.963  20.326  0.00  0.00    +0.000 A 
ATOM      9  C   UNL     1       9.310  10.642  19.068  0.00  0.00    +0.000 A 
ATOM     10  C   UNL     1       9.321  11.627  18.070  0.00  0.00    +0.000 A 
ATOM     11  C   UNL     1       9.810  12.915  18.330  0.00  0.00    +0.000 A 
BRANCH   6  13
ATOM     12  C   UNL     1      10.450  14.904  21.300  0.00  0.00    +0.000 C 
ATOM     13  O   UNL     1      10.841  14.427  20.021  0.00  0.00    +0.000 OA
ENDBRANCH   6  13
BRANCH  11  14
ATOM     14  O   UNL     1       9.776  13.831  17.314  0.00  0.00    +0.000 OA
ATOM     15  H   UNL     1       9.100  14.500  17.508  0.00  0.00    +0.000 HD
ENDBRANCH  11  14
ENDBRANCH   4   9
ENDBRANCH   2   5
ENDBRANCH   1   2
BRANCH   1  16
ATOM     16  C   UNL     1       7.448   5.659  19.275  0.00  0.00    +0.000 C 
ATOM     17  O   UNL     1       7.740   5.554  20.466  0.00  0.00    +0.000 OA
BRANCH  16  18
ATOM     18  C   UNL     1       6.232   4.995  18.720  0.00  0.00    +0.000 C 
ATOM     19  C   UNL     1       5.041   5.259  19.278  0.00  0.00    +0.000 C 
BRANCH  19  20
ATOM     20  C   UNL     1       3.781   4.669  18.817  0.00  0.00    +0.000 A 
ATOM     21  C   UNL     1       3.657   3.271  18.853  0.00  0.00    +0.000 A 
ATOM     22  C   UNL     1       2.447   2.669  18.504  0.00  0.00    +0.000 A 
ATOM     23  C   UNL     1       1.347   3.428  18.116  0.00  0.00    +0.000 A 
ATOM     24  C   UNL     1       1.450   4.816  18.066  0.00  0.00    +0.000 A 
ATOM     25  C   UNL     1       2.667   5.422  18.409  0.00  0.00    +0.000 A 
BRANCH  25  26
ATOM     26  N   UNL     1       2.737   6.870  18.344  0.00  0.00    +0.000 N 
ATOM     27  O   UNL     1       2.237   7.505  19.282  0.00  0.00    +0.000 OA
ATOM     28  O   UNL     1       3.319   7.361  17.368  0.00  0.00    +0.000 OA
ENDBRANCH  25  26
BRANCH  22  29
ATOM     29  O   UNL     1       2.292   1.315  18.543  0.00  0.00    +0.000 OA
ATOM     30  H   UNL     1       1.379   1.087  18.301  0.00  0.00    +0.000 HD
ENDBRANCH  22  29
ENDBRANCH  19  20
ENDBRANCH  16  18
ENDBRANCH   1  16
TORSDOF 10
ENDMDL
MODEL 6
REMARK VINA RESULT:      -7.5      4.246      7.316
REMARK  Name = 
REMARK  11 active torsions:
REMARK  status: ('A' for Active; 'I' for Inactive)
REMARK    1  A    between atoms: C_1  and  O_2
REMARK    2  A    between atoms: O_2  and  C_3
REMARK    3  A    between atoms: C_6  and  C_7
REMARK    4  A    between atoms: C_8  and  C_9
REMARK    5  A    between atoms: C_9  and  C_11
REMARK    6  A    between atoms: C_11  and  C_12
REMARK    7  A    between atoms: C_12  and  C_14
REMARK    8  A    between atoms: C_15  and  C_16
REMARK    9  A    between atoms: C_18  and  O_19
REMARK   10  A    between atoms: C_22  and  N_23
REMARK   11  A    between atoms: C_27  and  O_28
REMARK                            x       y       z     vdW  Elec       q    Type
REMARK                         _______ _______ _______ _____ _____    ______ ____
ROOT
ATOM      1  C   UNL     1       7.808   6.521  18.755  0.00  0.00    +0.000 C 
ENDROOT
BRANCH   1   2
ATOM      2  C   UNL     1       7.653   7.483  17.608  0.00  0.00    +0.000 C 
ATOM      3  O   UNL     1       7.241   7.101  16.513  0.00  0.00    +0.000 OA
BRANCH   2   5
ATOM      4  C   UNL     1       8.908   9.209  18.833  0.00  0.00    +0.000 C 
ATOM      5  C   UNL     1       8.078   8.894  17.827  0.00  0.00    +0.000 C 
BRANCH   4   9
ATOM      6  C   UNL     1      10.201  13.244  19.579  0.00  0.00    +0.000 A 
ATOM      7  C   UNL     1      10.175  12.715  18.283  0.00  0.00    +0.000 A 
ATOM      8  C   UNL     1       9.762  11.398  18.047  0.00  0.00    +0.000 A 
ATOM      9  C   UNL     1       9.372  10.577  19.109  0.00  0.00    +0.000 A 
ATOM     10  C   UNL     1       9.383  11.110  20.405  0.00  0.00    +0.000 A 
ATOM     11  C   UNL     1       9.803  12.427  20.642  0.00  0.00    +0.000 A 
BRANCH   6  13
ATOM     12  C   UNL     1       9.646  15.568  19.530  0.00  0.00    +0.000 C 
ATOM     13  O   UNL     1      10.627  14.544  19.620  0.00  0.00    +0.000 OA
ENDBRANCH   6  13
BRANCH  11  14
ATOM     14  O   UNL     1       9.803  12.876  21.934  0.00  0.00    +0.000 OA
ATOM     15  H   UNL     1       9.515  13.803  21.952  0.00  0.00    +0.000 HD
ENDBRANCH  11  14
ENDBRANCH   4   9
ENDBRANCH   2   5
ENDBRANCH   1   2
BRANCH   1  16
ATOM     16  C   UNL     1       7.601   5.083  18.373  0.00  0.00    +0.000 C 
ATOM     17  O   UNL     1       8.531   4.277  18.411  0.00  0.00    +0.000 OA
BRANCH  16  18
ATOM     18  C   UNL     1       6.231   4.657  17.963  0.00  0.00    +0.000 C 
ATOM     19  C   UNL     1       5.250   4.675  18.878  0.00  0.00    +0.000 C 
BRANCH  19  20
ATOM     20  C   UNL     1       3.867   4.282  18.590  0.00  0.00    +0.000 A 
ATOM     21  C   UNL     1       3.503   2.946  18.816  0.00  0.00    +0.000 A 
ATOM     22  C   UNL     1       2.177   2.545  18.637  0.00  0.00    +0.000 A 
ATOM     23  C   UNL     1       1.196   3.447  18.236  0.00  0.00    +0.000 A 
ATOM     24  C   UNL     1       1.537   4.776  17.999  0.00  0.00    +0.000 A 
ATOM     25  C   UNL     1       2.870   5.179  18.170  0.00  0.00    +0.000 A 
BRANCH  25  26
ATOM     26  N   UNL     1       3.188   6.571  17.914  0.00  0.00    +0.000 N 
ATOM     27  O   UNL     1       2.794   7.406  18.740  0.00  0.00    +0.000 OA
ATOM     28  O   UNL     1       3.856   6.817  16.901  0.00  0.00    +0.000 OA
ENDBRANCH  25  26
BRANCH  22  29
ATOM     29  O   UNL     1       1.790   1.257  18.863  0.00  0.00    +0.000 OA
ATOM     30  H   UNL     1       1.555   0.838  18.019  0.00  0.00    +0.000 HD
ENDBRANCH  22  29
ENDBRANCH  19  20
ENDBRANCH  16  18
ENDBRANCH   1  16
TORSDOF 10
ENDMDL
MODEL 7
REMARK VINA RESULT:      -7.5      4.463      7.587
REMARK  Name = 
REMARK  11 active torsions:
REMARK  status: ('A' for Active; 'I' for Inactive)
REMARK    1  A    between atoms: C_1  and  O_2
REMARK    2  A    between atoms: O_2  and  C_3
REMARK    3  A    between atoms: C_6  and  C_7
REMARK    4  A    between atoms: C_8  and  C_9
REMARK    5  A    between atoms: C_9  and  C_11
REMARK    6  A    between atoms: C_11  and  C_12
REMARK    7  A    between atoms: C_12  and  C_14
REMARK    8  A    between atoms: C_15  and  C_16
REMARK    9  A    between atoms: C_18  and  O_19
REMARK   10  A    between atoms: C_22  and  N_23
REMARK   11  A    between atoms: C_27  and  O_28
REMARK                            x       y       z     vdW  Elec       q    Type
REMARK                         _______ _______ _______ _____ _____    ______ ____
ROOT
ATOM      1  C   UNL     1       7.761   6.263  18.759  0.00  0.00    +0.000 C 
ENDROOT
BRANCH   1   2
ATOM      2  C   UNL     1       7.694   7.476  17.872  0.00  0.00    +0.000 C 
ATOM      3  O   UNL     1       7.001   7.481  16.856  0.00  0.00    +0.000 OA
BRANCH   2   5
ATOM      4  C   UNL     1       8.188   9.888  17.881  0.00  0.00    +0.000 C 
ATOM      5  C   UNL     1       8.547   8.644  18.234  0.00  0.00    +0.000 C 
BRANCH   4   9
ATOM      6  C   UNL     1      10.572  13.351  18.792  0.00  0.00    +0.000 A 
ATOM      7  C   UNL     1      10.913  12.083  19.279  0.00  0.00    +0.000 A 
ATOM      8  C   UNL     1      10.128  10.961  18.987  0.00  0.00    +0.000 A 
ATOM      9  C   UNL     1       8.977  11.086  18.205  0.00  0.00    +0.000 A 
ATOM     10  C   UNL     1       8.643  12.352  17.704  0.00  0.00    +0.000 A 
ATOM     11  C   UNL     1       9.426  13.476  18.002  0.00  0.00    +0.000 A 
BRANCH   6  13
ATOM     12  C   UNL     1      12.330  14.852  18.188  0.00  0.00    +0.000 C 
ATOM     13  O   UNL     1      11.453  14.327  19.173  0.00  0.00    +0.000 OA
ENDBRANCH   6  13
BRANCH  11  14
ATOM     14  O   UNL     1       9.031  14.684  17.493  0.00  0.00    +0.000 OA
ATOM     15  H   UNL     1       9.808  15.159  17.156  0.00  0.00    +0.000 HD
ENDBRANCH  11  14
ENDBRANCH   4   9
ENDBRANCH   2   5
ENDBRANCH   1   2
BRANCH   1  16
ATOM     16  C   UNL     1       7.285   5.001  18.097  0.00  0.00    +0.000 C 
ATOM     17  O   UNL     1       8.013   4.376  17.326  0.00  0.00    +0.000 OA
BRANCH  16  18
ATOM     18  C   UNL     1       5.908   4.519  18.415  0.00  0.00    +0.000 C 
ATOM     19  C   UNL     1       5.200   5.166  19.353  0.00  0.00    +0.000 C 
BRANCH  19  20
ATOM     20  C   UNL     1       3.840   4.785  19.747  0.00  0.00    +0.000 A 
ATOM     21  C   UNL     1       3.680   3.627  20.523  0.00  0.00    +0.000 A 
ATOM     22  C   UNL     1       2.414   3.272  20.992  0.00  0.00    +0.000 A 
ATOM     23  C   UNL     1       1.293   4.047  20.707  0.00  0.00    +0.000 A 
ATOM     24  C   UNL     1       1.428   5.197  19.933  0.00  0.00    +0.000 A 
ATOM     25  C   UNL     1       2.698   5.550  19.454  0.00  0.00    +0.000 A 
BRANCH  25  26
ATOM     26  N   UNL     1       2.800   6.754  18.650  0.00  0.00    +0.000 N 
ATOM     27  O   UNL     1       2.393   7.810  19.153  0.00  0.00    +0.000 OA
ATOM     28  O   UNL     1       3.315   6.639  17.530  0.00  0.00    +0.000 OA
ENDBRANCH  25  26
BRANCH  22  29
ATOM     29  O   UNL     1       2.228   2.161  21.759  0.00  0.00    +0.000 OA
ATOM     30  H   UNL     1       1.386   1.739  21.521  0.00  0.00    +0.000 HD
ENDBRANCH  22  29
ENDBRANCH  19  20
ENDBRANCH  16  18
ENDBRANCH   1  16
TORSDOF 10
ENDMDL
MODEL 8
REMARK VINA RESULT:      -7.5      2.360      6.503
REMARK  Name = 
REMARK  11 active torsions:
REMARK  status: ('A' for Active; 'I' for Inactive)
REMARK    1  A    between atoms: C_1  and  O_2
REMARK    2  A    between atoms: O_2  and  C_3
REMARK    3  A    between atoms: C_6  and  C_7
REMARK    4  A    between atoms: C_8  and  C_9
REMARK    5  A    between atoms: C_9  and  C_11
REMARK    6  A    between atoms: C_11  and  C_12
REMARK    7  A    between atoms: C_12  and  C_14
REMARK    8  A    between atoms: C_15  and  C_16
REMARK    9  A    between atoms: C_18  and  O_19
REMARK   10  A    between atoms: C_22  and  N_23
REMARK   11  A    between atoms: C_27  and  O_28
REMARK                            x       y       z     vdW  Elec       q    Type
REMARK                         _______ _______ _______ _____ _____    ______ ____
ROOT
ATOM      1  C   UNL     1       0.885   3.247  20.100  0.00  0.00    +0.000 C 
ENDROOT
BRANCH   1   2
ATOM      2  C   UNL     1       1.659   2.813  18.886  0.00  0.00    +0.000 C 
ATOM      3  O   UNL     1       1.227   1.937  18.139  0.00  0.00    +0.000 OA
BRANCH   2   5
ATOM      4  C   UNL     1       3.146   4.422  17.763  0.00  0.00    +0.000 C 
ATOM      5  C   UNL     1       2.995   3.435  18.659  0.00  0.00    +0.000 C 
BRANCH   4   9
ATOM      6  C   UNL     1       6.892   6.410  17.037  0.00  0.00    +0.000 A 
ATOM      7  C   UNL     1       5.697   7.130  17.162  0.00  0.00    +0.000 A 
ATOM      8  C   UNL     1       4.479   6.477  17.390  0.00  0.00    +0.000 A 
ATOM      9  C   UNL     1       4.430   5.083  17.489  0.00  0.00    +0.000 A 
ATOM     10  C   UNL     1       5.627   4.363  17.378  0.00  0.00    +0.000 A 
ATOM     11  C   UNL     1       6.846   5.016  17.144  0.00  0.00    +0.000 A 
BRANCH   6  13
ATOM     12  C   UNL     1       8.049   8.443  17.524  0.00  0.00    +0.000 C 
ATOM     13  O   UNL     1       7.981   7.210  16.822  0.00  0.00    +0.000 OA
ENDBRANCH   6  13
BRANCH  11  14
ATOM     14  O   UNL     1       7.973   4.248  17.032  0.00  0.00    +0.000 OA
ATOM     15  H   UNL     1       8.479   4.534  16.254  0.00  0.00    +0.000 HD
ENDBRANCH  11  14
ENDBRANCH   4   9
ENDBRANCH   2   5
ENDBRANCH   1   2
BRANCH   1  16
ATOM     16  C   UNL     1       1.475   4.438  20.801  0.00  0.00    +0.000 C 
ATOM     17  O   UNL     1       2.099   4.309  21.854  0.00  0.00    +0.000 OA
BRANCH  16  18
ATOM     18  C   UNL     1       1.298   5.780  20.172  0.00  0.00    +0.000 C 
ATOM     19  C   UNL     1       1.511   6.874  20.918  0.00  0.00    +0.000 C 
BRANCH  19  20
ATOM     20  C   UNL     1       1.371   8.242  20.408  0.00  0.00    +0.000 A 
ATOM     21  C   UNL     1       1.805   8.504  19.100  0.00  0.00    +0.000 A 
ATOM     22  C   UNL     1       1.614   9.770  18.542  0.00  0.00    +0.000 A 
ATOM     23  C   UNL     1       0.995  10.790  19.258  0.00  0.00    +0.000 A 
ATOM     24  C   UNL     1       0.563  10.554  20.561  0.00  0.00    +0.000 A 
ATOM     25  C   UNL     1       0.762   9.286  21.125  0.00  0.00    +0.000 A 
BRANCH  25  26
ATOM     26  N   UNL     1       0.298   9.077  22.484  0.00  0.00    +0.000 N 
ATOM     27  O   UNL     1      -0.761   8.454  22.635  0.00  0.00    +0.000 OA
ATOM     28  O   UNL     1       1.015   9.513  23.395  0.00  0.00    +0.000 OA
ENDBRANCH  25  26
BRANCH  22  29
ATOM     29  O   UNL     1       2.012  10.051  17.269  0.00  0.00    +0.000 OA
ATOM     30  H   UNL     1       2.963   9.874  17.181  0.00  0.00    +0.000 HD
ENDBRANCH  22  29
ENDBRANCH  19  20
ENDBRANCH  16  18
ENDBRANCH   1  16
TORSDOF 10
ENDMDL
MODEL 9
REMARK VINA RESULT:      -7.5      4.770      8.013
REMARK  Name = 
REMARK  11 active torsions:
REMARK  status: ('A' for Active; 'I' for Inactive)
REMARK    1  A    between atoms: C_1  and  O_2
REMARK    2  A    between atoms: O_2  and  C_3
REMARK    3  A    between atoms: C_6  and  C_7
REMARK    4  A    between atoms: C_8  and  C_9
REMARK    5  A    between atoms: C_9  and  C_11
REMARK    6  A    between atoms: C_11  and  C_12
REMARK    7  A    between atoms: C_12  and  C_14
REMARK    8  A    between atoms: C_15  and  C_16
REMARK    9  A    between atoms: C_18  and  O_19
REMARK   10  A    between atoms: C_22  and  N_23
REMARK   11  A    between atoms: C_27  and  O_28
REMARK                            x       y       z     vdW  Elec       q    Type
REMARK                         _______ _______ _______ _____ _____    ______ ____
ROOT
ATOM      1  C   UNL     1       7.913   6.416  18.636  0.00  0.00    +0.000 C 
ENDROOT
BRANCH   1   2
ATOM      2  C   UNL     1       7.844   7.723  17.895  0.00  0.00    +0.000 C 
ATOM      3  O   UNL     1       7.307   7.798  16.791  0.00  0.00    +0.000 OA
BRANCH   2   5
ATOM      4  C   UNL     1       8.687  10.034  17.815  0.00  0.00    +0.000 C 
ATOM      5  C   UNL     1       8.505   8.905  18.517  0.00  0.00    +0.000 C 
BRANCH   4   9
ATOM      6  C   UNL     1      10.648  13.516  19.409  0.00  0.00    +0.000 A 
ATOM      7  C   UNL     1      10.791  12.260  20.011  0.00  0.00    +0.000 A 
ATOM      8  C   UNL     1      10.143  11.132  19.493  0.00  0.00    +0.000 A 
ATOM      9  C   UNL     1       9.329  11.239  18.362  0.00  0.00    +0.000 A 
ATOM     10  C   UNL     1       9.197  12.493  17.750  0.00  0.00    +0.000 A 
ATOM     11  C   UNL     1       9.841  13.624  18.272  0.00  0.00    +0.000 A 
BRANCH   6  13
ATOM     12  C   UNL     1      10.716  15.195  21.109  0.00  0.00    +0.000 C 
ATOM     13  O   UNL     1      11.353  14.501  20.046  0.00  0.00    +0.000 OA
ENDBRANCH   6  13
BRANCH  11  14
ATOM     14  O   UNL     1       9.654  14.819  17.632  0.00  0.00    +0.000 OA
ATOM     15  H   UNL     1      10.392  14.974  17.020  0.00  0.00    +0.000 HD
ENDBRANCH  11  14
ENDBRANCH   4   9
ENDBRANCH   2   5
ENDBRANCH   1   2
BRANCH   1  16
ATOM     16  C   UNL     1       7.329   5.258  17.878  0.00  0.00    +0.000 C 
ATOM     17  O   UNL     1       8.041   4.530  17.186  0.00  0.00    +0.000 OA
BRANCH  16  18
ATOM     18  C   UNL     1       5.864   5.005  18.003  0.00  0.00    +0.000 C 
ATOM     19  C   UNL     1       5.449   3.782  18.364  0.00  0.00    +0.000 C 
BRANCH  19  20
ATOM     20  C   UNL     1       4.037   3.419  18.521  0.00  0.00    +0.000 A 
ATOM     21  C   UNL     1       3.088   4.126  17.768  0.00  0.00    +0.000 A 
ATOM     22  C   UNL     1       1.742   3.760  17.821  0.00  0.00    +0.000 A 
ATOM     23  C   UNL     1       1.312   2.697  18.611  0.00  0.00    +0.000 A 
ATOM     24  C   UNL     1       2.236   1.986  19.372  0.00  0.00    +0.000 A 
ATOM     25  C   UNL     1       3.587   2.359  19.326  0.00  0.00    +0.000 A 
BRANCH  25  26
ATOM     26  N   UNL     1       4.520   1.595  20.134  0.00  0.00    +0.000 N 
ATOM     27  O   UNL     1       4.996   0.567  19.633  0.00  0.00    +0.000 OA
ATOM     28  O   UNL     1       4.795   2.047  21.253  0.00  0.00    +0.000 OA
ENDBRANCH  25  26
BRANCH  22  29
ATOM     29  O   UNL     1       0.799   4.419  17.090  0.00  0.00    +0.000 OA
ATOM     30  H   UNL     1       1.057   5.350  16.993  0.00  0.00    +0.000 HD
ENDBRANCH  22  29
ENDBRANCH  19  20
ENDBRANCH  16  18
ENDBRANCH   1  16
TORSDOF 10
ENDMDL
