MODEL 1
REMARK VINA RESULT:      -8.5      0.000      0.000
REMARK  Name = 
REMARK  4 active torsions:
REMARK  status: ('A' for Active; 'I' for Inactive)
REMARK    1  A    between atoms: C_2  and  C_14
REMARK    2  A    between atoms: N_3  and  C_4
REMARK    3  A    between atoms: C_8  and  C_9
REMARK    4  A    between atoms: C_16  and  C_17
REMARK                            x       y       z     vdW  Elec       q    Type
REMARK                         _______ _______ _______ _____ _____    ______ ____
ROOT
ATOM      1  O   UNL     1       7.422   4.767  18.542  0.00  0.00    +0.000 OA
ATOM      2  C   UNL     1       6.721   5.746  18.302  0.00  0.00    +0.000 C 
ATOM      3  N   UNL     1       5.336   5.743  18.214  0.00  0.00    +0.000 N 
ATOM      4  H   UNL     1       4.914   6.589  17.845  0.00  0.00    +0.000 HD
ENDROOT
BRANCH   3   5
ATOM      5  C   UNL     1       4.516   4.614  18.438  0.00  0.00    +0.000 A 
ATOM      6  C   UNL     1       4.521   3.503  17.589  0.00  0.00    +0.000 A 
ATOM      7  C   UNL     1       3.656   2.430  17.800  0.00  0.00    +0.000 A 
ATOM      8  C   UNL     1       2.770   2.455  18.869  0.00  0.00    +0.000 A 
ATOM      9  C   UNL     1       2.756   3.545  19.751  0.00  0.00    +0.000 A 
ATOM     10  C   UNL     1       3.656   4.612  19.544  0.00  0.00    +0.000 A 
BRANCH   9  11
ATOM     11  C   UNL     1       1.768   3.587  20.891  0.00  0.00    +0.000 C 
ATOM     12  F   UNL     1       2.355   3.532  22.121  0.00  0.00    +0.000 F 
ATOM     13  F   UNL     1       1.013   4.719  20.889  0.00  0.00    +0.000 F 
ATOM     14  F   UNL     1       0.889   2.547  20.855  0.00  0.00    +0.000 F 
ENDBRANCH   9  11
ENDBRANCH   3   5
BRANCH   2  15
ATOM     15  C   UNL     1       7.362   7.033  18.030  0.00  0.00    +0.000 A 
ATOM     16  C   UNL     1       8.124   7.769  18.970  0.00  0.00    +0.000 A 
ATOM     17  C   UNL     1       8.504   8.911  18.313  0.00  0.00    +0.000 A 
ATOM     18  O   UNL     1       8.006   8.860  17.041  0.00  0.00    +0.000 OA
ATOM     19  N   UNL     1       7.298   7.676  16.854  0.00  0.00    +0.000 NA
BRANCH  17  20
ATOM     20  C   UNL     1       9.294  10.078  18.689  0.00  0.00    +0.000 A 
ATOM     21  C   UNL     1       9.429  10.431  20.044  0.00  0.00    +0.000 A 
ATOM     22  C   UNL     1      10.203  11.530  20.430  0.00  0.00    +0.000 A 
ATOM     23  C   UNL     1      10.846  12.292  19.462  0.00  0.00    +0.000 A 
ATOM     24 CL   UNL     1      11.815  13.634  19.933  0.00  0.00    +0.000 Cl
ATOM     25  C   UNL     1      10.715  11.972  18.115  0.00  0.00    +0.000 A 
ATOM     26  C   UNL     1       9.941  10.870  17.730  0.00  0.00    +0.000 A 
ENDBRANCH  17  20
ENDBRANCH   2  15
TORSDOF 4
ENDMDL
MODEL 2
REMARK VINA RESULT:      -8.4      0.218      1.183
REMARK  Name = 
REMARK  4 active torsions:
REMARK  status: ('A' for Active; 'I' for Inactive)
REMARK    1  A    between atoms: C_2  and  C_14
REMARK    2  A    between atoms: N_3  and  C_4
REMARK    3  A    between atoms: C_8  and  C_9
REMARK    4  A    between atoms: C_16  and  C_17
REMARK                            x       y       z     vdW  Elec       q    Type
REMARK                         _______ _______ _______ _____ _____    ______ ____
ROOT
ATOM      1  O   UNL     1       7.497   4.788  18.864  0.00  0.00    +0.000 OA
ATOM      2  C   UNL     1       6.797   5.724  18.488  0.00  0.00    +0.000 C 
ATOM      3  N   UNL     1       5.427   5.670  18.275  0.00  0.00    +0.000 N 
ATOM      4  H   UNL     1       5.020   6.473  17.806  0.00  0.00    +0.000 HD
ENDROOT
BRANCH   3   5
ATOM      5  C   UNL     1       4.619   4.534  18.507  0.00  0.00    +0.000 A 
ATOM      6  C   UNL     1       4.646   3.411  17.674  0.00  0.00    +0.000 A 
ATOM      7  C   UNL     1       3.792   2.331  17.891  0.00  0.00    +0.000 A 
ATOM      8  C   UNL     1       2.895   2.360  18.951  0.00  0.00    +0.000 A 
ATOM      9  C   UNL     1       2.859   3.462  19.818  0.00  0.00    +0.000 A 
ATOM     10  C   UNL     1       3.748   4.538  19.604  0.00  0.00    +0.000 A 
BRANCH   9  11
ATOM     11  C   UNL     1       1.859   3.508  20.947  0.00  0.00    +0.000 C 
ATOM     12  F   UNL     1       1.254   2.310  21.186  0.00  0.00    +0.000 F 
ATOM     13  F   UNL     1       2.419   3.886  22.128  0.00  0.00    +0.000 F 
ATOM     14  F   UNL     1       0.849   4.391  20.709  0.00  0.00    +0.000 F 
ENDBRANCH   9  11
ENDBRANCH   3   5
BRANCH   2  15
ATOM     15  C   UNL     1       7.427   7.008  18.181  0.00  0.00    +0.000 A 
ATOM     16  C   UNL     1       8.194   7.771  19.096  0.00  0.00    +0.000 A 
ATOM     17  C   UNL     1       8.560   8.899  18.409  0.00  0.00    +0.000 A 
ATOM     18  O   UNL     1       8.051   8.815  17.143  0.00  0.00    +0.000 OA
ATOM     19  N   UNL     1       7.348   7.623  16.990  0.00  0.00    +0.000 NA
BRANCH  17  20
ATOM     20  C   UNL     1       9.346  10.079  18.750  0.00  0.00    +0.000 A 
ATOM     21  C   UNL     1       9.922  10.861  17.733  0.00  0.00    +0.000 A 
ATOM     22  C   UNL     1      10.658  12.012  18.035  0.00  0.00    +0.000 A 
ATOM     23  C   UNL     1      10.829  12.389  19.362  0.00  0.00    +0.000 A 
ATOM     24 CL   UNL     1      11.717  13.815  19.738  0.00  0.00    +0.000 Cl
ATOM     25  C   UNL     1      10.282  11.624  20.386  0.00  0.00    +0.000 A 
ATOM     26  C   UNL     1       9.544  10.473  20.081  0.00  0.00    +0.000 A 
ENDBRANCH  17  20
ENDBRANCH   2  15
TORSDOF 4
ENDMDL
MODEL 3
REMARK VINA RESULT:      -8.2      7.515      8.884
REMARK  Name = 
REMARK  4 active torsions:
REMARK  status: ('A' for Active; 'I' for Inactive)
REMARK    1  A    between atoms: C_2  and  C_14
REMARK    2  A    between atoms: N_3  and  C_4
REMARK    3  A    between atoms: C_8  and  C_9
REMARK    4  A    between atoms: C_16  and  C_17
REMARK                            x       y       z     vdW  Elec       q    Type
REMARK                         _______ _______ _______ _____ _____    ______ ____
ROOT
ATOM      1  O   UNL     1       1.375   9.039  19.359  0.00  0.00    +0.000 OA
ATOM      2  C   UNL     1       1.212   8.584  20.488  0.00  0.00    +0.000 C 
ATOM      3  N   UNL     1       1.500   7.285  20.883  0.00  0.00    +0.000 N 
ATOM      4  H   UNL     1       1.156   7.014  21.799  0.00  0.00    +0.000 HD
ENDROOT
BRANCH   3   5
ATOM      5  C   UNL     1       2.073   6.298  20.051  0.00  0.00    +0.000 A 
ATOM      6  C   UNL     1       3.033   6.601  19.080  0.00  0.00    +0.000 A 
ATOM      7  C   UNL     1       3.537   5.617  18.230  0.00  0.00    +0.000 A 
ATOM      8  C   UNL     1       3.083   4.309  18.341  0.00  0.00    +0.000 A 
ATOM      9  C   UNL     1       2.138   3.968  19.320  0.00  0.00    +0.000 A 
ATOM     10  C   UNL     1       1.657   4.969  20.193  0.00  0.00    +0.000 A 
BRANCH   9  11
ATOM     11  C   UNL     1       1.619   2.555  19.416  0.00  0.00    +0.000 C 
ATOM     12  F   UNL     1       0.363   2.401  18.907  0.00  0.00    +0.000 F 
ATOM     13  F   UNL     1       2.403   1.662  18.753  0.00  0.00    +0.000 F 
ATOM     14  F   UNL     1       1.552   2.114  20.703  0.00  0.00    +0.000 F 
ENDBRANCH   9  11
ENDBRANCH   3   5
BRANCH   2  15
ATOM     15  C   UNL     1       0.622   9.436  21.522  0.00  0.00    +0.000 A 
ATOM     16  C   UNL     1      -0.285  10.495  21.274  0.00  0.00    +0.000 A 
ATOM     17  C   UNL     1      -0.554  11.036  22.504  0.00  0.00    +0.000 A 
ATOM     18  O   UNL     1       0.144  10.332  23.445  0.00  0.00    +0.000 OA
ATOM     19  N   UNL     1       0.875   9.317  22.834  0.00  0.00    +0.000 NA
BRANCH  17  20
ATOM     20  C   UNL     1      -1.397  12.135  22.962  0.00  0.00    +0.000 A 
ATOM     21  C   UNL     1      -2.718  11.886  23.374  0.00  0.00    +0.000 A 
ATOM     22  C   UNL     1      -3.537  12.920  23.842  0.00  0.00    +0.000 A 
ATOM     23  C   UNL     1      -3.040  14.217  23.898  0.00  0.00    +0.000 A 
ATOM     24 CL   UNL     1      -4.036  15.489  24.491  0.00  0.00    +0.000 Cl
ATOM     25  C   UNL     1      -1.741  14.491  23.483  0.00  0.00    +0.000 A 
ATOM     26  C   UNL     1      -0.923  13.454  23.016  0.00  0.00    +0.000 A 
ENDBRANCH  17  20
ENDBRANCH   2  15
TORSDOF 4
ENDMDL
MODEL 4
REMARK VINA RESULT:      -8.0      7.407      8.795
REMARK  Name = 
REMARK  4 active torsions:
REMARK  status: ('A' for Active; 'I' for Inactive)
REMARK    1  A    between atoms: C_2  and  C_14
REMARK    2  A    between atoms: N_3  and  C_4
REMARK    3  A    between atoms: C_8  and  C_9
REMARK    4  A    between atoms: C_16  and  C_17
REMARK                            x       y       z     vdW  Elec       q    Type
REMARK                         _______ _______ _______ _____ _____    ______ ____
ROOT
ATOM      1  O   UNL     1       1.214   9.031  18.994  0.00  0.00    +0.000 OA
ATOM      2  C   UNL     1       1.249   8.589  20.139  0.00  0.00    +0.000 C 
ATOM      3  N   UNL     1       1.721   7.337  20.505  0.00  0.00    +0.000 N 
ATOM      4  H   UNL     1       1.530   7.053  21.461  0.00  0.00    +0.000 HD
ENDROOT
BRANCH   3   5
ATOM      5  C   UNL     1       2.282   6.395  19.614  0.00  0.00    +0.000 A 
ATOM      6  C   UNL     1       3.223   6.750  18.642  0.00  0.00    +0.000 A 
ATOM      7  C   UNL     1       3.713   5.811  17.735  0.00  0.00    +0.000 A 
ATOM      8  C   UNL     1       3.266   4.497  17.789  0.00  0.00    +0.000 A 
ATOM      9  C   UNL     1       2.341   4.105  18.767  0.00  0.00    +0.000 A 
ATOM     10  C   UNL     1       1.873   5.058  19.698  0.00  0.00    +0.000 A 
BRANCH   9  11
ATOM     11  C   UNL     1       1.828   2.686  18.803  0.00  0.00    +0.000 C 
ATOM     12  F   UNL     1       2.361   1.891  17.831  0.00  0.00    +0.000 F 
ATOM     13  F   UNL     1       2.094   2.062  19.982  0.00  0.00    +0.000 F 
ATOM     14  F   UNL     1       0.478   2.617  18.636  0.00  0.00    +0.000 F 
ENDBRANCH   9  11
ENDBRANCH   3   5
BRANCH   2  15
ATOM     15  C   UNL     1       0.712   9.399  21.233  0.00  0.00    +0.000 A 
ATOM     16  C   UNL     1      -0.255  10.423  21.080  0.00  0.00    +0.000 A 
ATOM     17  C   UNL     1      -0.443  10.934  22.338  0.00  0.00    +0.000 A 
ATOM     18  O   UNL     1       0.359  10.246  23.205  0.00  0.00    +0.000 OA
ATOM     19  N   UNL     1       1.078   9.272  22.518  0.00  0.00    +0.000 NA
BRANCH  17  20
ATOM     20  C   UNL     1      -1.290  11.989  22.884  0.00  0.00    +0.000 A 
ATOM     21  C   UNL     1      -0.814  13.311  22.949  0.00  0.00    +0.000 A 
ATOM     22  C   UNL     1      -1.617  14.344  23.445  0.00  0.00    +0.000 A 
ATOM     23  C   UNL     1      -2.905  14.062  23.885  0.00  0.00    +0.000 A 
ATOM     24 CL   UNL     1      -3.904  15.332  24.477  0.00  0.00    +0.000 Cl
ATOM     25  C   UNL     1      -3.392  12.760  23.844  0.00  0.00    +0.000 A 
ATOM     26  C   UNL     1      -2.587  11.727  23.347  0.00  0.00    +0.000 A 
ENDBRANCH  17  20
ENDBRANCH   2  15
TORSDOF 4
ENDMDL
MODEL 5
REMARK VINA RESULT:      -8.0      6.455      8.070
REMARK  Name = 
REMARK  4 active torsions:
REMARK  status: ('A' for Active; 'I' for Inactive)
REMARK    1  A    between atoms: C_2  and  C_14
REMARK    2  A    between atoms: N_3  and  C_4
REMARK    3  A    between atoms: C_8  and  C_9
REMARK    4  A    between atoms: C_16  and  C_17
REMARK                            x       y       z     vdW  Elec       q    Type
REMARK                         _______ _______ _______ _____ _____    ______ ____
ROOT
ATOM      1  O   UNL     1       2.541   5.814  18.029  0.00  0.00    +0.000 OA
ATOM      2  C   UNL     1       3.046   6.933  18.001  0.00  0.00    +0.000 C 
ATOM      3  N   UNL     1       4.366   7.212  17.677  0.00  0.00    +0.000 N 
ATOM      4  H   UNL     1       4.676   8.161  17.861  0.00  0.00    +0.000 HD
ENDROOT
BRANCH   3   5
ATOM      5  C   UNL     1       5.320   6.249  17.279  0.00  0.00    +0.000 A 
ATOM      6  C   UNL     1       6.345   5.814  18.126  0.00  0.00    +0.000 A 
ATOM      7  C   UNL     1       7.310   4.909  17.686  0.00  0.00    +0.000 A 
ATOM      8  C   UNL     1       7.262   4.425  16.385  0.00  0.00    +0.000 A 
ATOM      9  C   UNL     1       6.234   4.824  15.519  0.00  0.00    +0.000 A 
ATOM     10  C   UNL     1       5.247   5.719  15.985  0.00  0.00    +0.000 A 
BRANCH   9  11
ATOM     11  C   UNL     1       6.204   4.325  14.095  0.00  0.00    +0.000 C 
ATOM     12  F   UNL     1       6.454   2.989  13.982  0.00  0.00    +0.000 F 
ATOM     13  F   UNL     1       5.002   4.532  13.493  0.00  0.00    +0.000 F 
ATOM     14  F   UNL     1       7.130   4.942  13.310  0.00  0.00    +0.000 F 
ENDBRANCH   9  11
ENDBRANCH   3   5
BRANCH   2  15
ATOM     15  C   UNL     1       2.238   8.091  18.383  0.00  0.00    +0.000 A 
ATOM     16  C   UNL     1       1.652   8.281  19.659  0.00  0.00    +0.000 A 
ATOM     17  C   UNL     1       0.966   9.465  19.569  0.00  0.00    +0.000 A 
ATOM     18  O   UNL     1       1.139   9.967  18.310  0.00  0.00    +0.000 OA
ATOM     19  N   UNL     1       1.948   9.114  17.564  0.00  0.00    +0.000 NA
BRANCH  17  20
ATOM     20  C   UNL     1       0.156  10.236  20.505  0.00  0.00    +0.000 A 
ATOM     21  C   UNL     1      -0.015   9.786  21.827  0.00  0.00    +0.000 A 
ATOM     22  C   UNL     1      -0.765  10.523  22.750  0.00  0.00    +0.000 A 
ATOM     23  C   UNL     1      -1.357  11.718  22.356  0.00  0.00    +0.000 A 
ATOM     24 CL   UNL     1      -2.265  12.638  23.492  0.00  0.00    +0.000 Cl
ATOM     25  C   UNL     1      -1.214  12.176  21.051  0.00  0.00    +0.000 A 
ATOM     26  C   UNL     1      -0.461  11.438  20.129  0.00  0.00    +0.000 A 
ENDBRANCH  17  20
ENDBRANCH   2  15
TORSDOF 4
ENDMDL
MODEL 6
REMARK VINA RESULT:      -7.9      1.403      1.510
REMARK  Name = 
REMARK  4 active torsions:
REMARK  status: ('A' for Active; 'I' for Inactive)
REMARK    1  A    between atoms: C_2  and  C_14
REMARK    2  A    between atoms: N_3  and  C_4
REMARK    3  A    between atoms: C_8  and  C_9
REMARK    4  A    between atoms: C_16  and  C_17
REMARK                            x       y       z     vdW  Elec       q    Type
REMARK                         _______ _______ _______ _____ _____    ______ ____
ROOT
ATOM      1  O   UNL     1       5.734   6.642  16.202  0.00  0.00    +0.000 OA
ATOM      2  C   UNL     1       6.061   6.632  17.385  0.00  0.00    +0.000 C 
ATOM      3  N   UNL     1       5.469   5.863  18.377  0.00  0.00    +0.000 N 
ATOM      4  H   UNL     1       5.737   6.088  19.331  0.00  0.00    +0.000 HD
ENDROOT
BRANCH   3   5
ATOM      5  C   UNL     1       4.428   4.932  18.163  0.00  0.00    +0.000 A 
ATOM      6  C   UNL     1       4.281   4.235  16.960  0.00  0.00    +0.000 A 
ATOM      7  C   UNL     1       3.208   3.369  16.753  0.00  0.00    +0.000 A 
ATOM      8  C   UNL     1       2.262   3.190  17.754  0.00  0.00    +0.000 A 
ATOM      9  C   UNL     1       2.393   3.857  18.981  0.00  0.00    +0.000 A 
ATOM     10  C   UNL     1       3.500   4.709  19.188  0.00  0.00    +0.000 A 
BRANCH   9  11
ATOM     11  C   UNL     1       1.346   3.689  20.053  0.00  0.00    +0.000 C 
ATOM     12  F   UNL     1       1.798   3.025  21.155  0.00  0.00    +0.000 F 
ATOM     13  F   UNL     1       0.863   4.877  20.506  0.00  0.00    +0.000 F 
ATOM     14  F   UNL     1       0.265   2.984  19.617  0.00  0.00    +0.000 F 
ENDBRANCH   9  11
ENDBRANCH   3   5
BRANCH   2  15
ATOM     15  C   UNL     1       7.125   7.527  17.839  0.00  0.00    +0.000 A 
ATOM     16  C   UNL     1       7.201   8.909  17.537  0.00  0.00    +0.000 A 
ATOM     17  C   UNL     1       8.358   9.346  18.128  0.00  0.00    +0.000 A 
ATOM     18  O   UNL     1       8.942   8.286  18.763  0.00  0.00    +0.000 OA
ATOM     19  N   UNL     1       8.165   7.143  18.596  0.00  0.00    +0.000 NA
BRANCH  17  20
ATOM     20  C   UNL     1       9.025  10.641  18.210  0.00  0.00    +0.000 A 
ATOM     21  C   UNL     1      10.290  10.745  18.816  0.00  0.00    +0.000 A 
ATOM     22  C   UNL     1      10.960  11.972  18.882  0.00  0.00    +0.000 A 
ATOM     23  C   UNL     1      10.366  13.109  18.346  0.00  0.00    +0.000 A 
ATOM     24 CL   UNL     1      11.195  14.616  18.408  0.00  0.00    +0.000 Cl
ATOM     25  C   UNL     1       9.110  13.033  17.755  0.00  0.00    +0.000 A 
ATOM     26  C   UNL     1       8.441  11.804  17.689  0.00  0.00    +0.000 A 
ENDBRANCH  17  20
ENDBRANCH   2  15
TORSDOF 4
ENDMDL
MODEL 7
REMARK VINA RESULT:      -7.9      6.471      8.065
REMARK  Name = 
REMARK  4 active torsions:
REMARK  status: ('A' for Active; 'I' for Inactive)
REMARK    1  A    between atoms: C_2  and  C_14
REMARK    2  A    between atoms: N_3  and  C_4
REMARK    3  A    between atoms: C_8  and  C_9
REMARK    4  A    between atoms: C_16  and  C_17
REMARK                            x       y       z     vdW  Elec       q    Type
REMARK                         _______ _______ _______ _____ _____    ______ ____
ROOT
ATOM      1  O   UNL     1       2.535   5.823  18.099  0.00  0.00    +0.000 OA
ATOM      2  C   UNL     1       3.032   6.944  18.045  0.00  0.00    +0.000 C 
ATOM      3  N   UNL     1       4.346   7.227  17.696  0.00  0.00    +0.000 N 
ATOM      4  H   UNL     1       4.652   8.181  17.860  0.00  0.00    +0.000 HD
ENDROOT
BRANCH   3   5
ATOM      5  C   UNL     1       5.300   6.264  17.301  0.00  0.00    +0.000 A 
ATOM      6  C   UNL     1       6.313   5.816  18.155  0.00  0.00    +0.000 A 
ATOM      7  C   UNL     1       7.279   4.911  17.718  0.00  0.00    +0.000 A 
ATOM      8  C   UNL     1       7.245   4.440  16.412  0.00  0.00    +0.000 A 
ATOM      9  C   UNL     1       6.229   4.852  15.537  0.00  0.00    +0.000 A 
ATOM     10  C   UNL     1       5.240   5.747  16.000  0.00  0.00    +0.000 A 
BRANCH   9  11
ATOM     11  C   UNL     1       6.214   4.367  14.109  0.00  0.00    +0.000 C 
ATOM     12  F   UNL     1       5.026   4.584  13.474  0.00  0.00    +0.000 F 
ATOM     13  F   UNL     1       7.163   4.969  13.341  0.00  0.00    +0.000 F 
ATOM     14  F   UNL     1       6.445   3.028  14.012  0.00  0.00    +0.000 F 
ENDBRANCH   9  11
ENDBRANCH   3   5
BRANCH   2  15
ATOM     15  C   UNL     1       2.222   8.103  18.419  0.00  0.00    +0.000 A 
ATOM     16  C   UNL     1       1.746   8.367  19.728  0.00  0.00    +0.000 A 
ATOM     17  C   UNL     1       1.014   9.521  19.621  0.00  0.00    +0.000 A 
ATOM     18  O   UNL     1       1.057   9.937  18.319  0.00  0.00    +0.000 OA
ATOM     19  N   UNL     1       1.825   9.057  17.563  0.00  0.00    +0.000 NA
BRANCH  17  20
ATOM     20  C   UNL     1       0.265  10.334  20.572  0.00  0.00    +0.000 A 
ATOM     21  C   UNL     1      -0.083  11.657  20.248  0.00  0.00    +0.000 A 
ATOM     22  C   UNL     1      -0.824  12.447  21.133  0.00  0.00    +0.000 A 
ATOM     23  C   UNL     1      -1.221  11.920  22.357  0.00  0.00    +0.000 A 
ATOM     24 CL   UNL     1      -2.148  12.882  23.442  0.00  0.00    +0.000 Cl
ATOM     25  C   UNL     1      -0.876  10.619  22.706  0.00  0.00    +0.000 A 
ATOM     26  C   UNL     1      -0.135   9.829  21.818  0.00  0.00    +0.000 A 
ENDBRANCH  17  20
ENDBRANCH   2  15
TORSDOF 4
ENDMDL
MODEL 8
REMARK VINA RESULT:      -7.8      7.045      8.544
REMARK  Name = 
REMARK  4 active torsions:
REMARK  status: ('A' for Active; 'I' for Inactive)
REMARK    1  A    between atoms: C_2  and  C_14
REMARK    2  A    between atoms: N_3  and  C_4
REMARK    3  A    between atoms: C_8  and  C_9
REMARK    4  A    between atoms: C_16  and  C_17
REMARK                            x       y       z     vdW  Elec       q    Type
REMARK                         _______ _______ _______ _____ _____    ______ ____
ROOT
ATOM      1  O   UNL     1       1.975   8.369  18.855  0.00  0.00    +0.000 OA
ATOM      2  C   UNL     1       1.750   8.057  20.021  0.00  0.00    +0.000 C 
ATOM      3  N   UNL     1       2.043   6.828  20.596  0.00  0.00    +0.000 N 
ATOM      4  H   UNL     1       1.646   6.665  21.517  0.00  0.00    +0.000 HD
ENDROOT
BRANCH   3   5
ATOM      5  C   UNL     1       2.692   5.762  19.935  0.00  0.00    +0.000 A 
ATOM      6  C   UNL     1       4.032   5.829  19.541  0.00  0.00    +0.000 A 
ATOM      7  C   UNL     1       4.631   4.787  18.834  0.00  0.00    +0.000 A 
ATOM      8  C   UNL     1       3.891   3.657  18.510  0.00  0.00    +0.000 A 
ATOM      9  C   UNL     1       2.551   3.549  18.911  0.00  0.00    +0.000 A 
ATOM     10  C   UNL     1       1.965   4.599  19.650  0.00  0.00    +0.000 A 
BRANCH   9  11
ATOM     11  C   UNL     1       1.738   2.337  18.527  0.00  0.00    +0.000 C 
ATOM     12  F   UNL     1       0.408   2.599  18.380  0.00  0.00    +0.000 F 
ATOM     13  F   UNL     1       2.143   1.785  17.352  0.00  0.00    +0.000 F 
ATOM     14  F   UNL     1       1.818   1.344  19.456  0.00  0.00    +0.000 F 
ENDBRANCH   9  11
ENDBRANCH   3   5
BRANCH   2  15
ATOM     15  C   UNL     1       1.074   9.013  20.898  0.00  0.00    +0.000 A 
ATOM     16  C   UNL     1      -0.054   9.787  20.531  0.00  0.00    +0.000 A 
ATOM     17  C   UNL     1      -0.336  10.558  21.629  0.00  0.00    +0.000 A 
ATOM     18  O   UNL     1       0.567  10.256  22.610  0.00  0.00    +0.000 OA
ATOM     19  N   UNL     1       1.448   9.276  22.160  0.00  0.00    +0.000 NA
BRANCH  17  20
ATOM     20  C   UNL     1      -1.355  11.558  21.926  0.00  0.00    +0.000 A 
ATOM     21  C   UNL     1      -1.962  11.592  23.195  0.00  0.00    +0.000 A 
ATOM     22  C   UNL     1      -2.922  12.558  23.511  0.00  0.00    +0.000 A 
ATOM     23  C   UNL     1      -3.290  13.500  22.557  0.00  0.00    +0.000 A 
ATOM     24 CL   UNL     1      -4.458  14.702  22.947  0.00  0.00    +0.000 Cl
ATOM     25  C   UNL     1      -2.715  13.478  21.291  0.00  0.00    +0.000 A 
ATOM     26  C   UNL     1      -1.753  12.510  20.976  0.00  0.00    +0.000 A 
ENDBRANCH  17  20
ENDBRANCH   2  15
TORSDOF 4
ENDMDL
MODEL 9
REMARK VINA RESULT:      -7.8      6.878      8.455
REMARK  Name = 
REMARK  4 active torsions:
REMARK  status: ('A' for Active; 'I' for Inactive)
REMARK    1  A    between atoms: C_2  and  C_14
REMARK    2  A    between atoms: N_3  and  C_4
REMARK    3  A    between atoms: C_8  and  C_9
REMARK    4  A    between atoms: C_16  and  C_17
REMARK                            x       y       z     vdW  Elec       q    Type
REMARK                         _______ _______ _______ _____ _____    ______ ____
ROOT
ATOM      1  O   UNL     1       2.425   8.290  17.803  0.00  0.00    +0.000 OA
ATOM      2  C   UNL     1       2.278   7.759  18.900  0.00  0.00    +0.000 C 
ATOM      3  N   UNL     1       2.768   6.512  19.263  0.00  0.00    +0.000 N 
ATOM      4  H   UNL     1       2.423   6.140  20.143  0.00  0.00    +0.000 HD
ENDROOT
BRANCH   3   5
ATOM      5  C   UNL     1       3.558   5.683  18.435  0.00  0.00    +0.000 A 
ATOM      6  C   UNL     1       3.017   4.623  17.702  0.00  0.00    +0.000 A 
ATOM      7  C   UNL     1       3.829   3.782  16.942  0.00  0.00    +0.000 A 
ATOM      8  C   UNL     1       5.201   3.993  16.906  0.00  0.00    +0.000 A 
ATOM      9  C   UNL     1       5.771   5.062  17.612  0.00  0.00    +0.000 A 
ATOM     10  C   UNL     1       4.935   5.923  18.356  0.00  0.00    +0.000 A 
BRANCH   9  11
ATOM     11  C   UNL     1       7.266   5.268  17.602  0.00  0.00    +0.000 C 
ATOM     12  F   UNL     1       7.804   5.406  18.847  0.00  0.00    +0.000 F 
ATOM     13  F   UNL     1       7.934   4.237  17.019  0.00  0.00    +0.000 F 
ATOM     14  F   UNL     1       7.630   6.388  16.916  0.00  0.00    +0.000 F 
ENDBRANCH   9  11
ENDBRANCH   3   5
BRANCH   2  15
ATOM     15  C   UNL     1       1.484   8.441  19.923  0.00  0.00    +0.000 A 
ATOM     16  C   UNL     1       0.711   9.607  19.700  0.00  0.00    +0.000 A 
ATOM     17  C   UNL     1       0.166   9.918  20.918  0.00  0.00    +0.000 A 
ATOM     18  O   UNL     1       0.580   8.982  21.825  0.00  0.00    +0.000 OA
ATOM     19  N   UNL     1       1.398   8.044  21.202  0.00  0.00    +0.000 NA
BRANCH  17  20
ATOM     20  C   UNL     1      -0.719  10.978  21.388  0.00  0.00    +0.000 A 
ATOM     21  C   UNL     1      -1.243  11.913  20.479  0.00  0.00    +0.000 A 
ATOM     22  C   UNL     1      -2.115  12.923  20.902  0.00  0.00    +0.000 A 
ATOM     23  C   UNL     1      -2.466  13.008  22.244  0.00  0.00    +0.000 A 
ATOM     24 CL   UNL     1      -3.553  14.236  22.767  0.00  0.00    +0.000 Cl
ATOM     25  C   UNL     1      -1.949  12.104  23.165  0.00  0.00    +0.000 A 
ATOM     26  C   UNL     1      -1.077  11.094  22.739  0.00  0.00    +0.000 A 
ENDBRANCH  17  20
ENDBRANCH   2  15
TORSDOF 4
ENDMDL
