MODEL 1
REMARK VINA RESULT:      -8.1      0.000      0.000
REMARK  Name = 
REMARK  5 active torsions:
REMARK  status: ('A' for Active; 'I' for Inactive)
REMARK    1  A    between atoms: C_1  and  C_2
REMARK    2  A    between atoms: C_2  and  C_3
REMARK    3  A    between atoms: C_2  and  N_4
REMARK    4  A    between atoms: C_8  and  C_10
REMARK    5  A    between atoms: C_12  and  C_13
REMARK                            x       y       z     vdW  Elec       q    Type
REMARK                         _______ _______ _______ _____ _____    ______ ____
ROOT
ATOM      1  C   UNL     1       7.633   7.010  17.888  0.00  0.00    +0.000 A 
ATOM      2  N   UNL     1       8.397   7.644  18.754  0.00  0.00    +0.000 NA
ATOM      3  C   UNL     1       8.371   8.941  18.293  0.00  0.00    +0.000 A 
ATOM      4  N   UNL     1       7.638   9.107  17.180  0.00  0.00    +0.000 NA
ATOM      5  O   UNL     1       7.168   7.823  16.895  0.00  0.00    +0.000 OA
ENDROOT
BRANCH   3   6
ATOM      6  C   UNL     1       9.063  10.018  18.985  0.00  0.00    +0.000 A 
ATOM      7  C   UNL     1       8.954  10.178  20.361  0.00  0.00    +0.000 A 
ATOM      8  C   UNL     1       9.667  11.199  20.949  0.00  0.00    +0.000 A 
ATOM      9  N   UNL     1      10.449  12.062  20.265  0.00  0.00    +0.000 NA
ATOM     10  C   UNL     1      10.547  11.943  18.924  0.00  0.00    +0.000 A 
ATOM     11  N   UNL     1      11.345  12.829  18.226  0.00  0.00    +0.000 N 
ATOM     12  C   UNL     1      11.973  13.952  18.920  0.00  0.00    +0.000 C 
ATOM     13  C   UNL     1      11.667  15.152  18.031  0.00  0.00    +0.000 C 
ATOM     14  C   UNL     1      11.640  14.561  16.633  0.00  0.00    +0.000 C 
ATOM     15  C   UNL     1      11.052  13.166  16.834  0.00  0.00    +0.000 C 
ATOM     16  C   UNL     1       9.871  10.912  18.271  0.00  0.00    +0.000 A 
ENDBRANCH   3   6
BRANCH   1  21
ATOM     17  N   UNL     1       3.362   4.237  19.277  0.00  0.00    +0.000 NA
ATOM     18  C   UNL     1       4.590   3.403  19.340  0.00  0.00    +0.000 C 
ATOM     19  C   UNL     1       5.700   3.781  18.336  0.00  0.00    +0.000 C 
ATOM     20  N   UNL     1       6.015   5.210  18.361  0.00  0.00    +0.000 N 
ATOM     21  C   UNL     1       7.272   5.601  17.863  0.00  0.00    +0.000 C 
ATOM     22  O   UNL     1       8.056   4.745  17.425  0.00  0.00    +0.000 OA
ATOM     23  C   UNL     1       4.840   6.091  18.351  0.00  0.00    +0.000 C 
ATOM     24  C   UNL     1       3.779   5.651  19.376  0.00  0.00    +0.000 C 
BRANCH  17  26
ATOM     25  C   UNL     1       1.697   2.621  18.405  0.00  0.00    +0.000 C 
ATOM     26  C   UNL     1       2.492   3.910  18.124  0.00  0.00    +0.000 C 
ATOM     27  C   UNL     1       1.462   5.006  17.797  0.00  0.00    +0.000 C 
ENDBRANCH  17  26
ENDBRANCH   1  21
TORSDOF 3
ENDMDL
MODEL 2
REMARK VINA RESULT:      -7.8      6.498      8.977
REMARK  Name = 
REMARK  5 active torsions:
REMARK  status: ('A' for Active; 'I' for Inactive)
REMARK    1  A    between atoms: C_1  and  C_2
REMARK    2  A    between atoms: C_2  and  C_3
REMARK    3  A    between atoms: C_2  and  N_4
REMARK    4  A    between atoms: C_8  and  C_10
REMARK    5  A    between atoms: C_12  and  C_13
REMARK                            x       y       z     vdW  Elec       q    Type
REMARK                         _______ _______ _______ _____ _____    ______ ____
ROOT
ATOM      1  C   UNL     1       2.238   8.285  18.491  0.00  0.00    +0.000 A 
ATOM      2  N   UNL     1       1.882   8.359  19.757  0.00  0.00    +0.000 NA
ATOM      3  C   UNL     1       0.996   9.413  19.765  0.00  0.00    +0.000 A 
ATOM      4  N   UNL     1       0.820   9.983  18.562  0.00  0.00    +0.000 NA
ATOM      5  O   UNL     1       1.662   9.253  17.719  0.00  0.00    +0.000 OA
ENDROOT
BRANCH   3   6
ATOM      6  C   UNL     1       0.309   9.833  20.977  0.00  0.00    +0.000 A 
ATOM      7  C   UNL     1       0.518   9.182  22.186  0.00  0.00    +0.000 A 
ATOM      8  C   UNL     1      -0.141   9.658  23.297  0.00  0.00    +0.000 A 
ATOM      9  N   UNL     1      -0.991  10.708  23.275  0.00  0.00    +0.000 NA
ATOM     10  C   UNL     1      -1.231  11.337  22.106  0.00  0.00    +0.000 A 
ATOM     11  N   UNL     1      -2.105  12.408  22.084  0.00  0.00    +0.000 N 
ATOM     12  C   UNL     1      -2.847  12.772  23.291  0.00  0.00    +0.000 C 
ATOM     13  C   UNL     1      -4.282  12.937  22.803  0.00  0.00    +0.000 C 
ATOM     14  C   UNL     1      -4.118  13.445  21.382  0.00  0.00    +0.000 C 
ATOM     15  C   UNL     1      -2.864  12.733  20.879  0.00  0.00    +0.000 C 
ATOM     16  C   UNL     1      -0.574  10.920  20.948  0.00  0.00    +0.000 A 
ENDBRANCH   3   6
BRANCH   1  21
ATOM     17  N   UNL     1       3.742   3.324  19.483  0.00  0.00    +0.000 NA
ATOM     18  C   UNL     1       4.794   4.068  18.745  0.00  0.00    +0.000 C 
ATOM     19  C   UNL     1       4.281   5.171  17.794  0.00  0.00    +0.000 C 
ATOM     20  N   UNL     1       3.334   6.077  18.444  0.00  0.00    +0.000 N 
ATOM     21  C   UNL     1       3.156   7.347  17.864  0.00  0.00    +0.000 C 
ATOM     22  O   UNL     1       3.788   7.653  16.842  0.00  0.00    +0.000 OA
ATOM     23  C   UNL     1       2.295   5.404  19.233  0.00  0.00    +0.000 C 
ATOM     24  C   UNL     1       2.881   4.320  20.156  0.00  0.00    +0.000 C 
BRANCH  17  26
ATOM     25  C   UNL     1       3.874   1.052  18.501  0.00  0.00    +0.000 C 
ATOM     26  C   UNL     1       3.029   2.332  18.645  0.00  0.00    +0.000 C 
ATOM     27  C   UNL     1       1.667   1.903  19.219  0.00  0.00    +0.000 C 
ENDBRANCH  17  26
ENDBRANCH   1  21
TORSDOF 3
ENDMDL
MODEL 3
REMARK VINA RESULT:      -7.8      1.673      1.724
REMARK  Name = 
REMARK  5 active torsions:
REMARK  status: ('A' for Active; 'I' for Inactive)
REMARK    1  A    between atoms: C_1  and  C_2
REMARK    2  A    between atoms: C_2  and  C_3
REMARK    3  A    between atoms: C_2  and  N_4
REMARK    4  A    between atoms: C_8  and  C_10
REMARK    5  A    between atoms: C_12  and  C_13
REMARK                            x       y       z     vdW  Elec       q    Type
REMARK                         _______ _______ _______ _____ _____    ______ ____
ROOT
ATOM      1  C   UNL     1       7.481   6.831  18.006  0.00  0.00    +0.000 A 
ATOM      2  N   UNL     1       8.208   7.642  18.746  0.00  0.00    +0.000 NA
ATOM      3  C   UNL     1       8.149   8.828  18.050  0.00  0.00    +0.000 A 
ATOM      4  N   UNL     1       7.432   8.757  16.917  0.00  0.00    +0.000 NA
ATOM      5  O   UNL     1       7.008   7.427  16.872  0.00  0.00    +0.000 OA
ENDROOT
BRANCH   3   6
ATOM      6  C   UNL     1       8.794  10.039  18.536  0.00  0.00    +0.000 A 
ATOM      7  C   UNL     1       9.797   9.986  19.495  0.00  0.00    +0.000 A 
ATOM      8  C   UNL     1      10.385  11.171  19.880  0.00  0.00    +0.000 A 
ATOM      9  N   UNL     1      10.031  12.379  19.391  0.00  0.00    +0.000 NA
ATOM     10  C   UNL     1       9.039  12.457  18.478  0.00  0.00    +0.000 A 
ATOM     11  N   UNL     1       8.675  13.695  17.983  0.00  0.00    +0.000 N 
ATOM     12  C   UNL     1       9.276  14.909  18.533  0.00  0.00    +0.000 C 
ATOM     13  C   UNL     1       8.084  15.825  18.789  0.00  0.00    +0.000 C 
ATOM     14  C   UNL     1       7.104  15.447  17.694  0.00  0.00    +0.000 C 
ATOM     15  C   UNL     1       7.314  13.945  17.514  0.00  0.00    +0.000 C 
ATOM     16  C   UNL     1       8.421  11.290  18.028  0.00  0.00    +0.000 A 
ENDBRANCH   3   6
BRANCH   1  21
ATOM     17  N   UNL     1       3.127   4.173  19.360  0.00  0.00    +0.000 NA
ATOM     18  C   UNL     1       4.353   3.446  19.776  0.00  0.00    +0.000 C 
ATOM     19  C   UNL     1       5.590   3.665  18.879  0.00  0.00    +0.000 C 
ATOM     20  N   UNL     1       5.859   5.082  18.632  0.00  0.00    +0.000 N 
ATOM     21  C   UNL     1       7.166   5.431  18.241  0.00  0.00    +0.000 C 
ATOM     22  O   UNL     1       8.029   4.549  18.117  0.00  0.00    +0.000 OA
ATOM     23  C   UNL     1       4.676   5.869  18.265  0.00  0.00    +0.000 C 
ATOM     24  C   UNL     1       3.486   5.598  19.202  0.00  0.00    +0.000 C 
BRANCH  17  26
ATOM     25  C   UNL     1       1.808   2.215  18.603  0.00  0.00    +0.000 C 
ATOM     26  C   UNL     1       2.448   3.557  18.197  0.00  0.00    +0.000 C 
ATOM     27  C   UNL     1       1.323   4.426  17.607  0.00  0.00    +0.000 C 
ENDBRANCH  17  26
ENDBRANCH   1  21
TORSDOF 3
ENDMDL
MODEL 4
REMARK VINA RESULT:      -7.7      2.234      2.520
REMARK  Name = 
REMARK  5 active torsions:
REMARK  status: ('A' for Active; 'I' for Inactive)
REMARK    1  A    between atoms: C_1  and  C_2
REMARK    2  A    between atoms: C_2  and  C_3
REMARK    3  A    between atoms: C_2  and  N_4
REMARK    4  A    between atoms: C_8  and  C_10
REMARK    5  A    between atoms: C_12  and  C_13
REMARK                            x       y       z     vdW  Elec       q    Type
REMARK                         _______ _______ _______ _____ _____    ______ ____
ROOT
ATOM      1  C   UNL     1       7.029   7.253  17.413  0.00  0.00    +0.000 A 
ATOM      2  N   UNL     1       7.224   8.549  17.281  0.00  0.00    +0.000 NA
ATOM      3  C   UNL     1       8.231   8.801  18.185  0.00  0.00    +0.000 A 
ATOM      4  N   UNL     1       8.637   7.715  18.863  0.00  0.00    +0.000 NA
ATOM      5  O   UNL     1       7.823   6.691  18.371  0.00  0.00    +0.000 OA
ENDROOT
BRANCH   3   6
ATOM      6  C   UNL     1       8.804  10.129  18.350  0.00  0.00    +0.000 A 
ATOM      7  C   UNL     1      10.060  10.306  18.916  0.00  0.00    +0.000 A 
ATOM      8  C   UNL     1      10.550  11.590  19.007  0.00  0.00    +0.000 A 
ATOM      9  N   UNL     1       9.874  12.684  18.595  0.00  0.00    +0.000 NA
ATOM     10  C   UNL     1       8.640  12.538  18.069  0.00  0.00    +0.000 A 
ATOM     11  N   UNL     1       7.948  13.659  17.653  0.00  0.00    +0.000 N 
ATOM     12  C   UNL     1       8.500  14.992  17.893  0.00  0.00    +0.000 C 
ATOM     13  C   UNL     1       7.330  15.773  18.482  0.00  0.00    +0.000 C 
ATOM     14  C   UNL     1       6.117  15.158  17.807  0.00  0.00    +0.000 C 
ATOM     15  C   UNL     1       6.486  13.684  17.657  0.00  0.00    +0.000 C 
ATOM     16  C   UNL     1       8.097  11.260  17.925  0.00  0.00    +0.000 A 
ENDBRANCH   3   6
BRANCH   1  21
ATOM     17  N   UNL     1       3.539   3.559  18.839  0.00  0.00    +0.000 NA
ATOM     18  C   UNL     1       4.005   3.350  17.444  0.00  0.00    +0.000 C 
ATOM     19  C   UNL     1       4.393   4.632  16.676  0.00  0.00    +0.000 C 
ATOM     20  N   UNL     1       5.314   5.482  17.432  0.00  0.00    +0.000 N 
ATOM     21  C   UNL     1       6.086   6.404  16.702  0.00  0.00    +0.000 C 
ATOM     22  O   UNL     1       5.965   6.472  15.469  0.00  0.00    +0.000 OA
ATOM     23  C   UNL     1       4.936   5.687  18.836  0.00  0.00    +0.000 C 
ATOM     24  C   UNL     1       4.564   4.367  19.534  0.00  0.00    +0.000 C 
BRANCH  17  26
ATOM     25  C   UNL     1       1.148   2.983  18.529  0.00  0.00    +0.000 C 
ATOM     26  C   UNL     1       2.156   4.081  18.921  0.00  0.00    +0.000 C 
ATOM     27  C   UNL     1       1.761   4.565  20.328  0.00  0.00    +0.000 C 
ENDBRANCH  17  26
ENDBRANCH   1  21
TORSDOF 3
ENDMDL
MODEL 5
REMARK VINA RESULT:      -7.7      8.831     11.924
REMARK  Name = 
REMARK  5 active torsions:
REMARK  status: ('A' for Active; 'I' for Inactive)
REMARK    1  A    between atoms: C_1  and  C_2
REMARK    2  A    between atoms: C_2  and  C_3
REMARK    3  A    between atoms: C_2  and  N_4
REMARK    4  A    between atoms: C_8  and  C_10
REMARK    5  A    between atoms: C_12  and  C_13
REMARK                            x       y       z     vdW  Elec       q    Type
REMARK                         _______ _______ _______ _____ _____    ______ ____
ROOT
ATOM      1  C   UNL     1      -0.552  12.154  22.318  0.00  0.00    +0.000 A 
ATOM      2  N   UNL     1      -0.067  11.848  21.132  0.00  0.00    +0.000 NA
ATOM      3  C   UNL     1       0.379  10.557  21.308  0.00  0.00    +0.000 A 
ATOM      4  N   UNL     1       0.196  10.084  22.551  0.00  0.00    +0.000 NA
ATOM      5  O   UNL     1      -0.398  11.150  23.230  0.00  0.00    +0.000 OA
ENDROOT
BRANCH   3   6
ATOM      6  C   UNL     1       0.967   9.790  20.219  0.00  0.00    +0.000 A 
ATOM      7  C   UNL     1       1.121  10.339  18.952  0.00  0.00    +0.000 A 
ATOM      8  C   UNL     1       1.717   9.564  17.983  0.00  0.00    +0.000 A 
ATOM      9  N   UNL     1       2.144   8.299  18.187  0.00  0.00    +0.000 NA
ATOM     10  C   UNL     1       1.978   7.736  19.403  0.00  0.00    +0.000 A 
ATOM     11  N   UNL     1       2.411   6.440  19.609  0.00  0.00    +0.000 N 
ATOM     12  C   UNL     1       2.929   5.654  18.490  0.00  0.00    +0.000 C 
ATOM     13  C   UNL     1       2.202   4.319  18.611  0.00  0.00    +0.000 C 
ATOM     14  C   UNL     1       2.002   4.158  20.107  0.00  0.00    +0.000 C 
ATOM     15  C   UNL     1       1.768   5.583  20.603  0.00  0.00    +0.000 C 
ATOM     16  C   UNL     1       1.404   8.477  20.436  0.00  0.00    +0.000 A 
ENDBRANCH   3   6
BRANCH   1  21
ATOM     17  N   UNL     1      -5.478  14.048  22.269  0.00  0.00    +0.000 NA
ATOM     18  C   UNL     1      -4.479  15.146  22.249  0.00  0.00    +0.000 C 
ATOM     19  C   UNL     1      -3.145  14.841  22.963  0.00  0.00    +0.000 C 
ATOM     20  N   UNL     1      -2.558  13.569  22.539  0.00  0.00    +0.000 N 
ATOM     21  C   UNL     1      -1.177  13.396  22.745  0.00  0.00    +0.000 C 
ATOM     22  O   UNL     1      -0.513  14.302  23.271  0.00  0.00    +0.000 OA
ATOM     23  C   UNL     1      -3.508  12.451  22.488  0.00  0.00    +0.000 C 
ATOM     24  C   UNL     1      -4.811  12.830  21.762  0.00  0.00    +0.000 C 
BRANCH  17  26
ATOM     25  C   UNL     1      -6.943  15.184  23.914  0.00  0.00    +0.000 C 
ATOM     26  C   UNL     1      -6.160  13.901  23.575  0.00  0.00    +0.000 C 
ATOM     27  C   UNL     1      -7.169  12.740  23.619  0.00  0.00    +0.000 C 
ENDBRANCH  17  26
ENDBRANCH   1  21
TORSDOF 3
ENDMDL
MODEL 6
REMARK VINA RESULT:      -7.7      5.879      9.919
REMARK  Name = 
REMARK  5 active torsions:
REMARK  status: ('A' for Active; 'I' for Inactive)
REMARK    1  A    between atoms: C_1  and  C_2
REMARK    2  A    between atoms: C_2  and  C_3
REMARK    3  A    between atoms: C_2  and  N_4
REMARK    4  A    between atoms: C_8  and  C_10
REMARK    5  A    between atoms: C_12  and  C_13
REMARK                            x       y       z     vdW  Elec       q    Type
REMARK                         _______ _______ _______ _____ _____    ______ ____
ROOT
ATOM      1  C   UNL     1       0.682  10.203  19.581  0.00  0.00    +0.000 A 
ATOM      2  N   UNL     1       1.213   9.179  18.946  0.00  0.00    +0.000 NA
ATOM      3  C   UNL     1       1.538   8.318  19.970  0.00  0.00    +0.000 A 
ATOM      4  N   UNL     1       1.241   8.790  21.191  0.00  0.00    +0.000 NA
ATOM      5  O   UNL     1       0.696  10.051  20.938  0.00  0.00    +0.000 OA
ENDROOT
BRANCH   3   6
ATOM      6  C   UNL     1       2.127   7.011  19.719  0.00  0.00    +0.000 A 
ATOM      7  C   UNL     1       1.975   5.967  20.624  0.00  0.00    +0.000 A 
ATOM      8  C   UNL     1       2.531   4.749  20.301  0.00  0.00    +0.000 A 
ATOM      9  N   UNL     1       3.228   4.517  19.168  0.00  0.00    +0.000 NA
ATOM     10  C   UNL     1       3.413   5.524  18.289  0.00  0.00    +0.000 A 
ATOM     11  N   UNL     1       4.131   5.286  17.132  0.00  0.00    +0.000 N 
ATOM     12  C   UNL     1       4.782   3.992  16.928  0.00  0.00    +0.000 C 
ATOM     13  C   UNL     1       6.194   4.357  16.483  0.00  0.00    +0.000 C 
ATOM     14  C   UNL     1       6.001   5.658  15.723  0.00  0.00    +0.000 C 
ATOM     15  C   UNL     1       4.872   6.360  16.474  0.00  0.00    +0.000 C 
ATOM     16  C   UNL     1       2.853   6.776  18.544  0.00  0.00    +0.000 A 
ENDBRANCH   3   6
BRANCH   1  21
ATOM     17  N   UNL     1       2.372  15.188  19.184  0.00  0.00    +0.000 NA
ATOM     18  C   UNL     1       0.888  15.120  19.179  0.00  0.00    +0.000 C 
ATOM     19  C   UNL     1       0.286  13.834  18.573  0.00  0.00    +0.000 C 
ATOM     20  N   UNL     1       0.880  12.619  19.130  0.00  0.00    +0.000 N 
ATOM     21  C   UNL     1       0.136  11.430  19.022  0.00  0.00    +0.000 C 
ATOM     22  O   UNL     1      -0.974  11.444  18.468  0.00  0.00    +0.000 OA
ATOM     23  C   UNL     1       2.346  12.643  19.210  0.00  0.00    +0.000 C 
ATOM     24  C   UNL     1       2.872  13.952  19.824  0.00  0.00    +0.000 C 
BRANCH  17  26
ATOM     25  C   UNL     1       2.685  16.964  17.484  0.00  0.00    +0.000 C 
ATOM     26  C   UNL     1       2.948  15.492  17.854  0.00  0.00    +0.000 C 
ATOM     27  C   UNL     1       4.470  15.278  17.777  0.00  0.00    +0.000 C 
ENDBRANCH  17  26
ENDBRANCH   1  21
TORSDOF 3
ENDMDL
MODEL 7
REMARK VINA RESULT:      -7.7      6.592      9.888
REMARK  Name = 
REMARK  5 active torsions:
REMARK  status: ('A' for Active; 'I' for Inactive)
REMARK    1  A    between atoms: C_1  and  C_2
REMARK    2  A    between atoms: C_2  and  C_3
REMARK    3  A    between atoms: C_2  and  N_4
REMARK    4  A    between atoms: C_8  and  C_10
REMARK    5  A    between atoms: C_12  and  C_13
REMARK                            x       y       z     vdW  Elec       q    Type
REMARK                         _______ _______ _______ _____ _____    ______ ____
ROOT
ATOM      1  C   UNL     1       0.875   9.241  21.173  0.00  0.00    +0.000 A 
ATOM      2  N   UNL     1       1.259   7.983  21.229  0.00  0.00    +0.000 NA
ATOM      3  C   UNL     1       1.798   7.771  19.980  0.00  0.00    +0.000 A 
ATOM      4  N   UNL     1       1.738   8.843  19.174  0.00  0.00    +0.000 NA
ATOM      5  O   UNL     1       1.103   9.812  19.954  0.00  0.00    +0.000 OA
ENDROOT
BRANCH   3   6
ATOM      6  C   UNL     1       2.395   6.497  19.605  0.00  0.00    +0.000 A 
ATOM      7  C   UNL     1       2.288   5.382  20.425  0.00  0.00    +0.000 A 
ATOM      8  C   UNL     1       2.849   4.203  19.987  0.00  0.00    +0.000 A 
ATOM      9  N   UNL     1       3.510   4.074  18.816  0.00  0.00    +0.000 NA
ATOM     10  C   UNL     1       3.651   5.153  18.016  0.00  0.00    +0.000 A 
ATOM     11  N   UNL     1       4.332   5.020  16.821  0.00  0.00    +0.000 N 
ATOM     12  C   UNL     1       4.992   3.758  16.490  0.00  0.00    +0.000 C 
ATOM     13  C   UNL     1       6.383   4.181  16.030  0.00  0.00    +0.000 C 
ATOM     14  C   UNL     1       6.147   5.535  15.385  0.00  0.00    +0.000 C 
ATOM     15  C   UNL     1       5.035   6.156  16.228  0.00  0.00    +0.000 C 
ATOM     16  C   UNL     1       3.083   6.371  18.391  0.00  0.00    +0.000 A 
ENDBRANCH   3   6
BRANCH   1  21
ATOM     17  N   UNL     1      -2.496  13.302  21.201  0.00  0.00    +0.000 NA
ATOM     18  C   UNL     1      -1.660  13.288  22.428  0.00  0.00    +0.000 C 
ATOM     19  C   UNL     1      -1.208  11.891  22.905  0.00  0.00    +0.000 C 
ATOM     20  N   UNL     1      -0.606  11.099  21.832  0.00  0.00    +0.000 N 
ATOM     21  C   UNL     1       0.240  10.040  22.209  0.00  0.00    +0.000 C 
ATOM     22  O   UNL     1       0.442   9.810  23.412  0.00  0.00    +0.000 OA
ATOM     23  C   UNL     1      -1.359  11.114  20.572  0.00  0.00    +0.000 C 
ATOM     24  C   UNL     1      -1.775  12.538  20.162  0.00  0.00    +0.000 C 
BRANCH  17  26
ATOM     25  C   UNL     1      -4.560  13.809  22.477  0.00  0.00    +0.000 C 
ATOM     26  C   UNL     1      -3.896  12.882  21.441  0.00  0.00    +0.000 C 
ATOM     27  C   UNL     1      -4.778  12.920  20.181  0.00  0.00    +0.000 C 
ENDBRANCH  17  26
ENDBRANCH   1  21
TORSDOF 3
ENDMDL
MODEL 8
REMARK VINA RESULT:      -7.6      6.207     10.762
REMARK  Name = 
REMARK  5 active torsions:
REMARK  status: ('A' for Active; 'I' for Inactive)
REMARK    1  A    between atoms: C_1  and  C_2
REMARK    2  A    between atoms: C_2  and  C_3
REMARK    3  A    between atoms: C_2  and  N_4
REMARK    4  A    between atoms: C_8  and  C_10
REMARK    5  A    between atoms: C_12  and  C_13
REMARK                            x       y       z     vdW  Elec       q    Type
REMARK                         _______ _______ _______ _____ _____    ______ ____
ROOT
ATOM      1  C   UNL     1       0.640  10.454  18.955  0.00  0.00    +0.000 A 
ATOM      2  N   UNL     1       1.392   9.735  18.147  0.00  0.00    +0.000 NA
ATOM      3  C   UNL     1       1.773   8.678  18.943  0.00  0.00    +0.000 A 
ATOM      4  N   UNL     1       1.296   8.742  20.196  0.00  0.00    +0.000 NA
ATOM      5  O   UNL     1       0.564   9.932  20.214  0.00  0.00    +0.000 OA
ENDROOT
BRANCH   3   6
ATOM      6  C   UNL     1       2.599   7.591  18.437  0.00  0.00    +0.000 A 
ATOM      7  C   UNL     1       3.579   7.816  17.479  0.00  0.00    +0.000 A 
ATOM      8  C   UNL     1       4.343   6.745  17.075  0.00  0.00    +0.000 A 
ATOM      9  N   UNL     1       4.184   5.488  17.542  0.00  0.00    +0.000 NA
ATOM     10  C   UNL     1       3.218   5.240  18.452  0.00  0.00    +0.000 A 
ATOM     11  N   UNL     1       3.053   3.953  18.926  0.00  0.00    +0.000 N 
ATOM     12  C   UNL     1       3.834   2.857  18.355  0.00  0.00    +0.000 C 
ATOM     13  C   UNL     1       2.800   1.770  18.082  0.00  0.00    +0.000 C 
ATOM     14  C   UNL     1       1.774   1.972  19.183  0.00  0.00    +0.000 C 
ATOM     15  C   UNL     1       1.748   3.485  19.389  0.00  0.00    +0.000 C 
ATOM     16  C   UNL     1       2.426   6.289  18.922  0.00  0.00    +0.000 A 
ENDBRANCH   3   6
BRANCH   1  21
ATOM     17  N   UNL     1       1.797  15.578  19.463  0.00  0.00    +0.000 NA
ATOM     18  C   UNL     1       0.330  15.349  19.512  0.00  0.00    +0.000 C 
ATOM     19  C   UNL     1      -0.180  14.144  18.693  0.00  0.00    +0.000 C 
ATOM     20  N   UNL     1       0.568  12.918  18.975  0.00  0.00    +0.000 N 
ATOM     21  C   UNL     1      -0.061  11.696  18.671  0.00  0.00    +0.000 C 
ATOM     22  O   UNL     1      -1.200  11.693  18.180  0.00  0.00    +0.000 OA
ATOM     23  C   UNL     1       2.026  13.087  18.992  0.00  0.00    +0.000 C 
ATOM     24  C   UNL     1       2.457  14.307  19.826  0.00  0.00    +0.000 C 
BRANCH  17  26
ATOM     25  C   UNL     1       1.532  17.532  17.962  0.00  0.00    +0.000 C 
ATOM     26  C   UNL     1       2.252  16.190  18.194  0.00  0.00    +0.000 C 
ATOM     27  C   UNL     1       3.762  16.483  18.156  0.00  0.00    +0.000 C 
ENDBRANCH  17  26
ENDBRANCH   1  21
TORSDOF 3
ENDMDL
MODEL 9
REMARK VINA RESULT:      -7.5      6.555     10.580
REMARK  Name = 
REMARK  5 active torsions:
REMARK  status: ('A' for Active; 'I' for Inactive)
REMARK    1  A    between atoms: C_1  and  C_2
REMARK    2  A    between atoms: C_2  and  C_3
REMARK    3  A    between atoms: C_2  and  N_4
REMARK    4  A    between atoms: C_8  and  C_10
REMARK    5  A    between atoms: C_12  and  C_13
REMARK                            x       y       z     vdW  Elec       q    Type
REMARK                         _______ _______ _______ _____ _____    ______ ____
ROOT
ATOM      1  C   UNL     1       0.545  10.515  19.501  0.00  0.00    +0.000 A 
ATOM      2  N   UNL     1       0.934   9.271  19.695  0.00  0.00    +0.000 NA
ATOM      3  C   UNL     1       1.814   9.061  18.658  0.00  0.00    +0.000 A 
ATOM      4  N   UNL     1       1.957  10.119  17.843  0.00  0.00    +0.000 NA
ATOM      5  O   UNL     1       1.097  11.076  18.386  0.00  0.00    +0.000 OA
ENDROOT
BRANCH   3   6
ATOM      6  C   UNL     1       2.531   7.804  18.499  0.00  0.00    +0.000 A 
ATOM      7  C   UNL     1       3.474   7.634  17.493  0.00  0.00    +0.000 A 
ATOM      8  C   UNL     1       4.137   6.429  17.427  0.00  0.00    +0.000 A 
ATOM      9  N   UNL     1       3.911   5.399  18.271  0.00  0.00    +0.000 NA
ATOM     10  C   UNL     1       2.979   5.532  19.238  0.00  0.00    +0.000 A 
ATOM     11  N   UNL     1       2.746   4.475  20.098  0.00  0.00    +0.000 N 
ATOM     12  C   UNL     1       3.415   3.193  19.882  0.00  0.00    +0.000 C 
ATOM     13  C   UNL     1       2.292   2.168  19.993  0.00  0.00    +0.000 C 
ATOM     14  C   UNL     1       1.343   2.791  21.001  0.00  0.00    +0.000 C 
ATOM     15  C   UNL     1       1.436   4.289  20.720  0.00  0.00    +0.000 C 
ATOM     16  C   UNL     1       2.291   6.738  19.375  0.00  0.00    +0.000 A 
ENDBRANCH   3   6
BRANCH   1  21
ATOM     17  N   UNL     1      -4.396  12.238  18.820  0.00  0.00    +0.000 NA
ATOM     18  C   UNL     1      -3.642  13.119  19.747  0.00  0.00    +0.000 C 
ATOM     19  C   UNL     1      -2.547  12.421  20.581  0.00  0.00    +0.000 C 
ATOM     20  N   UNL     1      -1.650  11.606  19.760  0.00  0.00    +0.000 N 
ATOM     21  C   UNL     1      -0.384  11.305  20.294  0.00  0.00    +0.000 C 
ATOM     22  O   UNL     1      -0.072  11.724  21.419  0.00  0.00    +0.000 OA
ATOM     23  C   UNL     1      -2.334  10.747  18.785  0.00  0.00    +0.000 C 
ATOM     24  C   UNL     1      -3.409  11.512  17.993  0.00  0.00    +0.000 C 
BRANCH  17  26
ATOM     25  C   UNL     1      -6.206  12.228  20.513  0.00  0.00    +0.000 C 
ATOM     26  C   UNL     1      -5.398  11.389  19.505  0.00  0.00    +0.000 C 
ATOM     27  C   UNL     1      -6.415  10.741  18.549  0.00  0.00    +0.000 C 
ENDBRANCH  17  26
ENDBRANCH   1  21
TORSDOF 3
ENDMDL
