MODEL 1
REMARK VINA RESULT:      -9.8      0.000      0.000
REMARK  Name = 
REMARK  11 active torsions:
REMARK  status: ('A' for Active; 'I' for Inactive)
REMARK    1  A    between atoms: C_1  and  C_2
REMARK    2  A    between atoms: C_6  and  C_7
REMARK    3  A    between atoms: C_7  and  C_8
REMARK    4  A    between atoms: C_7  and  N_9
REMARK    5  A    between atoms: N_9  and  C_10
REMARK    6  A    between atoms: C_12  and  C_13
REMARK    7  A    between atoms: C_17  and  C_18
REMARK    8  A    between atoms: C_19  and  C_20
REMARK    9  A    between atoms: N_23  and  C_24
REMARK   10  A    between atoms: C_24  and  C_25
REMARK   11  A    between atoms: C_25  and  O_27
REMARK                            x       y       z     vdW  Elec       q    Type
REMARK                         _______ _______ _______ _____ _____    ______ ____
ROOT
ATOM      1  C   UNL     1       4.013   6.807  17.790  0.00  0.00    +0.000 A 
ATOM      2  N   UNL     1       4.198   5.784  18.592  0.00  0.00    +0.000 NA
ATOM      3  C   UNL     1       3.053   5.362  19.013  0.00  0.00    +0.000 A 
ATOM      4  C   UNL     1       2.158   4.799  17.884  0.00  0.00    +0.000 C 
ATOM      5  N   UNL     1       2.539   6.166  19.874  0.00  0.00    +0.000 NA
ATOM      6  C   UNL     1       2.371   7.411  19.440  0.00  0.00    +0.000 A 
ATOM      7  C   UNL     1       1.696   8.235  20.350  0.00  0.00    +0.000 A 
ATOM      8  C   UNL     1       0.730   9.212  20.058  0.00  0.00    +0.000 A 
ATOM      9  C   UNL     1       0.070   9.873  21.233  0.00  0.00    +0.000 C 
ATOM     10  C   UNL     1       0.386   9.341  18.723  0.00  0.00    +0.000 A 
ATOM     11  C   UNL     1       1.462   8.779  17.775  0.00  0.00    +0.000 A 
ATOM     12  C   UNL     1       2.700   7.770  18.126  0.00  0.00    +0.000 A 
ENDROOT
BRANCH  10  13
ATOM     13  C   UNL     1      -1.115   9.839  18.320  0.00  0.00    +0.000 C 
ATOM     14  C   UNL     1      -1.245  11.391  18.392  0.00  0.00    +0.000 C 
ATOM     15  C   UNL     1      -2.724  11.856  18.352  0.00  0.00    +0.000 C 
ATOM     16  N   UNL     1      -3.403  11.533  17.095  0.00  0.00    +0.000 NA
ATOM     17  C   UNL     1      -3.271  10.106  16.765  0.00  0.00    +0.000 C 
ATOM     18  C   UNL     1      -1.801   9.570  16.892  0.00  0.00    +0.000 C 
BRANCH  16  19
ATOM     19  C   UNL     1      -4.805  12.032  17.016  0.00  0.00    +0.000 C 
BRANCH  19  20
ATOM     20  C   UNL     1      -5.527  12.172  18.359  0.00  0.00    +0.000 C 
ATOM     21  O   UNL     1      -6.000  11.237  18.992  0.00  0.00    +0.000 OA
BRANCH  20  22
ATOM     22  O   UNL     1      -5.604  13.449  18.810  0.00  0.00    +0.000 OA
ATOM     23  H   UNL     1      -5.114  13.599  19.640  0.00  0.00    +0.000 HD
ENDBRANCH  20  22
ENDBRANCH  19  20
ENDBRANCH  16  19
ENDBRANCH  10  13
BRANCH   1  24
ATOM     24  N   UNL     1       4.992   6.719  16.780  0.00  0.00    +0.000 N 
ATOM     25  H   UNL     1       5.798   7.144  17.245  0.00  0.00    +0.000 HD
BRANCH  24  26
ATOM     26  C   UNL     1       5.689   5.334  16.099  0.00  0.00    +0.000 C 
ATOM     27  C   UNL     1       6.822   4.848  17.043  0.00  0.00    +0.000 C 
BRANCH  26  33
ATOM     28  C   UNL     1       5.301   2.437  11.662  0.00  0.00    +0.000 C 
ATOM     29  C   UNL     1       5.957   3.501  12.505  0.00  0.00    +0.000 A 
ATOM     30  C   UNL     1       7.115   4.085  11.974  0.00  0.00    +0.000 A 
ATOM     31  C   UNL     1       7.801   4.999  12.745  0.00  0.00    +0.000 A 
ATOM     32  C   UNL     1       7.356   5.371  14.016  0.00  0.00    +0.000 A 
ATOM     33  C   UNL     1       6.170   4.945  14.605  0.00  0.00    +0.000 A 
ATOM     34  C   UNL     1       5.502   3.943  13.809  0.00  0.00    +0.000 A 
ENDBRANCH  26  33
ENDBRANCH  24  26
ENDBRANCH   1  24
TORSDOF 7
ENDMDL
MODEL 2
REMARK VINA RESULT:      -9.5      0.589      1.159
REMARK  Name = 
REMARK  11 active torsions:
REMARK  status: ('A' for Active; 'I' for Inactive)
REMARK    1  A    between atoms: C_1  and  C_2
REMARK    2  A    between atoms: C_6  and  C_7
REMARK    3  A    between atoms: C_7  and  C_8
REMARK    4  A    between atoms: C_7  and  N_9
REMARK    5  A    between atoms: N_9  and  C_10
REMARK    6  A    between atoms: C_12  and  C_13
REMARK    7  A    between atoms: C_17  and  C_18
REMARK    8  A    between atoms: C_19  and  C_20
REMARK    9  A    between atoms: N_23  and  C_24
REMARK   10  A    between atoms: C_24  and  C_25
REMARK   11  A    between atoms: C_25  and  O_27
REMARK                            x       y       z     vdW  Elec       q    Type
REMARK                         _______ _______ _______ _____ _____    ______ ____
ROOT
ATOM      1  C   UNL     1       3.897   6.768  17.795  0.00  0.00    +0.000 A 
ATOM      2  N   UNL     1       3.880   5.666  18.508  0.00  0.00    +0.000 NA
ATOM      3  C   UNL     1       2.662   5.386  18.830  0.00  0.00    +0.000 A 
ATOM      4  C   UNL     1       1.767   5.061  17.611  0.00  0.00    +0.000 C 
ATOM      5  N   UNL     1       2.217   6.184  19.735  0.00  0.00    +0.000 NA
ATOM      6  C   UNL     1       2.260   7.472  19.409  0.00  0.00    +0.000 A 
ATOM      7  C   UNL     1       1.656   8.309  20.356  0.00  0.00    +0.000 A 
ATOM      8  C   UNL     1       0.862   9.441  20.107  0.00  0.00    +0.000 A 
ATOM      9  C   UNL     1       0.232  10.094  21.304  0.00  0.00    +0.000 C 
ATOM     10  C   UNL     1       0.625   9.732  18.775  0.00  0.00    +0.000 A 
ATOM     11  C   UNL     1       1.666   9.095  17.834  0.00  0.00    +0.000 A 
ATOM     12  C   UNL     1       2.720   7.886  18.152  0.00  0.00    +0.000 A 
ENDROOT
BRANCH  10  13
ATOM     13  C   UNL     1      -0.759  10.481  18.345  0.00  0.00    +0.000 C 
ATOM     14  C   UNL     1      -1.885   9.458  18.004  0.00  0.00    +0.000 C 
ATOM     15  C   UNL     1      -3.079  10.125  17.272  0.00  0.00    +0.000 C 
ATOM     16  N   UNL     1      -3.782  11.117  18.090  0.00  0.00    +0.000 NA
ATOM     17  C   UNL     1      -2.852  12.115  18.639  0.00  0.00    +0.000 C 
ATOM     18  C   UNL     1      -1.576  11.483  19.299  0.00  0.00    +0.000 C 
BRANCH  16  19
ATOM     19  C   UNL     1      -4.972  11.719  17.424  0.00  0.00    +0.000 C 
BRANCH  19  20
ATOM     20  C   UNL     1      -6.249  11.748  18.268  0.00  0.00    +0.000 C 
ATOM     21  O   UNL     1      -6.535  12.635  19.062  0.00  0.00    +0.000 OA
BRANCH  20  22
ATOM     22  O   UNL     1      -7.067  10.686  18.061  0.00  0.00    +0.000 OA
ATOM     23  H   UNL     1      -7.005  10.317  17.159  0.00  0.00    +0.000 HD
ENDBRANCH  20  22
ENDBRANCH  19  20
ENDBRANCH  16  19
ENDBRANCH  10  13
BRANCH   1  24
ATOM     24  N   UNL     1       4.915   6.618  16.831  0.00  0.00    +0.000 N 
ATOM     25  H   UNL     1       5.736   6.920  17.360  0.00  0.00    +0.000 HD
BRANCH  24  26
ATOM     26  C   UNL     1       5.484   5.199  16.105  0.00  0.00    +0.000 C 
ATOM     27  C   UNL     1       6.481   4.521  17.084  0.00  0.00    +0.000 C 
BRANCH  26  33
ATOM     28  C   UNL     1       5.230   2.422  11.582  0.00  0.00    +0.000 C 
ATOM     29  C   UNL     1       5.868   3.454  12.478  0.00  0.00    +0.000 A 
ATOM     30  C   UNL     1       7.055   4.031  12.009  0.00  0.00    +0.000 A 
ATOM     31  C   UNL     1       7.723   4.914  12.829  0.00  0.00    +0.000 A 
ATOM     32  C   UNL     1       7.234   5.261  14.091  0.00  0.00    +0.000 A 
ATOM     33  C   UNL     1       6.019   4.841  14.621  0.00  0.00    +0.000 A 
ATOM     34  C   UNL     1       5.367   3.870  13.774  0.00  0.00    +0.000 A 
ENDBRANCH  26  33
ENDBRANCH  24  26
ENDBRANCH   1  24
TORSDOF 7
ENDMDL
MODEL 3
REMARK VINA RESULT:      -9.1      2.747      4.685
REMARK  Name = 
REMARK  11 active torsions:
REMARK  status: ('A' for Active; 'I' for Inactive)
REMARK    1  A    between atoms: C_1  and  C_2
REMARK    2  A    between atoms: C_6  and  C_7
REMARK    3  A    between atoms: C_7  and  C_8
REMARK    4  A    between atoms: C_7  and  N_9
REMARK    5  A    between atoms: N_9  and  C_10
REMARK    6  A    between atoms: C_12  and  C_13
REMARK    7  A    between atoms: C_17  and  C_18
REMARK    8  A    between atoms: C_19  and  C_20
REMARK    9  A    between atoms: N_23  and  C_24
REMARK   10  A    between atoms: C_24  and  C_25
REMARK   11  A    between atoms: C_25  and  O_27
REMARK                            x       y       z     vdW  Elec       q    Type
REMARK                         _______ _______ _______ _____ _____    ______ ____
ROOT
ATOM      1  C   UNL     1       1.152   8.351  21.081  0.00  0.00    +0.000 A 
ATOM      2  N   UNL     1       1.842   8.850  22.080  0.00  0.00    +0.000 NA
ATOM      3  C   UNL     1       1.193   9.840  22.593  0.00  0.00    +0.000 A 
ATOM      4  C   UNL     1      -0.151   9.423  23.235  0.00  0.00    +0.000 C 
ATOM      5  N   UNL     1       1.226  10.873  21.828  0.00  0.00    +0.000 NA
ATOM      6  C   UNL     1       0.748  10.673  20.604  0.00  0.00    +0.000 A 
ATOM      7  C   UNL     1       0.677  11.840  19.833  0.00  0.00    +0.000 A 
ATOM      8  C   UNL     1      -0.343  12.209  18.941  0.00  0.00    +0.000 A 
ATOM      9  C   UNL     1      -0.235  13.576  18.328  0.00  0.00    +0.000 C 
ATOM     10  C   UNL     1      -1.411  11.333  18.848  0.00  0.00    +0.000 A 
ATOM     11  C   UNL     1      -1.057   9.912  19.326  0.00  0.00    +0.000 A 
ATOM     12  C   UNL     1       0.220   9.430  20.228  0.00  0.00    +0.000 A 
ENDROOT
BRANCH  10  13
ATOM     13  C   UNL     1      -2.894  11.903  18.478  0.00  0.00    +0.000 C 
ATOM     14  C   UNL     1      -3.705  10.884  17.620  0.00  0.00    +0.000 C 
ATOM     15  C   UNL     1      -4.959  11.531  16.975  0.00  0.00    +0.000 C 
ATOM     16  N   UNL     1      -5.948  11.985  17.955  0.00  0.00    +0.000 NA
ATOM     17  C   UNL     1      -5.339  12.865  18.964  0.00  0.00    +0.000 C 
ATOM     18  C   UNL     1      -4.009  12.293  19.569  0.00  0.00    +0.000 C 
BRANCH  16  19
ATOM     19  C   UNL     1      -7.189  12.549  17.349  0.00  0.00    +0.000 C 
BRANCH  19  20
ATOM     20  C   UNL     1      -7.175  14.062  17.117  0.00  0.00    +0.000 C 
ATOM     21  O   UNL     1      -6.563  14.619  16.215  0.00  0.00    +0.000 OA
BRANCH  20  22
ATOM     22  O   UNL     1      -7.916  14.761  18.012  0.00  0.00    +0.000 OA
ATOM     23  H   UNL     1      -8.262  14.213  18.743  0.00  0.00    +0.000 HD
ENDBRANCH  20  22
ENDBRANCH  19  20
ENDBRANCH  16  19
ENDBRANCH  10  13
BRANCH   1  24
ATOM     24  N   UNL     1       1.358   6.956  21.095  0.00  0.00    +0.000 N 
ATOM     25  H   UNL     1       0.405   6.615  21.243  0.00  0.00    +0.000 HD
BRANCH  24  26
ATOM     26  C   UNL     1       1.885   5.951  19.838  0.00  0.00    +0.000 C 
ATOM     27  C   UNL     1       1.325   4.526  20.092  0.00  0.00    +0.000 C 
BRANCH  26  33
ATOM     28  C   UNL     1       5.170   6.613  15.715  0.00  0.00    +0.000 C 
ATOM     29  C   UNL     1       4.837   6.060  17.078  0.00  0.00    +0.000 A 
ATOM     30  C   UNL     1       5.800   5.223  17.659  0.00  0.00    +0.000 A 
ATOM     31  C   UNL     1       5.505   4.622  18.863  0.00  0.00    +0.000 A 
ATOM     32  C   UNL     1       4.293   4.849  19.522  0.00  0.00    +0.000 A 
ATOM     33  C   UNL     1       3.309   5.736  19.103  0.00  0.00    +0.000 A 
ATOM     34  C   UNL     1       3.610   6.306  17.811  0.00  0.00    +0.000 A 
ENDBRANCH  26  33
ENDBRANCH  24  26
ENDBRANCH   1  24
TORSDOF 7
ENDMDL
MODEL 4
REMARK VINA RESULT:      -9.1      4.235     10.793
REMARK  Name = 
REMARK  11 active torsions:
REMARK  status: ('A' for Active; 'I' for Inactive)
REMARK    1  A    between atoms: C_1  and  C_2
REMARK    2  A    between atoms: C_6  and  C_7
REMARK    3  A    between atoms: C_7  and  C_8
REMARK    4  A    between atoms: C_7  and  N_9
REMARK    5  A    between atoms: N_9  and  C_10
REMARK    6  A    between atoms: C_12  and  C_13
REMARK    7  A    between atoms: C_17  and  C_18
REMARK    8  A    between atoms: C_19  and  C_20
REMARK    9  A    between atoms: N_23  and  C_24
REMARK   10  A    between atoms: C_24  and  C_25
REMARK   11  A    between atoms: C_25  and  O_27
REMARK                            x       y       z     vdW  Elec       q    Type
REMARK                         _______ _______ _______ _____ _____    ______ ____
ROOT
ATOM      1  C   UNL     1      -0.342  10.906  18.539  0.00  0.00    +0.000 A 
ATOM      2  N   UNL     1      -0.171  11.723  19.552  0.00  0.00    +0.000 NA
ATOM      3  C   UNL     1       1.045  11.629  19.974  0.00  0.00    +0.000 A 
ATOM      4  C   UNL     1       2.091  12.094  18.933  0.00  0.00    +0.000 C 
ATOM      5  N   UNL     1       1.242  10.526  20.606  0.00  0.00    +0.000 NA
ATOM      6  C   UNL     1       0.975   9.429  19.905  0.00  0.00    +0.000 A 
ATOM      7  C   UNL     1       1.316   8.244  20.570  0.00  0.00    +0.000 A 
ATOM      8  C   UNL     1       1.889   7.090  20.010  0.00  0.00    +0.000 A 
ATOM      9  C   UNL     1       2.269   5.999  20.968  0.00  0.00    +0.000 C 
ATOM     10  C   UNL     1       2.180   7.155  18.658  0.00  0.00    +0.000 A 
ATOM     11  C   UNL     1       1.374   8.245  17.928  0.00  0.00    +0.000 A 
ATOM     12  C   UNL     1       0.555   9.507  18.570  0.00  0.00    +0.000 A 
ENDROOT
BRANCH  10  13
ATOM     13  C   UNL     1       3.422   6.283  18.056  0.00  0.00    +0.000 C 
ATOM     14  C   UNL     1       4.311   7.134  17.098  0.00  0.00    +0.000 C 
ATOM     15  C   UNL     1       5.274   6.254  16.259  0.00  0.00    +0.000 C 
ATOM     16  N   UNL     1       6.264   5.540  17.069  0.00  0.00    +0.000 NA
ATOM     17  C   UNL     1       5.623   4.772  18.146  0.00  0.00    +0.000 C 
ATOM     18  C   UNL     1       4.563   5.599  18.957  0.00  0.00    +0.000 C 
BRANCH  16  19
ATOM     19  C   UNL     1       7.239   4.742  16.272  0.00  0.00    +0.000 C 
BRANCH  19  20
ATOM     20  C   UNL     1       7.006   4.746  14.759  0.00  0.00    +0.000 C 
ATOM     21  O   UNL     1       6.121   4.120  14.192  0.00  0.00    +0.000 OA
BRANCH  20  22
ATOM     22  O   UNL     1       7.881   5.523  14.072  0.00  0.00    +0.000 OA
ATOM     23  H   UNL     1       8.378   5.036  13.386  0.00  0.00    +0.000 HD
ENDBRANCH  20  22
ENDBRANCH  19  20
ENDBRANCH  16  19
ENDBRANCH  10  13
BRANCH   1  24
ATOM     24  N   UNL     1      -1.221  11.544  17.640  0.00  0.00    +0.000 N 
ATOM     25  H   UNL     1      -0.768  11.347  16.744  0.00  0.00    +0.000 HD
BRANCH  24  26
ATOM     26  C   UNL     1      -2.835  11.170  17.292  0.00  0.00    +0.000 C 
ATOM     27  C   UNL     1      -3.036  11.277  15.756  0.00  0.00    +0.000 C 
BRANCH  26  33
ATOM     28  C   UNL     1      -5.755  12.972  21.348  0.00  0.00    +0.000 C 
ATOM     29  C   UNL     1      -5.609  12.446  19.943  0.00  0.00    +0.000 A 
ATOM     30  C   UNL     1      -6.798  12.228  19.236  0.00  0.00    +0.000 A 
ATOM     31  C   UNL     1      -6.721  11.665  17.981  0.00  0.00    +0.000 A 
ATOM     32  C   UNL     1      -5.496  11.337  17.394  0.00  0.00    +0.000 A 
ATOM     33  C   UNL     1      -4.248  11.603  17.948  0.00  0.00    +0.000 A 
ATOM     34  C   UNL     1      -4.353  12.134  19.286  0.00  0.00    +0.000 A 
ENDBRANCH  26  33
ENDBRANCH  24  26
ENDBRANCH   1  24
TORSDOF 7
ENDMDL
MODEL 5
REMARK VINA RESULT:      -9.0      1.304      1.458
REMARK  Name = 
REMARK  11 active torsions:
REMARK  status: ('A' for Active; 'I' for Inactive)
REMARK    1  A    between atoms: C_1  and  C_2
REMARK    2  A    between atoms: C_6  and  C_7
REMARK    3  A    between atoms: C_7  and  C_8
REMARK    4  A    between atoms: C_7  and  N_9
REMARK    5  A    between atoms: N_9  and  C_10
REMARK    6  A    between atoms: C_12  and  C_13
REMARK    7  A    between atoms: C_17  and  C_18
REMARK    8  A    between atoms: C_19  and  C_20
REMARK    9  A    between atoms: N_23  and  C_24
REMARK   10  A    between atoms: C_24  and  C_25
REMARK   11  A    between atoms: C_25  and  O_27
REMARK                            x       y       z     vdW  Elec       q    Type
REMARK                         _______ _______ _______ _____ _____    ______ ____
ROOT
ATOM      1  C   UNL     1       3.699   6.590  17.771  0.00  0.00    +0.000 A 
ATOM      2  N   UNL     1       3.772   5.370  18.250  0.00  0.00    +0.000 NA
ATOM      3  C   UNL     1       2.616   5.022  18.706  0.00  0.00    +0.000 A 
ATOM      4  C   UNL     1       1.528   4.933  17.610  0.00  0.00    +0.000 C 
ATOM      5  N   UNL     1       2.343   5.624  19.810  0.00  0.00    +0.000 NA
ATOM      6  C   UNL     1       2.362   6.950  19.737  0.00  0.00    +0.000 A 
ATOM      7  C   UNL     1       1.940   7.581  20.915  0.00  0.00    +0.000 A 
ATOM      8  C   UNL     1       1.143   8.733  21.024  0.00  0.00    +0.000 A 
ATOM      9  C   UNL     1       0.731   9.133  22.411  0.00  0.00    +0.000 C 
ATOM     10  C   UNL     1       0.700   9.277  19.830  0.00  0.00    +0.000 A 
ATOM     11  C   UNL     1       1.559   8.845  18.626  0.00  0.00    +0.000 A 
ATOM     12  C   UNL     1       2.622   7.606  18.526  0.00  0.00    +0.000 A 
ENDROOT
BRANCH  10  13
ATOM     13  C   UNL     1      -0.717  10.083  19.786  0.00  0.00    +0.000 C 
ATOM     14  C   UNL     1      -0.591  11.503  20.420  0.00  0.00    +0.000 C 
ATOM     15  C   UNL     1      -1.976  12.143  20.700  0.00  0.00    +0.000 C 
ATOM     16  N   UNL     1      -2.755  12.400  19.486  0.00  0.00    +0.000 NA
ATOM     17  C   UNL     1      -2.871  11.191  18.658  0.00  0.00    +0.000 C 
ATOM     18  C   UNL     1      -1.503  10.454  18.434  0.00  0.00    +0.000 C 
BRANCH  16  19
ATOM     19  C   UNL     1      -4.060  13.075  19.734  0.00  0.00    +0.000 C 
BRANCH  19  20
ATOM     20  C   UNL     1      -4.922  12.451  20.835  0.00  0.00    +0.000 C 
ATOM     21  O   UNL     1      -5.723  11.543  20.657  0.00  0.00    +0.000 OA
BRANCH  20  22
ATOM     22  O   UNL     1      -4.724  12.996  22.061  0.00  0.00    +0.000 OA
ATOM     23  H   UNL     1      -4.417  12.353  22.728  0.00  0.00    +0.000 HD
ENDBRANCH  20  22
ENDBRANCH  19  20
ENDBRANCH  16  19
ENDBRANCH  10  13
BRANCH   1  24
ATOM     24  N   UNL     1       4.543   6.640  16.643  0.00  0.00    +0.000 N 
ATOM     25  H   UNL     1       5.165   7.413  16.894  0.00  0.00    +0.000 HD
BRANCH  24  26
ATOM     26  C   UNL     1       5.650   5.481  16.097  0.00  0.00    +0.000 C 
ATOM     27  C   UNL     1       6.935   5.594  16.960  0.00  0.00    +0.000 C 
BRANCH  26  33
ATOM     28  C   UNL     1       5.227   2.463  11.744  0.00  0.00    +0.000 C 
ATOM     29  C   UNL     1       5.916   3.520  12.571  0.00  0.00    +0.000 A 
ATOM     30  C   UNL     1       7.117   4.025  12.055  0.00  0.00    +0.000 A 
ATOM     31  C   UNL     1       7.829   4.927  12.815  0.00  0.00    +0.000 A 
ATOM     32  C   UNL     1       7.371   5.364  14.062  0.00  0.00    +0.000 A 
ATOM     33  C   UNL     1       6.149   5.020  14.630  0.00  0.00    +0.000 A 
ATOM     34  C   UNL     1       5.450   4.028  13.847  0.00  0.00    +0.000 A 
ENDBRANCH  26  33
ENDBRANCH  24  26
ENDBRANCH   1  24
TORSDOF 7
ENDMDL
MODEL 6
REMARK VINA RESULT:      -8.8      4.471     11.392
REMARK  Name = 
REMARK  11 active torsions:
REMARK  status: ('A' for Active; 'I' for Inactive)
REMARK    1  A    between atoms: C_1  and  C_2
REMARK    2  A    between atoms: C_6  and  C_7
REMARK    3  A    between atoms: C_7  and  C_8
REMARK    4  A    between atoms: C_7  and  N_9
REMARK    5  A    between atoms: N_9  and  C_10
REMARK    6  A    between atoms: C_12  and  C_13
REMARK    7  A    between atoms: C_17  and  C_18
REMARK    8  A    between atoms: C_19  and  C_20
REMARK    9  A    between atoms: N_23  and  C_24
REMARK   10  A    between atoms: C_24  and  C_25
REMARK   11  A    between atoms: C_25  and  O_27
REMARK                            x       y       z     vdW  Elec       q    Type
REMARK                         _______ _______ _______ _____ _____    ______ ____
ROOT
ATOM      1  C   UNL     1      -2.077  12.087  19.093  0.00  0.00    +0.000 A 
ATOM      2  N   UNL     1      -1.833  13.239  19.672  0.00  0.00    +0.000 NA
ATOM      3  C   UNL     1      -0.557  13.409  19.763  0.00  0.00    +0.000 A 
ATOM      4  C   UNL     1       0.143  13.522  18.388  0.00  0.00    +0.000 C 
ATOM      5  N   UNL     1      -0.043  12.651  20.665  0.00  0.00    +0.000 NA
ATOM      6  C   UNL     1      -0.262  11.352  20.490  0.00  0.00    +0.000 A 
ATOM      7  C   UNL     1       0.412  10.541  21.412  0.00  0.00    +0.000 A 
ATOM      8  C   UNL     1       1.040   9.310  21.162  0.00  0.00    +0.000 A 
ATOM      9  C   UNL     1       1.800   8.701  22.305  0.00  0.00    +0.000 C 
ATOM     10  C   UNL     1       1.017   8.876  19.847  0.00  0.00    +0.000 A 
ATOM     11  C   UNL     1      -0.103   9.538  19.022  0.00  0.00    +0.000 A 
ATOM     12  C   UNL     1      -0.967  10.881  19.374  0.00  0.00    +0.000 A 
ENDROOT
BRANCH  10  13
ATOM     13  C   UNL     1       2.230   7.941  19.284  0.00  0.00    +0.000 C 
ATOM     14  C   UNL     1       1.859   6.427  19.330  0.00  0.00    +0.000 C 
ATOM     15  C   UNL     1       3.098   5.515  19.131  0.00  0.00    +0.000 C 
ATOM     16  N   UNL     1       3.717   5.655  17.811  0.00  0.00    +0.000 NA
ATOM     17  C   UNL     1       4.021   7.061  17.507  0.00  0.00    +0.000 C 
ATOM     18  C   UNL     1       2.823   8.034  17.793  0.00  0.00    +0.000 C 
BRANCH  16  19
ATOM     19  C   UNL     1       4.869   4.737  17.580  0.00  0.00    +0.000 C 
BRANCH  19  20
ATOM     20  C   UNL     1       5.721   4.433  18.814  0.00  0.00    +0.000 C 
ATOM     21  O   UNL     1       6.509   5.221  19.324  0.00  0.00    +0.000 OA
BRANCH  20  22
ATOM     22  O   UNL     1       5.532   3.189  19.319  0.00  0.00    +0.000 OA
ATOM     23  H   UNL     1       4.728   2.750  18.981  0.00  0.00    +0.000 HD
ENDBRANCH  20  22
ENDBRANCH  19  20
ENDBRANCH  16  19
ENDBRANCH  10  13
BRANCH   1  24
ATOM     24  N   UNL     1      -3.225  12.262  18.294  0.00  0.00    +0.000 N 
ATOM     25  H   UNL     1      -2.961  11.746  17.451  0.00  0.00    +0.000 HD
BRANCH  24  26
ATOM     26  C   UNL     1      -4.797  11.693  18.561  0.00  0.00    +0.000 C 
ATOM     27  C   UNL     1      -5.622  11.927  17.267  0.00  0.00    +0.000 C 
BRANCH  26  33
ATOM     28  C   UNL     1      -6.139  13.465  23.386  0.00  0.00    +0.000 C 
ATOM     29  C   UNL     1      -6.429  12.698  22.121  0.00  0.00    +0.000 A 
ATOM     30  C   UNL     1      -7.642  11.998  22.085  0.00  0.00    +0.000 A 
ATOM     31  C   UNL     1      -7.912  11.211  20.986  0.00  0.00    +0.000 A 
ATOM     32  C   UNL     1      -7.026  11.120  19.910  0.00  0.00    +0.000 A 
ATOM     33  C   UNL     1      -5.847  11.846  19.781  0.00  0.00    +0.000 A 
ATOM     34  C   UNL     1      -5.553  12.614  20.967  0.00  0.00    +0.000 A 
ENDBRANCH  26  33
ENDBRANCH  24  26
ENDBRANCH   1  24
TORSDOF 7
ENDMDL
MODEL 7
REMARK VINA RESULT:      -8.7      4.721     11.119
REMARK  Name = 
REMARK  11 active torsions:
REMARK  status: ('A' for Active; 'I' for Inactive)
REMARK    1  A    between atoms: C_1  and  C_2
REMARK    2  A    between atoms: C_6  and  C_7
REMARK    3  A    between atoms: C_7  and  C_8
REMARK    4  A    between atoms: C_7  and  N_9
REMARK    5  A    between atoms: N_9  and  C_10
REMARK    6  A    between atoms: C_12  and  C_13
REMARK    7  A    between atoms: C_17  and  C_18
REMARK    8  A    between atoms: C_19  and  C_20
REMARK    9  A    between atoms: N_23  and  C_24
REMARK   10  A    between atoms: C_24  and  C_25
REMARK   11  A    between atoms: C_25  and  O_27
REMARK                            x       y       z     vdW  Elec       q    Type
REMARK                         _______ _______ _______ _____ _____    ______ ____
ROOT
ATOM      1  C   UNL     1      -1.833  12.170  19.095  0.00  0.00    +0.000 A 
ATOM      2  N   UNL     1      -1.509  13.350  19.570  0.00  0.00    +0.000 NA
ATOM      3  C   UNL     1      -0.226  13.424  19.689  0.00  0.00    +0.000 A 
ATOM      4  C   UNL     1       0.518  13.345  18.335  0.00  0.00    +0.000 C 
ATOM      5  N   UNL     1       0.199  12.719  20.676  0.00  0.00    +0.000 NA
ATOM      6  C   UNL     1      -0.124  11.431  20.618  0.00  0.00    +0.000 A 
ATOM      7  C   UNL     1       0.454  10.662  21.636  0.00  0.00    +0.000 A 
ATOM      8  C   UNL     1       0.983   9.365  21.526  0.00  0.00    +0.000 A 
ATOM      9  C   UNL     1       1.658   8.812  22.748  0.00  0.00    +0.000 C 
ATOM     10  C   UNL     1       0.959   8.808  20.259  0.00  0.00    +0.000 A 
ATOM     11  C   UNL     1      -0.079   9.475  19.337  0.00  0.00    +0.000 A 
ATOM     12  C   UNL     1      -0.836  10.912  19.529  0.00  0.00    +0.000 A 
ENDROOT
BRANCH  10  13
ATOM     13  C   UNL     1       2.104   7.728  19.830  0.00  0.00    +0.000 C 
ATOM     14  C   UNL     1       1.726   6.282  20.276  0.00  0.00    +0.000 C 
ATOM     15  C   UNL     1       2.932   5.310  20.190  0.00  0.00    +0.000 C 
ATOM     16  N   UNL     1       3.421   5.108  18.824  0.00  0.00    +0.000 NA
ATOM     17  C   UNL     1       3.706   6.390  18.162  0.00  0.00    +0.000 C 
ATOM     18  C   UNL     1       2.550   7.441  18.313  0.00  0.00    +0.000 C 
BRANCH  16  19
ATOM     19  C   UNL     1       4.538   4.126  18.718  0.00  0.00    +0.000 C 
BRANCH  19  20
ATOM     20  C   UNL     1       4.251   2.743  19.308  0.00  0.00    +0.000 C 
ATOM     21  O   UNL     1       4.872   2.244  20.237  0.00  0.00    +0.000 OA
BRANCH  20  22
ATOM     22  O   UNL     1       3.224   2.092  18.706  0.00  0.00    +0.000 OA
ATOM     23  H   UNL     1       2.966   1.269  19.161  0.00  0.00    +0.000 HD
ENDBRANCH  20  22
ENDBRANCH  19  20
ENDBRANCH  16  19
ENDBRANCH  10  13
BRANCH   1  24
ATOM     24  N   UNL     1      -2.940  12.359  18.244  0.00  0.00    +0.000 N 
ATOM     25  H   UNL     1      -2.521  12.178  17.329  0.00  0.00    +0.000 HD
BRANCH  24  26
ATOM     26  C   UNL     1      -4.367  11.453  18.147  0.00  0.00    +0.000 C 
ATOM     27  C   UNL     1      -4.954  11.627  16.721  0.00  0.00    +0.000 C 
BRANCH  26  33
ATOM     28  C   UNL     1      -7.289  12.893  22.345  0.00  0.00    +0.000 C 
ATOM     29  C   UNL     1      -6.995  11.990  21.173  0.00  0.00    +0.000 A 
ATOM     30  C   UNL     1      -7.832  10.877  21.023  0.00  0.00    +0.000 A 
ATOM     31  C   UNL     1      -7.550   9.975  20.021  0.00  0.00    +0.000 A 
ATOM     32  C   UNL     1      -6.476  10.159  19.145  0.00  0.00    +0.000 A 
ATOM     33  C   UNL     1      -5.643  11.272  19.124  0.00  0.00    +0.000 A 
ATOM     34  C   UNL     1      -5.917  12.172  20.220  0.00  0.00    +0.000 A 
ENDBRANCH  26  33
ENDBRANCH  24  26
ENDBRANCH   1  24
TORSDOF 7
ENDMDL
MODEL 8
REMARK VINA RESULT:      -8.7      4.352     11.011
REMARK  Name = 
REMARK  11 active torsions:
REMARK  status: ('A' for Active; 'I' for Inactive)
REMARK    1  A    between atoms: C_1  and  C_2
REMARK    2  A    between atoms: C_6  and  C_7
REMARK    3  A    between atoms: C_7  and  C_8
REMARK    4  A    between atoms: C_7  and  N_9
REMARK    5  A    between atoms: N_9  and  C_10
REMARK    6  A    between atoms: C_12  and  C_13
REMARK    7  A    between atoms: C_17  and  C_18
REMARK    8  A    between atoms: C_19  and  C_20
REMARK    9  A    between atoms: N_23  and  C_24
REMARK   10  A    between atoms: C_24  and  C_25
REMARK   11  A    between atoms: C_25  and  O_27
REMARK                            x       y       z     vdW  Elec       q    Type
REMARK                         _______ _______ _______ _____ _____    ______ ____
ROOT
ATOM      1  C   UNL     1      -0.692  10.960  18.909  0.00  0.00    +0.000 A 
ATOM      2  N   UNL     1      -0.623  11.685  20.001  0.00  0.00    +0.000 NA
ATOM      3  C   UNL     1       0.586  11.659  20.453  0.00  0.00    +0.000 A 
ATOM      4  C   UNL     1       1.610  12.316  19.497  0.00  0.00    +0.000 C 
ATOM      5  N   UNL     1       0.868  10.522  20.983  0.00  0.00    +0.000 NA
ATOM      6  C   UNL     1       0.722   9.480  20.171  0.00  0.00    +0.000 A 
ATOM      7  C   UNL     1       1.154   8.270  20.731  0.00  0.00    +0.000 A 
ATOM      8  C   UNL     1       1.846   7.233  20.083  0.00  0.00    +0.000 A 
ATOM      9  C   UNL     1       2.301   6.091  20.945  0.00  0.00    +0.000 C 
ATOM     10  C   UNL     1       2.164   7.457  18.754  0.00  0.00    +0.000 A 
ATOM     11  C   UNL     1       1.278   8.537  18.105  0.00  0.00    +0.000 A 
ATOM     12  C   UNL     1       0.330   9.651  18.837  0.00  0.00    +0.000 A 
ENDROOT
BRANCH  10  13
ATOM     13  C   UNL     1       3.495   6.764  18.114  0.00  0.00    +0.000 C 
ATOM     14  C   UNL     1       3.157   5.419  17.400  0.00  0.00    +0.000 C 
ATOM     15  C   UNL     1       4.428   4.585  17.092  0.00  0.00    +0.000 C 
ATOM     16  N   UNL     1       5.336   5.236  16.144  0.00  0.00    +0.000 NA
ATOM     17  C   UNL     1       5.671   6.602  16.572  0.00  0.00    +0.000 C 
ATOM     18  C   UNL     1       4.418   7.449  16.991  0.00  0.00    +0.000 C 
BRANCH  16  19
ATOM     19  C   UNL     1       6.530   4.417  15.787  0.00  0.00    +0.000 C 
BRANCH  19  20
ATOM     20  C   UNL     1       6.936   4.459  14.312  0.00  0.00    +0.000 C 
ATOM     21  O   UNL     1       6.494   3.711  13.449  0.00  0.00    +0.000 OA
BRANCH  20  22
ATOM     22  O   UNL     1       7.848   5.420  14.022  0.00  0.00    +0.000 OA
ATOM     23  H   UNL     1       7.452   6.297  13.860  0.00  0.00    +0.000 HD
ENDBRANCH  20  22
ENDBRANCH  19  20
ENDBRANCH  16  19
ENDBRANCH  10  13
BRANCH   1  24
ATOM     24  N   UNL     1      -1.603  11.602  18.046  0.00  0.00    +0.000 N 
ATOM     25  H   UNL     1      -1.221  11.352  17.130  0.00  0.00    +0.000 HD
BRANCH  24  26
ATOM     26  C   UNL     1      -3.251  11.285  17.821  0.00  0.00    +0.000 C 
ATOM     27  C   UNL     1      -3.517  11.168  16.296  0.00  0.00    +0.000 C 
BRANCH  26  33
ATOM     28  C   UNL     1      -7.916  13.784  17.354  0.00  0.00    +0.000 C 
ATOM     29  C   UNL     1      -6.827  13.138  18.173  0.00  0.00    +0.000 A 
ATOM     30  C   UNL     1      -6.979  13.200  19.565  0.00  0.00    +0.000 A 
ATOM     31  C   UNL     1      -5.967  12.703  20.357  0.00  0.00    +0.000 A 
ATOM     32  C   UNL     1      -4.821  12.121  19.809  0.00  0.00    +0.000 A 
ATOM     33  C   UNL     1      -4.604  11.905  18.453  0.00  0.00    +0.000 A 
ATOM     34  C   UNL     1      -5.645  12.489  17.640  0.00  0.00    +0.000 A 
ENDBRANCH  26  33
ENDBRANCH  24  26
ENDBRANCH   1  24
TORSDOF 7
ENDMDL
MODEL 9
REMARK VINA RESULT:      -8.7      2.661      4.581
REMARK  Name = 
REMARK  11 active torsions:
REMARK  status: ('A' for Active; 'I' for Inactive)
REMARK    1  A    between atoms: C_1  and  C_2
REMARK    2  A    between atoms: C_6  and  C_7
REMARK    3  A    between atoms: C_7  and  C_8
REMARK    4  A    between atoms: C_7  and  N_9
REMARK    5  A    between atoms: N_9  and  C_10
REMARK    6  A    between atoms: C_12  and  C_13
REMARK    7  A    between atoms: C_17  and  C_18
REMARK    8  A    between atoms: C_19  and  C_20
REMARK    9  A    between atoms: N_23  and  C_24
REMARK   10  A    between atoms: C_24  and  C_25
REMARK   11  A    between atoms: C_25  and  O_27
REMARK                            x       y       z     vdW  Elec       q    Type
REMARK                         _______ _______ _______ _____ _____    ______ ____
ROOT
ATOM      1  C   UNL     1       1.189   8.729  20.608  0.00  0.00    +0.000 A 
ATOM      2  N   UNL     1       1.622   8.807  21.845  0.00  0.00    +0.000 NA
ATOM      3  C   UNL     1       0.712   9.351  22.581  0.00  0.00    +0.000 A 
ATOM      4  C   UNL     1      -0.578   8.504  22.685  0.00  0.00    +0.000 C 
ATOM      5  N   UNL     1       0.613  10.613  22.353  0.00  0.00    +0.000 NA
ATOM      6  C   UNL     1       0.349  10.930  21.090  0.00  0.00    +0.000 A 
ATOM      7  C   UNL     1       0.122  12.299  20.893  0.00  0.00    +0.000 A 
ATOM      8  C   UNL     1      -0.834  12.889  20.049  0.00  0.00    +0.000 A 
ATOM      9  C   UNL     1      -0.952  14.384  20.114  0.00  0.00    +0.000 C 
ATOM     10  C   UNL     1      -1.664  12.013  19.370  0.00  0.00    +0.000 A 
ATOM     11  C   UNL     1      -1.070  10.596  19.262  0.00  0.00    +0.000 A 
ATOM     12  C   UNL     1       0.158   9.938  20.120  0.00  0.00    +0.000 A 
ENDROOT
BRANCH  10  13
ATOM     13  C   UNL     1      -3.177  12.476  18.975  0.00  0.00    +0.000 C 
ATOM     14  C   UNL     1      -3.823  11.508  17.937  0.00  0.00    +0.000 C 
ATOM     15  C   UNL     1      -5.102  12.106  17.295  0.00  0.00    +0.000 C 
ATOM     16  N   UNL     1      -6.188  12.321  18.254  0.00  0.00    +0.000 NA
ATOM     17  C   UNL     1      -5.736  13.112  19.408  0.00  0.00    +0.000 C 
ATOM     18  C   UNL     1      -4.387  12.600  20.026  0.00  0.00    +0.000 C 
BRANCH  16  19
ATOM     19  C   UNL     1      -7.447  12.834  17.642  0.00  0.00    +0.000 C 
BRANCH  19  20
ATOM     20  C   UNL     1      -7.468  14.337  17.350  0.00  0.00    +0.000 C 
ATOM     21  O   UNL     1      -7.916  15.184  18.110  0.00  0.00    +0.000 OA
BRANCH  20  22
ATOM     22  O   UNL     1      -6.933  14.669  16.148  0.00  0.00    +0.000 OA
ATOM     23  H   UNL     1      -6.417  13.949  15.739  0.00  0.00    +0.000 HD
ENDBRANCH  20  22
ENDBRANCH  19  20
ENDBRANCH  16  19
ENDBRANCH  10  13
BRANCH   1  24
ATOM     24  N   UNL     1       1.692   7.527  20.071  0.00  0.00    +0.000 N 
ATOM     25  H   UNL     1       0.843   7.115  19.675  0.00  0.00    +0.000 HD
BRANCH  24  26
ATOM     26  C   UNL     1       2.794   7.314  18.803  0.00  0.00    +0.000 C 
ATOM     27  C   UNL     1       2.487   8.375  17.712  0.00  0.00    +0.000 C 
BRANCH  26  33
ATOM     28  C   UNL     1       2.959   2.073  17.944  0.00  0.00    +0.000 C 
ATOM     29  C   UNL     1       3.406   3.484  17.658  0.00  0.00    +0.000 A 
ATOM     30  C   UNL     1       4.440   3.630  16.723  0.00  0.00    +0.000 A 
ATOM     31  C   UNL     1       4.943   4.891  16.494  0.00  0.00    +0.000 A 
ATOM     32  C   UNL     1       4.433   6.018  17.145  0.00  0.00    +0.000 A 
ATOM     33  C   UNL     1       3.343   6.017  18.008  0.00  0.00    +0.000 A 
ATOM     34  C   UNL     1       2.873   4.680  18.283  0.00  0.00    +0.000 A 
ENDBRANCH  26  33
ENDBRANCH  24  26
ENDBRANCH   1  24
TORSDOF 7
ENDMDL
