MODEL 1
REMARK VINA RESULT:      -5.3      0.000      0.000
REMARK  Name = 
REMARK  3 active torsions:
REMARK  status: ('A' for Active; 'I' for Inactive)
REMARK    1  A    between atoms: N_1  and  C_2
REMARK    2  A    between atoms: C_5  and  C_6
REMARK    3  A    between atoms: N_8  and  O_9
REMARK                            x       y       z     vdW  Elec       q    Type
REMARK                         _______ _______ _______ _____ _____    ______ ____
ROOT
ATOM      1  C   UNL     1       1.495   2.790  20.647  0.00  0.00    +0.000 C 
ATOM      2  C   UNL     1       0.973   4.224  20.438  0.00  0.00    +0.000 C 
ATOM      3  C   UNL     1       2.185   4.958  19.962  0.00  0.00    +0.000 C 
ATOM      4  C   UNL     1       3.160   4.117  19.591  0.00  0.00    +0.000 C 
ATOM      5  C   UNL     1       2.748   2.688  19.755  0.00  0.00    +0.000 C 
ENDROOT
BRANCH   4   6
ATOM      6  C   UNL     1       4.465   4.583  19.077  0.00  0.00    +0.000 C 
ATOM      7  O   UNL     1       4.667   5.752  18.758  0.00  0.00    +0.000 OA
ATOM      8  N   UNL     1       5.435   3.625  18.983  0.00  0.00    +0.000 N 
ATOM      9  H   UNL     1       5.348   2.657  19.263  0.00  0.00    +0.000 HD
BRANCH   8  10
ATOM     10  O   UNL     1       6.697   4.042  18.507  0.00  0.00    +0.000 OA
ATOM     11  H   UNL     1       6.515   4.963  18.216  0.00  0.00    +0.000 HD
ENDBRANCH   8  10
ENDBRANCH   4   6
BRANCH   1  12
ATOM     12  N   UNL     1       1.840   2.532  22.053  0.00  0.00    +0.000 NA
ATOM     13  H   UNL     1       1.376   1.677  22.365  0.00  0.00    +0.000 HD
ATOM     14  H   UNL     1       1.456   3.276  22.639  0.00  0.00    +0.000 HD
ENDBRANCH   1  12
TORSDOF 3
ENDMDL
MODEL 2
REMARK VINA RESULT:      -5.3      3.763      4.978
REMARK  Name = 
REMARK  3 active torsions:
REMARK  status: ('A' for Active; 'I' for Inactive)
REMARK    1  A    between atoms: N_1  and  C_2
REMARK    2  A    between atoms: C_5  and  C_6
REMARK    3  A    between atoms: N_8  and  O_9
REMARK                            x       y       z     vdW  Elec       q    Type
REMARK                         _______ _______ _______ _____ _____    ______ ____
ROOT
ATOM      1  C   UNL     1       5.328   4.545  18.614  0.00  0.00    +0.000 C 
ATOM      2  C   UNL     1       6.629   5.347  18.810  0.00  0.00    +0.000 C 
ATOM      3  C   UNL     1       7.293   5.243  17.475  0.00  0.00    +0.000 C 
ATOM      4  C   UNL     1       6.448   4.800  16.534  0.00  0.00    +0.000 C 
ATOM      5  C   UNL     1       5.084   4.547  17.092  0.00  0.00    +0.000 C 
ENDROOT
BRANCH   4   6
ATOM      6  C   UNL     1       6.851   4.609  15.124  0.00  0.00    +0.000 C 
ATOM      7  O   UNL     1       7.719   5.293  14.590  0.00  0.00    +0.000 OA
ATOM      8  N   UNL     1       6.191   3.617  14.455  0.00  0.00    +0.000 N 
ATOM      9  H   UNL     1       5.496   2.994  14.843  0.00  0.00    +0.000 HD
BRANCH   8  10
ATOM     10  O   UNL     1       6.562   3.402  13.109  0.00  0.00    +0.000 OA
ATOM     11  H   UNL     1       5.716   3.106  12.707  0.00  0.00    +0.000 HD
ENDBRANCH   8  10
ENDBRANCH   4   6
BRANCH   1  12
ATOM     12  N   UNL     1       5.453   3.168  19.115  0.00  0.00    +0.000 NA
ATOM     13  H   UNL     1       4.525   2.800  19.329  0.00  0.00    +0.000 HD
ATOM     14  H   UNL     1       5.953   3.175  20.006  0.00  0.00    +0.000 HD
ENDBRANCH   1  12
TORSDOF 3
ENDMDL
MODEL 3
REMARK VINA RESULT:      -5.2      3.330      4.528
REMARK  Name = 
REMARK  3 active torsions:
REMARK  status: ('A' for Active; 'I' for Inactive)
REMARK    1  A    between atoms: N_1  and  C_2
REMARK    2  A    between atoms: C_5  and  C_6
REMARK    3  A    between atoms: N_8  and  O_9
REMARK                            x       y       z     vdW  Elec       q    Type
REMARK                         _______ _______ _______ _____ _____    ______ ____
ROOT
ATOM      1  C   UNL     1       4.852   4.200  18.858  0.00  0.00    +0.000 C 
ATOM      2  C   UNL     1       5.991   5.185  19.183  0.00  0.00    +0.000 C 
ATOM      3  C   UNL     1       6.776   5.223  17.912  0.00  0.00    +0.000 C 
ATOM      4  C   UNL     1       6.094   4.685  16.891  0.00  0.00    +0.000 C 
ATOM      5  C   UNL     1       4.742   4.210  17.320  0.00  0.00    +0.000 C 
ENDROOT
BRANCH   4   6
ATOM      6  C   UNL     1       6.641   4.601  15.520  0.00  0.00    +0.000 C 
ATOM      7  O   UNL     1       6.332   3.702  14.743  0.00  0.00    +0.000 OA
ATOM      8  N   UNL     1       7.514   5.594  15.175  0.00  0.00    +0.000 N 
ATOM      9  H   UNL     1       7.782   6.381  15.751  0.00  0.00    +0.000 HD
BRANCH   8  10
ATOM     10  O   UNL     1       8.046   5.548  13.868  0.00  0.00    +0.000 OA
ATOM     11  H   UNL     1       7.234   5.528  13.315  0.00  0.00    +0.000 HD
ENDBRANCH   8  10
ENDBRANCH   4   6
BRANCH   1  12
ATOM     12  N   UNL     1       5.145   2.843  19.345  0.00  0.00    +0.000 NA
ATOM     13  H   UNL     1       5.722   2.902  20.185  0.00  0.00    +0.000 HD
ATOM     14  H   UNL     1       5.719   2.352  18.657  0.00  0.00    +0.000 HD
ENDBRANCH   1  12
TORSDOF 3
ENDMDL
MODEL 4
REMARK VINA RESULT:      -5.1      1.152      1.606
REMARK  Name = 
REMARK  3 active torsions:
REMARK  status: ('A' for Active; 'I' for Inactive)
REMARK    1  A    between atoms: N_1  and  C_2
REMARK    2  A    between atoms: C_5  and  C_6
REMARK    3  A    between atoms: N_8  and  O_9
REMARK                            x       y       z     vdW  Elec       q    Type
REMARK                         _______ _______ _______ _____ _____    ______ ____
ROOT
ATOM      1  C   UNL     1       0.821   3.439  20.417  0.00  0.00    +0.000 C 
ATOM      2  C   UNL     1       1.735   2.586  21.317  0.00  0.00    +0.000 C 
ATOM      3  C   UNL     1       3.099   2.868  20.776  0.00  0.00    +0.000 C 
ATOM      4  C   UNL     1       3.100   3.938  19.968  0.00  0.00    +0.000 C 
ATOM      5  C   UNL     1       1.737   4.542  19.849  0.00  0.00    +0.000 C 
ENDROOT
BRANCH   4   6
ATOM      6  C   UNL     1       4.324   4.436  19.304  0.00  0.00    +0.000 C 
ATOM      7  O   UNL     1       4.434   5.593  18.910  0.00  0.00    +0.000 OA
ATOM      8  N   UNL     1       5.327   3.519  19.159  0.00  0.00    +0.000 N 
ATOM      9  H   UNL     1       5.317   2.564  19.493  0.00  0.00    +0.000 HD
BRANCH   8  10
ATOM     10  O   UNL     1       6.514   3.967  18.538  0.00  0.00    +0.000 OA
ATOM     11  H   UNL     1       6.689   4.810  19.011  0.00  0.00    +0.000 HD
ENDBRANCH   8  10
ENDBRANCH   4   6
BRANCH   1  12
ATOM     12  N   UNL     1       0.230   2.647  19.328  0.00  0.00    +0.000 NA
ATOM     13  H   UNL     1      -0.461   2.003  19.714  0.00  0.00    +0.000 HD
ATOM     14  H   UNL     1       0.950   2.054  18.911  0.00  0.00    +0.000 HD
ENDBRANCH   1  12
TORSDOF 3
ENDMDL
MODEL 5
REMARK VINA RESULT:      -5.1      4.476      5.244
REMARK  Name = 
REMARK  3 active torsions:
REMARK  status: ('A' for Active; 'I' for Inactive)
REMARK    1  A    between atoms: N_1  and  C_2
REMARK    2  A    between atoms: C_5  and  C_6
REMARK    3  A    between atoms: N_8  and  O_9
REMARK                            x       y       z     vdW  Elec       q    Type
REMARK                         _______ _______ _______ _____ _____    ______ ____
ROOT
ATOM      1  C   UNL     1       6.620   4.855  15.341  0.00  0.00    +0.000 C 
ATOM      2  C   UNL     1       5.501   5.872  15.634  0.00  0.00    +0.000 C 
ATOM      3  C   UNL     1       5.446   5.891  17.128  0.00  0.00    +0.000 C 
ATOM      4  C   UNL     1       6.525   5.311  17.671  0.00  0.00    +0.000 C 
ATOM      5  C   UNL     1       7.474   4.820  16.624  0.00  0.00    +0.000 C 
ENDROOT
BRANCH   4   6
ATOM      6  C   UNL     1       6.722   5.199  19.132  0.00  0.00    +0.000 C 
ATOM      7  O   UNL     1       5.816   4.876  19.895  0.00  0.00    +0.000 OA
ATOM      8  N   UNL     1       7.983   5.479  19.577  0.00  0.00    +0.000 N 
ATOM      9  H   UNL     1       8.782   5.713  19.002  0.00  0.00    +0.000 HD
BRANCH   8  10
ATOM     10  O   UNL     1       8.207   5.370  20.967  0.00  0.00    +0.000 OA
ATOM     11  H   UNL     1       7.295   5.259  21.315  0.00  0.00    +0.000 HD
ENDBRANCH   8  10
ENDBRANCH   4   6
BRANCH   1  12
ATOM     12  N   UNL     1       6.082   3.519  15.042  0.00  0.00    +0.000 NA
ATOM     13  H   UNL     1       5.502   3.205  15.822  0.00  0.00    +0.000 HD
ATOM     14  H   UNL     1       6.850   2.848  14.990  0.00  0.00    +0.000 HD
ENDBRANCH   1  12
TORSDOF 3
ENDMDL
MODEL 6
REMARK VINA RESULT:      -5.1      3.737      4.801
REMARK  Name = 
REMARK  3 active torsions:
REMARK  status: ('A' for Active; 'I' for Inactive)
REMARK    1  A    between atoms: N_1  and  C_2
REMARK    2  A    between atoms: C_5  and  C_6
REMARK    3  A    between atoms: N_8  and  O_9
REMARK                            x       y       z     vdW  Elec       q    Type
REMARK                         _______ _______ _______ _____ _____    ______ ____
ROOT
ATOM      1  C   UNL     1       4.561   4.209  18.014  0.00  0.00    +0.000 C 
ATOM      2  C   UNL     1       4.533   5.741  17.862  0.00  0.00    +0.000 C 
ATOM      3  C   UNL     1       5.356   5.973  16.636  0.00  0.00    +0.000 C 
ATOM      4  C   UNL     1       5.551   4.840  15.949  0.00  0.00    +0.000 C 
ATOM      5  C   UNL     1       4.883   3.674  16.605  0.00  0.00    +0.000 C 
ENDROOT
BRANCH   4   6
ATOM      6  C   UNL     1       6.330   4.791  14.693  0.00  0.00    +0.000 C 
ATOM      7  O   UNL     1       5.974   4.128  13.723  0.00  0.00    +0.000 OA
ATOM      8  N   UNL     1       7.475   5.537  14.683  0.00  0.00    +0.000 N 
ATOM      9  H   UNL     1       7.806   6.134  15.429  0.00  0.00    +0.000 HD
BRANCH   8  10
ATOM     10  O   UNL     1       8.235   5.522  13.493  0.00  0.00    +0.000 OA
ATOM     11  H   UNL     1       7.702   6.096  12.900  0.00  0.00    +0.000 HD
ENDBRANCH   8  10
ENDBRANCH   4   6
BRANCH   1  12
ATOM     12  N   UNL     1       5.584   3.772  18.978  0.00  0.00    +0.000 NA
ATOM     13  H   UNL     1       5.901   2.833  18.733  0.00  0.00    +0.000 HD
ATOM     14  H   UNL     1       5.161   3.682  19.903  0.00  0.00    +0.000 HD
ENDBRANCH   1  12
TORSDOF 3
ENDMDL
MODEL 7
REMARK VINA RESULT:      -5.1      3.083      4.898
REMARK  Name = 
REMARK  3 active torsions:
REMARK  status: ('A' for Active; 'I' for Inactive)
REMARK    1  A    between atoms: N_1  and  C_2
REMARK    2  A    between atoms: C_5  and  C_6
REMARK    3  A    between atoms: N_8  and  O_9
REMARK                            x       y       z     vdW  Elec       q    Type
REMARK                         _______ _______ _______ _____ _____    ______ ____
ROOT
ATOM      1  C   UNL     1       5.155   6.426  16.158  0.00  0.00    +0.000 C 
ATOM      2  C   UNL     1       5.562   5.270  15.225  0.00  0.00    +0.000 C 
ATOM      3  C   UNL     1       5.367   4.060  16.082  0.00  0.00    +0.000 C 
ATOM      4  C   UNL     1       4.648   4.340  17.177  0.00  0.00    +0.000 C 
ATOM      5  C   UNL     1       4.243   5.779  17.220  0.00  0.00    +0.000 C 
ENDROOT
BRANCH   4   6
ATOM      6  C   UNL     1       4.308   3.319  18.192  0.00  0.00    +0.000 C 
ATOM      7  O   UNL     1       3.212   2.765  18.226  0.00  0.00    +0.000 OA
ATOM      8  N   UNL     1       5.297   3.032  19.089  0.00  0.00    +0.000 N 
ATOM      9  H   UNL     1       6.230   3.421  19.095  0.00  0.00    +0.000 HD
BRANCH   8  10
ATOM     10  O   UNL     1       5.007   2.052  20.064  0.00  0.00    +0.000 OA
ATOM     11  H   UNL     1       5.122   1.217  19.558  0.00  0.00    +0.000 HD
ENDBRANCH   8  10
ENDBRANCH   4   6
BRANCH   1  12
ATOM     12  N   UNL     1       6.323   7.053  16.795  0.00  0.00    +0.000 NA
ATOM     13  H   UNL     1       6.513   6.592  17.685  0.00  0.00    +0.000 HD
ATOM     14  H   UNL     1       6.100   8.021  17.035  0.00  0.00    +0.000 HD
ENDBRANCH   1  12
TORSDOF 3
ENDMDL
MODEL 8
REMARK VINA RESULT:      -5.1      2.850      3.849
REMARK  Name = 
REMARK  3 active torsions:
REMARK  status: ('A' for Active; 'I' for Inactive)
REMARK    1  A    between atoms: N_1  and  C_2
REMARK    2  A    between atoms: C_5  and  C_6
REMARK    3  A    between atoms: N_8  and  O_9
REMARK                            x       y       z     vdW  Elec       q    Type
REMARK                         _______ _______ _______ _____ _____    ______ ____
ROOT
ATOM      1  C   UNL     1       3.776   3.372  18.166  0.00  0.00    +0.000 C 
ATOM      2  C   UNL     1       4.376   4.300  19.239  0.00  0.00    +0.000 C 
ATOM      3  C   UNL     1       5.702   4.673  18.658  0.00  0.00    +0.000 C 
ATOM      4  C   UNL     1       5.777   4.363  17.356  0.00  0.00    +0.000 C 
ATOM      5  C   UNL     1       4.510   3.742  16.862  0.00  0.00    +0.000 C 
ENDROOT
BRANCH   4   6
ATOM      6  C   UNL     1       6.981   4.630  16.540  0.00  0.00    +0.000 C 
ATOM      7  O   UNL     1       8.102   4.266  16.882  0.00  0.00    +0.000 OA
ATOM      8  N   UNL     1       6.760   5.310  15.375  0.00  0.00    +0.000 N 
ATOM      9  H   UNL     1       5.862   5.605  15.015  0.00  0.00    +0.000 HD
BRANCH   8  10
ATOM     10  O   UNL     1       7.888   5.570  14.566  0.00  0.00    +0.000 OA
ATOM     11  H   UNL     1       7.540   5.398  13.664  0.00  0.00    +0.000 HD
ENDBRANCH   8  10
ENDBRANCH   4   6
BRANCH   1  12
ATOM     12  N   UNL     1       3.984   1.953  18.491  0.00  0.00    +0.000 NA
ATOM     13  H   UNL     1       3.830   1.807  19.490  0.00  0.00    +0.000 HD
ATOM     14  H   UNL     1       4.963   1.708  18.330  0.00  0.00    +0.000 HD
ENDBRANCH   1  12
TORSDOF 3
ENDMDL
MODEL 9
REMARK VINA RESULT:      -5.0      1.103      1.207
REMARK  Name = 
REMARK  3 active torsions:
REMARK  status: ('A' for Active; 'I' for Inactive)
REMARK    1  A    between atoms: N_1  and  C_2
REMARK    2  A    between atoms: C_5  and  C_6
REMARK    3  A    between atoms: N_8  and  O_9
REMARK                            x       y       z     vdW  Elec       q    Type
REMARK                         _______ _______ _______ _____ _____    ______ ____
ROOT
ATOM      1  C   UNL     1       1.378   2.949  20.792  0.00  0.00    +0.000 C 
ATOM      2  C   UNL     1       1.335   4.477  20.604  0.00  0.00    +0.000 C 
ATOM      3  C   UNL     1       2.637   4.770  19.929  0.00  0.00    +0.000 C 
ATOM      4  C   UNL     1       3.211   3.656  19.455  0.00  0.00    +0.000 C 
ATOM      5  C   UNL     1       2.378   2.445  19.733  0.00  0.00    +0.000 C 
ENDROOT
BRANCH   4   6
ATOM      6  C   UNL     1       4.505   3.666  18.740  0.00  0.00    +0.000 C 
ATOM      7  O   UNL     1       5.561   3.953  19.296  0.00  0.00    +0.000 OA
ATOM      8  N   UNL     1       4.446   3.332  17.416  0.00  0.00    +0.000 N 
ATOM      9  H   UNL     1       3.619   3.050  16.907  0.00  0.00    +0.000 HD
BRANCH   8  10
ATOM     10  O   UNL     1       5.667   3.321  16.708  0.00  0.00    +0.000 OA
ATOM     11  H   UNL     1       5.624   4.166  16.208  0.00  0.00    +0.000 HD
ENDBRANCH   8  10
ENDBRANCH   4   6
BRANCH   1  12
ATOM     12  N   UNL     1       1.823   2.575  22.143  0.00  0.00    +0.000 NA
ATOM     13  H   UNL     1       2.835   2.436  22.140  0.00  0.00    +0.000 HD
ATOM     14  H   UNL     1       1.427   1.667  22.391  0.00  0.00    +0.000 HD
ENDBRANCH   1  12
TORSDOF 3
ENDMDL
