MODEL 1
REMARK VINA RESULT:      -9.6      0.000      0.000
REMARK  Name = 
REMARK  5 active torsions:
REMARK  status: ('A' for Active; 'I' for Inactive)
REMARK    1  A    between atoms: C_2  and  C_3
REMARK    2  A    between atoms: C_2  and  C_10
REMARK    3  A    between atoms: C_6  and  O_7
REMARK    4  A    between atoms: C_14  and  O_15
REMARK    5  A    between atoms: C_19  and  C_20
REMARK                            x       y       z     vdW  Elec       q    Type
REMARK                         _______ _______ _______ _____ _____    ______ ____
ROOT
ATOM      1  C   UNL     1       2.565   6.529  18.823  0.00  0.00    +0.000 A 
ATOM      2  O   UNL     1       1.919   6.208  19.999  0.00  0.00    +0.000 OA
ATOM      3  C   UNL     1       1.942   4.848  20.084  0.00  0.00    +0.000 A 
ATOM      4  C   UNL     1       1.663   4.067  21.200  0.00  0.00    +0.000 A 
ATOM      5  C   UNL     1       1.741   2.690  20.982  0.00  0.00    +0.000 A 
ATOM      6  C   UNL     1       1.855   2.139  19.707  0.00  0.00    +0.000 A 
ATOM      7  C   UNL     1       2.224   2.953  18.632  0.00  0.00    +0.000 A 
ATOM      8  C   UNL     1       2.402   4.325  18.881  0.00  0.00    +0.000 A 
ATOM      9  C   UNL     1       3.215   5.388  18.366  0.00  0.00    +0.000 A 
ENDROOT
BRANCH   9  10
ATOM     10  C   UNL     1       4.690   5.415  18.174  0.00  0.00    +0.000 A 
ATOM     11  C   UNL     1       5.486   5.615  19.312  0.00  0.00    +0.000 A 
ATOM     12  C   UNL     1       6.871   5.502  19.252  0.00  0.00    +0.000 A 
ATOM     13  C   UNL     1       7.499   5.253  18.042  0.00  0.00    +0.000 A 
ATOM     14  C   UNL     1       6.760   5.041  16.874  0.00  0.00    +0.000 A 
ATOM     15  C   UNL     1       7.458   4.756  15.681  0.00  0.00    +0.000 A 
ATOM     16  C   UNL     1       6.788   4.433  14.508  0.00  0.00    +0.000 A 
ATOM     17  C   UNL     1       5.408   4.381  14.518  0.00  0.00    +0.000 A 
ATOM     18  C   UNL     1       4.710   4.695  15.693  0.00  0.00    +0.000 A 
ATOM     19  C   UNL     1       5.338   5.069  16.917  0.00  0.00    +0.000 A 
ENDBRANCH   9  10
BRANCH   1  21
ATOM     20  O   UNL     1       3.215   8.250  17.350  0.00  0.00    +0.000 OA
ATOM     21  C   UNL     1       2.500   7.870  18.279  0.00  0.00    +0.000 C 
BRANCH  21  22
ATOM     22  C   UNL     1       1.477   8.824  18.766  0.00  0.00    +0.000 A 
ATOM     23  C   UNL     1       0.651   9.460  17.825  0.00  0.00    +0.000 A 
ATOM     24  C   UNL     1      -0.321  10.363  18.247  0.00  0.00    +0.000 A 
ATOM     25  C   UNL     1      -0.453  10.632  19.597  0.00  0.00    +0.000 A 
ATOM     26  C   UNL     1       0.383  10.033  20.543  0.00  0.00    +0.000 A 
ATOM     27  C   UNL     1       1.363   9.134  20.130  0.00  0.00    +0.000 A 
BRANCH  25  28
ATOM     28  O   UNL     1      -1.396  11.493  20.073  0.00  0.00    +0.000 OA
ATOM     29  H   UNL     1      -0.944  12.222  20.524  0.00  0.00    +0.000 HD
ENDBRANCH  25  28
ENDBRANCH  21  22
ENDBRANCH   1  21
BRANCH   5  30
ATOM     30  O   UNL     1       1.834   1.845  22.052  0.00  0.00    +0.000 OA
ATOM     31  H   UNL     1       0.983   1.916  22.519  0.00  0.00    +0.000 HD
ENDBRANCH   5  30
TORSDOF 5
ENDMDL
MODEL 2
REMARK VINA RESULT:      -8.7      0.902      2.145
REMARK  Name = 
REMARK  5 active torsions:
REMARK  status: ('A' for Active; 'I' for Inactive)
REMARK    1  A    between atoms: C_2  and  C_3
REMARK    2  A    between atoms: C_2  and  C_10
REMARK    3  A    between atoms: C_6  and  O_7
REMARK    4  A    between atoms: C_14  and  O_15
REMARK    5  A    between atoms: C_19  and  C_20
REMARK                            x       y       z     vdW  Elec       q    Type
REMARK                         _______ _______ _______ _____ _____    ______ ____
ROOT
ATOM      1  C   UNL     1       2.703   6.423  18.514  0.00  0.00    +0.000 A 
ATOM      2  O   UNL     1       2.439   6.286  19.862  0.00  0.00    +0.000 OA
ATOM      3  C   UNL     1       2.120   4.975  20.054  0.00  0.00    +0.000 A 
ATOM      4  C   UNL     1       2.042   4.294  21.263  0.00  0.00    +0.000 A 
ATOM      5  C   UNL     1       1.665   2.954  21.154  0.00  0.00    +0.000 A 
ATOM      6  C   UNL     1       1.180   2.407  19.968  0.00  0.00    +0.000 A 
ATOM      7  C   UNL     1       1.363   3.094  18.764  0.00  0.00    +0.000 A 
ATOM      8  C   UNL     1       1.980   4.355  18.817  0.00  0.00    +0.000 A 
ATOM      9  C   UNL     1       2.822   5.149  17.970  0.00  0.00    +0.000 A 
ENDROOT
BRANCH   9  10
ATOM     10  C   UNL     1       4.089   4.758  17.297  0.00  0.00    +0.000 A 
ATOM     11  C   UNL     1       4.011   4.365  15.951  0.00  0.00    +0.000 A 
ATOM     12  C   UNL     1       5.159   4.132  15.201  0.00  0.00    +0.000 A 
ATOM     13  C   UNL     1       6.409   4.219  15.793  0.00  0.00    +0.000 A 
ATOM     14  C   UNL     1       6.552   4.610  17.129  0.00  0.00    +0.000 A 
ATOM     15  C   UNL     1       7.854   4.714  17.661  0.00  0.00    +0.000 A 
ATOM     16  C   UNL     1       8.076   5.195  18.945  0.00  0.00    +0.000 A 
ATOM     17  C   UNL     1       6.995   5.587  19.709  0.00  0.00    +0.000 A 
ATOM     18  C   UNL     1       5.697   5.454  19.196  0.00  0.00    +0.000 A 
ATOM     19  C   UNL     1       5.402   4.935  17.901  0.00  0.00    +0.000 A 
ENDBRANCH   9  10
BRANCH   1  21
ATOM     20  O   UNL     1       3.452   7.934  16.868  0.00  0.00    +0.000 OA
ATOM     21  C   UNL     1       2.820   7.732  17.906  0.00  0.00    +0.000 C 
BRANCH  21  22
ATOM     22  C   UNL     1       2.082   8.886  18.472  0.00  0.00    +0.000 A 
ATOM     23  C   UNL     1       2.260  10.149  17.884  0.00  0.00    +0.000 A 
ATOM     24  C   UNL     1       1.584  11.256  18.389  0.00  0.00    +0.000 A 
ATOM     25  C   UNL     1       0.748  11.096  19.480  0.00  0.00    +0.000 A 
ATOM     26  C   UNL     1       0.586   9.853  20.096  0.00  0.00    +0.000 A 
ATOM     27  C   UNL     1       1.264   8.742  19.602  0.00  0.00    +0.000 A 
BRANCH  25  28
ATOM     28  O   UNL     1       0.046  12.138  20.010  0.00  0.00    +0.000 OA
ATOM     29  H   UNL     1      -0.008  12.839  19.343  0.00  0.00    +0.000 HD
ENDBRANCH  25  28
ENDBRANCH  21  22
ENDBRANCH   1  21
BRANCH   5  30
ATOM     30  O   UNL     1       1.887   2.107  22.203  0.00  0.00    +0.000 OA
ATOM     31  H   UNL     1       2.191   1.271  21.807  0.00  0.00    +0.000 HD
ENDBRANCH   5  30
TORSDOF 5
ENDMDL
MODEL 3
REMARK VINA RESULT:      -8.7      4.062      7.383
REMARK  Name = 
REMARK  5 active torsions:
REMARK  status: ('A' for Active; 'I' for Inactive)
REMARK    1  A    between atoms: C_2  and  C_3
REMARK    2  A    between atoms: C_2  and  C_10
REMARK    3  A    between atoms: C_6  and  O_7
REMARK    4  A    between atoms: C_14  and  O_15
REMARK    5  A    between atoms: C_19  and  C_20
REMARK                            x       y       z     vdW  Elec       q    Type
REMARK                         _______ _______ _______ _____ _____    ______ ____
ROOT
ATOM      1  C   UNL     1       0.009  12.362  19.622  0.00  0.00    +0.000 A 
ATOM      2  O   UNL     1      -1.270  12.870  19.715  0.00  0.00    +0.000 OA
ATOM      3  C   UNL     1      -2.057  12.054  18.960  0.00  0.00    +0.000 A 
ATOM      4  C   UNL     1      -3.446  11.989  18.954  0.00  0.00    +0.000 A 
ATOM      5  C   UNL     1      -3.983  11.069  18.052  0.00  0.00    +0.000 A 
ATOM      6  C   UNL     1      -3.213  10.441  17.075  0.00  0.00    +0.000 A 
ATOM      7  C   UNL     1      -1.818  10.461  17.175  0.00  0.00    +0.000 A 
ATOM      8  C   UNL     1      -1.249  11.182  18.239  0.00  0.00    +0.000 A 
ATOM      9  C   UNL     1      -0.074  11.095  19.055  0.00  0.00    +0.000 A 
ENDROOT
BRANCH   9  10
ATOM     10  C   UNL     1       0.444   9.922  19.810  0.00  0.00    +0.000 A 
ATOM     11  C   UNL     1      -0.115   9.669  21.072  0.00  0.00    +0.000 A 
ATOM     12  C   UNL     1       0.196   8.512  21.779  0.00  0.00    +0.000 A 
ATOM     13  C   UNL     1       1.123   7.614  21.274  0.00  0.00    +0.000 A 
ATOM     14  C   UNL     1       1.711   7.809  20.020  0.00  0.00    +0.000 A 
ATOM     15  C   UNL     1       2.620   6.839  19.548  0.00  0.00    +0.000 A 
ATOM     16  C   UNL     1       3.163   6.914  18.271  0.00  0.00    +0.000 A 
ATOM     17  C   UNL     1       2.792   7.959  17.448  0.00  0.00    +0.000 A 
ATOM     18  C   UNL     1       1.915   8.943  17.925  0.00  0.00    +0.000 A 
ATOM     19  C   UNL     1       1.354   8.941  19.236  0.00  0.00    +0.000 A 
ENDBRANCH   9  10
BRANCH   1  21
ATOM     20  O   UNL     1       1.794  12.822  21.090  0.00  0.00    +0.000 OA
ATOM     21  C   UNL     1       1.150  13.125  20.084  0.00  0.00    +0.000 C 
BRANCH  21  22
ATOM     22  C   UNL     1       1.655  14.268  19.289  0.00  0.00    +0.000 A 
ATOM     23  C   UNL     1       0.934  15.473  19.314  0.00  0.00    +0.000 A 
ATOM     24  C   UNL     1       1.379  16.568  18.578  0.00  0.00    +0.000 A 
ATOM     25  C   UNL     1       2.528  16.449  17.817  0.00  0.00    +0.000 A 
ATOM     26  C   UNL     1       3.238  15.248  17.755  0.00  0.00    +0.000 A 
ATOM     27  C   UNL     1       2.797  14.145  18.482  0.00  0.00    +0.000 A 
BRANCH  25  28
ATOM     28  O   UNL     1       3.022  17.490  17.089  0.00  0.00    +0.000 OA
ATOM     29  H   UNL     1       2.565  18.299  17.364  0.00  0.00    +0.000 HD
ENDBRANCH  25  28
ENDBRANCH  21  22
ENDBRANCH   1  21
BRANCH   5  30
ATOM     30  O   UNL     1      -5.282  10.667  18.196  0.00  0.00    +0.000 OA
ATOM     31  H   UNL     1      -5.503  10.818  19.132  0.00  0.00    +0.000 HD
ENDBRANCH   5  30
TORSDOF 5
ENDMDL
MODEL 4
REMARK VINA RESULT:      -8.5      2.241      5.192
REMARK  Name = 
REMARK  5 active torsions:
REMARK  status: ('A' for Active; 'I' for Inactive)
REMARK    1  A    between atoms: C_2  and  C_3
REMARK    2  A    between atoms: C_2  and  C_10
REMARK    3  A    between atoms: C_6  and  O_7
REMARK    4  A    between atoms: C_14  and  O_15
REMARK    5  A    between atoms: C_19  and  C_20
REMARK                            x       y       z     vdW  Elec       q    Type
REMARK                         _______ _______ _______ _____ _____    ______ ____
ROOT
ATOM      1  C   UNL     1       3.154   7.419  17.962  0.00  0.00    +0.000 A 
ATOM      2  O   UNL     1       4.144   7.581  17.015  0.00  0.00    +0.000 OA
ATOM      3  C   UNL     1       5.116   6.678  17.325  0.00  0.00    +0.000 A 
ATOM      4  C   UNL     1       6.177   6.272  16.523  0.00  0.00    +0.000 A 
ATOM      5  C   UNL     1       7.036   5.347  17.119  0.00  0.00    +0.000 A 
ATOM      6  C   UNL     1       6.976   5.034  18.475  0.00  0.00    +0.000 A 
ATOM      7  C   UNL     1       5.845   5.388  19.218  0.00  0.00    +0.000 A 
ATOM      8  C   UNL     1       4.834   6.114  18.564  0.00  0.00    +0.000 A 
ATOM      9  C   UNL     1       3.408   6.237  18.648  0.00  0.00    +0.000 A 
ENDROOT
BRANCH   9  10
ATOM     10  C   UNL     1       2.385   5.157  18.648  0.00  0.00    +0.000 A 
ATOM     11  C   UNL     1       1.778   4.843  17.421  0.00  0.00    +0.000 A 
ATOM     12  C   UNL     1       0.927   3.750  17.297  0.00  0.00    +0.000 A 
ATOM     13  C   UNL     1       0.609   2.984  18.407  0.00  0.00    +0.000 A 
ATOM     14  C   UNL     1       1.185   3.244  19.655  0.00  0.00    +0.000 A 
ATOM     15  C   UNL     1       0.847   2.404  20.737  0.00  0.00    +0.000 A 
ATOM     16  C   UNL     1       1.457   2.539  21.978  0.00  0.00    +0.000 A 
ATOM     17  C   UNL     1       2.423   3.511  22.146  0.00  0.00    +0.000 A 
ATOM     18  C   UNL     1       2.738   4.369  21.083  0.00  0.00    +0.000 A 
ATOM     19  C   UNL     1       2.121   4.304  19.799  0.00  0.00    +0.000 A 
ENDBRANCH   9  10
BRANCH   1  21
ATOM     20  O   UNL     1       1.455   8.829  17.138  0.00  0.00    +0.000 OA
ATOM     21  C   UNL     1       2.087   8.388  18.100  0.00  0.00    +0.000 C 
BRANCH  21  22
ATOM     22  C   UNL     1       1.640   8.820  19.445  0.00  0.00    +0.000 A 
ATOM     23  C   UNL     1       1.664   7.884  20.492  0.00  0.00    +0.000 A 
ATOM     24  C   UNL     1       1.252   8.255  21.769  0.00  0.00    +0.000 A 
ATOM     25  C   UNL     1       0.809   9.547  21.987  0.00  0.00    +0.000 A 
ATOM     26  C   UNL     1       0.748  10.480  20.950  0.00  0.00    +0.000 A 
ATOM     27  C   UNL     1       1.152  10.116  19.667  0.00  0.00    +0.000 A 
BRANCH  25  28
ATOM     28  O   UNL     1       0.408   9.974  23.218  0.00  0.00    +0.000 OA
ATOM     29  H   UNL     1       1.139   9.843  23.839  0.00  0.00    +0.000 HD
ENDBRANCH  25  28
ENDBRANCH  21  22
ENDBRANCH   1  21
BRANCH   5  30
ATOM     30  O   UNL     1       7.891   4.623  16.335  0.00  0.00    +0.000 OA
ATOM     31  H   UNL     1       7.835   3.707  16.660  0.00  0.00    +0.000 HD
ENDBRANCH   5  30
TORSDOF 5
ENDMDL
MODEL 5
REMARK VINA RESULT:      -8.5      4.646      7.736
REMARK  Name = 
REMARK  5 active torsions:
REMARK  status: ('A' for Active; 'I' for Inactive)
REMARK    1  A    between atoms: C_2  and  C_3
REMARK    2  A    between atoms: C_2  and  C_10
REMARK    3  A    between atoms: C_6  and  O_7
REMARK    4  A    between atoms: C_14  and  O_15
REMARK    5  A    between atoms: C_19  and  C_20
REMARK                            x       y       z     vdW  Elec       q    Type
REMARK                         _______ _______ _______ _____ _____    ______ ____
ROOT
ATOM      1  C   UNL     1      -0.811  12.779  19.927  0.00  0.00    +0.000 A 
ATOM      2  O   UNL     1      -2.144  13.128  19.997  0.00  0.00    +0.000 OA
ATOM      3  C   UNL     1      -2.809  12.244  19.201  0.00  0.00    +0.000 A 
ATOM      4  C   UNL     1      -4.180  12.014  19.156  0.00  0.00    +0.000 A 
ATOM      5  C   UNL     1      -4.580  11.061  18.218  0.00  0.00    +0.000 A 
ATOM      6  C   UNL     1      -3.716  10.555  17.249  0.00  0.00    +0.000 A 
ATOM      7  C   UNL     1      -2.337  10.738  17.388  0.00  0.00    +0.000 A 
ATOM      8  C   UNL     1      -1.884  11.494  18.483  0.00  0.00    +0.000 A 
ATOM      9  C   UNL     1      -0.727  11.527  19.329  0.00  0.00    +0.000 A 
ENDROOT
BRANCH   9  10
ATOM     10  C   UNL     1      -0.091  10.405  20.071  0.00  0.00    +0.000 A 
ATOM     11  C   UNL     1      -0.557  10.142  21.368  0.00  0.00    +0.000 A 
ATOM     12  C   UNL     1      -0.131   9.023  22.075  0.00  0.00    +0.000 A 
ATOM     13  C   UNL     1       0.820   8.174  21.529  0.00  0.00    +0.000 A 
ATOM     14  C   UNL     1       1.319   8.380  20.238  0.00  0.00    +0.000 A 
ATOM     15  C   UNL     1       2.258   7.460  19.728  0.00  0.00    +0.000 A 
ATOM     16  C   UNL     1       2.718   7.543  18.419  0.00  0.00    +0.000 A 
ATOM     17  C   UNL     1       2.232   8.545  17.602  0.00  0.00    +0.000 A 
ATOM     18  C   UNL     1       1.323   9.481  18.116  0.00  0.00    +0.000 A 
ATOM     19  C   UNL     1       0.843   9.471  19.459  0.00  0.00    +0.000 A 
ENDBRANCH   9  10
BRANCH   1  21
ATOM     20  O   UNL     1       0.248  14.047  21.608  0.00  0.00    +0.000 OA
ATOM     21  C   UNL     1       0.218  13.661  20.438  0.00  0.00    +0.000 C 
BRANCH  21  22
ATOM     22  C   UNL     1       1.355  14.058  19.576  0.00  0.00    +0.000 A 
ATOM     23  C   UNL     1       1.493  15.413  19.230  0.00  0.00    +0.000 A 
ATOM     24  C   UNL     1       2.549  15.822  18.421  0.00  0.00    +0.000 A 
ATOM     25  C   UNL     1       3.449  14.880  17.956  0.00  0.00    +0.000 A 
ATOM     26  C   UNL     1       3.308  13.525  18.264  0.00  0.00    +0.000 A 
ATOM     27  C   UNL     1       2.250  13.105  19.067  0.00  0.00    +0.000 A 
BRANCH  25  28
ATOM     28  O   UNL     1       4.513  15.222  17.175  0.00  0.00    +0.000 OA
ATOM     29  H   UNL     1       5.313  15.193  17.720  0.00  0.00    +0.000 HD
ENDBRANCH  25  28
ENDBRANCH  21  22
ENDBRANCH   1  21
BRANCH   5  30
ATOM     30  O   UNL     1      -5.824  10.503  18.317  0.00  0.00    +0.000 OA
ATOM     31  H   UNL     1      -6.447  11.193  18.028  0.00  0.00    +0.000 HD
ENDBRANCH   5  30
TORSDOF 5
ENDMDL
MODEL 6
REMARK VINA RESULT:      -8.4      4.823      8.213
REMARK  Name = 
REMARK  5 active torsions:
REMARK  status: ('A' for Active; 'I' for Inactive)
REMARK    1  A    between atoms: C_2  and  C_3
REMARK    2  A    between atoms: C_2  and  C_10
REMARK    3  A    between atoms: C_6  and  O_7
REMARK    4  A    between atoms: C_14  and  O_15
REMARK    5  A    between atoms: C_19  and  C_20
REMARK                            x       y       z     vdW  Elec       q    Type
REMARK                         _______ _______ _______ _____ _____    ______ ____
ROOT
ATOM      1  C   UNL     1      -0.953  12.536  19.469  0.00  0.00    +0.000 A 
ATOM      2  O   UNL     1      -0.348  13.280  18.477  0.00  0.00    +0.000 OA
ATOM      3  C   UNL     1       0.809  13.759  19.016  0.00  0.00    +0.000 A 
ATOM      4  C   UNL     1       1.882  14.328  18.340  0.00  0.00    +0.000 A 
ATOM      5  C   UNL     1       2.928  14.755  19.162  0.00  0.00    +0.000 A 
ATOM      6  C   UNL     1       2.811  14.823  20.548  0.00  0.00    +0.000 A 
ATOM      7  C   UNL     1       1.760  14.158  21.188  0.00  0.00    +0.000 A 
ATOM      8  C   UNL     1       0.818  13.495  20.381  0.00  0.00    +0.000 A 
ATOM      9  C   UNL     1      -0.023  12.339  20.484  0.00  0.00    +0.000 A 
ENDROOT
BRANCH   9  10
ATOM     10  C   UNL     1       0.353  10.953  20.871  0.00  0.00    +0.000 A 
ATOM     11  C   UNL     1      -0.102  10.484  22.113  0.00  0.00    +0.000 A 
ATOM     12  C   UNL     1       0.070   9.156  22.489  0.00  0.00    +0.000 A 
ATOM     13  C   UNL     1       0.758   8.280  21.663  0.00  0.00    +0.000 A 
ATOM     14  C   UNL     1       1.230   8.687  20.411  0.00  0.00    +0.000 A 
ATOM     15  C   UNL     1       1.891   7.738  19.603  0.00  0.00    +0.000 A 
ATOM     16  C   UNL     1       2.294   8.042  18.309  0.00  0.00    +0.000 A 
ATOM     17  C   UNL     1       2.031   9.300  17.805  0.00  0.00    +0.000 A 
ATOM     18  C   UNL     1       1.404  10.257  18.616  0.00  0.00    +0.000 A 
ATOM     19  C   UNL     1       1.000  10.017  19.962  0.00  0.00    +0.000 A 
ENDBRANCH   9  10
BRANCH   1  21
ATOM     20  O   UNL     1      -3.166  12.249  20.224  0.00  0.00    +0.000 OA
ATOM     21  C   UNL     1      -2.326  12.094  19.337  0.00  0.00    +0.000 C 
BRANCH  21  22
ATOM     22  C   UNL     1      -2.804  11.515  18.060  0.00  0.00    +0.000 A 
ATOM     23  C   UNL     1      -4.100  11.834  17.622  0.00  0.00    +0.000 A 
ATOM     24  C   UNL     1      -4.582  11.308  16.427  0.00  0.00    +0.000 A 
ATOM     25  C   UNL     1      -3.775  10.461  15.687  0.00  0.00    +0.000 A 
ATOM     26  C   UNL     1      -2.497  10.108  16.125  0.00  0.00    +0.000 A 
ATOM     27  C   UNL     1      -2.008  10.624  17.323  0.00  0.00    +0.000 A 
BRANCH  25  28
ATOM     28  O   UNL     1      -4.185   9.928  14.501  0.00  0.00    +0.000 OA
ATOM     29  H   UNL     1      -5.124  10.133  14.383  0.00  0.00    +0.000 HD
ENDBRANCH  25  28
ENDBRANCH  21  22
ENDBRANCH   1  21
BRANCH   5  30
ATOM     30  O   UNL     1       4.155  15.001  18.613  0.00  0.00    +0.000 OA
ATOM     31  H   UNL     1       4.690  15.391  19.327  0.00  0.00    +0.000 HD
ENDBRANCH   5  30
TORSDOF 5
ENDMDL
MODEL 7
REMARK VINA RESULT:      -8.4      4.568      7.834
REMARK  Name = 
REMARK  5 active torsions:
REMARK  status: ('A' for Active; 'I' for Inactive)
REMARK    1  A    between atoms: C_2  and  C_3
REMARK    2  A    between atoms: C_2  and  C_10
REMARK    3  A    between atoms: C_6  and  O_7
REMARK    4  A    between atoms: C_14  and  O_15
REMARK    5  A    between atoms: C_19  and  C_20
REMARK                            x       y       z     vdW  Elec       q    Type
REMARK                         _______ _______ _______ _____ _____    ______ ____
ROOT
ATOM      1  C   UNL     1      -0.612  12.814  20.068  0.00  0.00    +0.000 A 
ATOM      2  O   UNL     1      -1.941  13.179  20.132  0.00  0.00    +0.000 OA
ATOM      3  C   UNL     1      -2.606  12.333  19.295  0.00  0.00    +0.000 A 
ATOM      4  C   UNL     1      -3.978  12.124  19.223  0.00  0.00    +0.000 A 
ATOM      5  C   UNL     1      -4.378  11.211  18.245  0.00  0.00    +0.000 A 
ATOM      6  C   UNL     1      -3.507  10.729  17.270  0.00  0.00    +0.000 A 
ATOM      7  C   UNL     1      -2.127  10.888  17.435  0.00  0.00    +0.000 A 
ATOM      8  C   UNL     1      -1.681  11.597  18.563  0.00  0.00    +0.000 A 
ATOM      9  C   UNL     1      -0.536  11.584  19.426  0.00  0.00    +0.000 A 
ENDROOT
BRANCH   9  10
ATOM     10  C   UNL     1       0.075  10.426  20.135  0.00  0.00    +0.000 A 
ATOM     11  C   UNL     1      -0.349  10.178  21.449  0.00  0.00    +0.000 A 
ATOM     12  C   UNL     1       0.051   9.034  22.131  0.00  0.00    +0.000 A 
ATOM     13  C   UNL     1       0.936   8.144  21.542  0.00  0.00    +0.000 A 
ATOM     14  C   UNL     1       1.390   8.335  20.233  0.00  0.00    +0.000 A 
ATOM     15  C   UNL     1       2.262   7.374  19.680  0.00  0.00    +0.000 A 
ATOM     16  C   UNL     1       2.670   7.443  18.354  0.00  0.00    +0.000 A 
ATOM     17  C   UNL     1       2.201   8.473  17.563  0.00  0.00    +0.000 A 
ATOM     18  C   UNL     1       1.361   9.449  18.118  0.00  0.00    +0.000 A 
ATOM     19  C   UNL     1       0.936   9.453  19.480  0.00  0.00    +0.000 A 
ENDBRANCH   9  10
BRANCH   1  21
ATOM     20  O   UNL     1       0.835  13.542  21.780  0.00  0.00    +0.000 OA
ATOM     21  C   UNL     1       0.422  13.662  20.626  0.00  0.00    +0.000 C 
BRANCH  21  22
ATOM     22  C   UNL     1       1.104  14.665  19.775  0.00  0.00    +0.000 A 
ATOM     23  C   UNL     1       2.473  14.498  19.508  0.00  0.00    +0.000 A 
ATOM     24  C   UNL     1       3.146  15.421  18.713  0.00  0.00    +0.000 A 
ATOM     25  C   UNL     1       2.454  16.505  18.202  0.00  0.00    +0.000 A 
ATOM     26  C   UNL     1       1.101  16.703  18.485  0.00  0.00    +0.000 A 
ATOM     27  C   UNL     1       0.421  15.788  19.286  0.00  0.00    +0.000 A 
BRANCH  25  28
ATOM     28  O   UNL     1       3.055  17.432  17.404  0.00  0.00    +0.000 OA
ATOM     29  H   UNL     1       2.786  17.266  16.488  0.00  0.00    +0.000 HD
ENDBRANCH  25  28
ENDBRANCH  21  22
ENDBRANCH   1  21
BRANCH   5  30
ATOM     30  O   UNL     1      -5.630  10.666  18.306  0.00  0.00    +0.000 OA
ATOM     31  H   UNL     1      -6.107  11.014  17.531  0.00  0.00    +0.000 HD
ENDBRANCH   5  30
TORSDOF 5
ENDMDL
MODEL 8
REMARK VINA RESULT:      -8.3      2.381      6.373
REMARK  Name = 
REMARK  5 active torsions:
REMARK  status: ('A' for Active; 'I' for Inactive)
REMARK    1  A    between atoms: C_2  and  C_3
REMARK    2  A    between atoms: C_2  and  C_10
REMARK    3  A    between atoms: C_6  and  O_7
REMARK    4  A    between atoms: C_14  and  O_15
REMARK    5  A    between atoms: C_19  and  C_20
REMARK                            x       y       z     vdW  Elec       q    Type
REMARK                         _______ _______ _______ _____ _____    ______ ____
ROOT
ATOM      1  C   UNL     1       3.524   7.848  17.396  0.00  0.00    +0.000 A 
ATOM      2  O   UNL     1       3.582   9.209  17.615  0.00  0.00    +0.000 OA
ATOM      3  C   UNL     1       2.306   9.603  17.885  0.00  0.00    +0.000 A 
ATOM      4  C   UNL     1       1.894  10.814  18.430  0.00  0.00    +0.000 A 
ATOM      5  C   UNL     1       0.511  10.950  18.570  0.00  0.00    +0.000 A 
ATOM      6  C   UNL     1      -0.391  10.055  17.998  0.00  0.00    +0.000 A 
ATOM      7  C   UNL     1       0.062   8.811  17.544  0.00  0.00    +0.000 A 
ATOM      8  C   UNL     1       1.439   8.546  17.628  0.00  0.00    +0.000 A 
ATOM      9  C   UNL     1       2.278   7.399  17.818  0.00  0.00    +0.000 A 
ENDROOT
BRANCH   9  10
ATOM     10  C   UNL     1       2.197   6.359  18.879  0.00  0.00    +0.000 A 
ATOM     11  C   UNL     1       1.890   6.787  20.180  0.00  0.00    +0.000 A 
ATOM     12  C   UNL     1       1.644   5.874  21.200  0.00  0.00    +0.000 A 
ATOM     13  C   UNL     1       1.761   4.514  20.961  0.00  0.00    +0.000 A 
ATOM     14  C   UNL     1       2.059   4.026  19.685  0.00  0.00    +0.000 A 
ATOM     15  C   UNL     1       2.129   2.628  19.501  0.00  0.00    +0.000 A 
ATOM     16  C   UNL     1       2.317   2.071  18.242  0.00  0.00    +0.000 A 
ATOM     17  C   UNL     1       2.428   2.908  17.150  0.00  0.00    +0.000 A 
ATOM     18  C   UNL     1       2.392   4.298  17.333  0.00  0.00    +0.000 A 
ATOM     19  C   UNL     1       2.237   4.930  18.602  0.00  0.00    +0.000 A 
ENDBRANCH   9  10
BRANCH   1  21
ATOM     20  O   UNL     1       4.809   6.996  15.614  0.00  0.00    +0.000 OA
ATOM     21  C   UNL     1       4.650   7.136  16.827  0.00  0.00    +0.000 C 
BRANCH  21  22
ATOM     22  C   UNL     1       5.728   6.622  17.704  0.00  0.00    +0.000 A 
ATOM     23  C   UNL     1       6.991   7.234  17.642  0.00  0.00    +0.000 A 
ATOM     24  C   UNL     1       8.028   6.777  18.451  0.00  0.00    +0.000 A 
ATOM     25  C   UNL     1       7.801   5.711  19.303  0.00  0.00    +0.000 A 
ATOM     26  C   UNL     1       6.560   5.071  19.352  0.00  0.00    +0.000 A 
ATOM     27  C   UNL     1       5.519   5.516  18.541  0.00  0.00    +0.000 A 
BRANCH  25  28
ATOM     28  O   UNL     1       8.771   5.230  20.131  0.00  0.00    +0.000 OA
ATOM     29  H   UNL     1       9.585   5.730  19.970  0.00  0.00    +0.000 HD
ENDBRANCH  25  28
ENDBRANCH  21  22
ENDBRANCH   1  21
BRANCH   5  30
ATOM     30  O   UNL     1       0.011  11.919  19.394  0.00  0.00    +0.000 OA
ATOM     31  H   UNL     1       0.602  11.937  20.168  0.00  0.00    +0.000 HD
ENDBRANCH   5  30
TORSDOF 5
ENDMDL
MODEL 9
REMARK VINA RESULT:      -8.3      3.618      9.476
REMARK  Name = 
REMARK  5 active torsions:
REMARK  status: ('A' for Active; 'I' for Inactive)
REMARK    1  A    between atoms: C_2  and  C_3
REMARK    2  A    between atoms: C_2  and  C_10
REMARK    3  A    between atoms: C_6  and  O_7
REMARK    4  A    between atoms: C_14  and  O_15
REMARK    5  A    between atoms: C_19  and  C_20
REMARK                            x       y       z     vdW  Elec       q    Type
REMARK                         _______ _______ _______ _____ _____    ______ ____
ROOT
ATOM      1  C   UNL     1       0.359  11.155  20.557  0.00  0.00    +0.000 A 
ATOM      2  O   UNL     1       1.096  11.949  21.413  0.00  0.00    +0.000 OA
ATOM      3  C   UNL     1       1.139  13.184  20.839  0.00  0.00    +0.000 A 
ATOM      4  C   UNL     1       1.526  14.379  21.437  0.00  0.00    +0.000 A 
ATOM      5  C   UNL     1       1.494  15.490  20.591  0.00  0.00    +0.000 A 
ATOM      6  C   UNL     1       1.319  15.378  19.214  0.00  0.00    +0.000 A 
ATOM      7  C   UNL     1       0.843  14.180  18.672  0.00  0.00    +0.000 A 
ATOM      8  C   UNL     1       0.622  13.106  19.551  0.00  0.00    +0.000 A 
ATOM      9  C   UNL     1      -0.270  11.987  19.637  0.00  0.00    +0.000 A 
ENDROOT
BRANCH   9  10
ATOM     10  C   UNL     1      -1.754  11.976  19.537  0.00  0.00    +0.000 A 
ATOM     11  C   UNL     1      -2.476  12.549  20.596  0.00  0.00    +0.000 A 
ATOM     12  C   UNL     1      -3.854  12.721  20.518  0.00  0.00    +0.000 A 
ATOM     13  C   UNL     1      -4.553  12.265  19.411  0.00  0.00    +0.000 A 
ATOM     14  C   UNL     1      -3.888  11.691  18.322  0.00  0.00    +0.000 A 
ATOM     15  C   UNL     1      -4.654  11.281  17.210  0.00  0.00    +0.000 A 
ATOM     16  C   UNL     1      -4.053  10.798  16.054  0.00  0.00    +0.000 A 
ATOM     17  C   UNL     1      -2.676  10.730  15.995  0.00  0.00    +0.000 A 
ATOM     18  C   UNL     1      -1.912  11.106  17.110  0.00  0.00    +0.000 A 
ATOM     19  C   UNL     1      -2.471  11.574  18.335  0.00  0.00    +0.000 A 
ENDBRANCH   9  10
BRANCH   1  21
ATOM     20  O   UNL     1      -0.461   9.143  21.468  0.00  0.00    +0.000 OA
ATOM     21  C   UNL     1       0.328   9.716  20.716  0.00  0.00    +0.000 C 
BRANCH  21  22
ATOM     22  C   UNL     1       1.200   8.855  19.884  0.00  0.00    +0.000 A 
ATOM     23  C   UNL     1       1.479   9.257  18.567  0.00  0.00    +0.000 A 
ATOM     24  C   UNL     1       2.294   8.472  17.756  0.00  0.00    +0.000 A 
ATOM     25  C   UNL     1       2.813   7.292  18.259  0.00  0.00    +0.000 A 
ATOM     26  C   UNL     1       2.519   6.863  19.555  0.00  0.00    +0.000 A 
ATOM     27  C   UNL     1       1.698   7.638  20.371  0.00  0.00    +0.000 A 
BRANCH  25  28
ATOM     28  O   UNL     1       3.630   6.491  17.519  0.00  0.00    +0.000 OA
ATOM     29  H   UNL     1       4.491   6.928  17.435  0.00  0.00    +0.000 HD
ENDBRANCH  25  28
ENDBRANCH  21  22
ENDBRANCH   1  21
BRANCH   5  30
ATOM     30  O   UNL     1       1.511  16.745  21.132  0.00  0.00    +0.000 OA
ATOM     31  H   UNL     1       2.449  17.001  21.178  0.00  0.00    +0.000 HD
ENDBRANCH   5  30
TORSDOF 5
ENDMDL
