MODEL 1
REMARK VINA RESULT:      -8.3      0.000      0.000
REMARK  Name = 
REMARK  7 active torsions:
REMARK  status: ('A' for Active; 'I' for Inactive)
REMARK    1  A    between atoms: C_1  and  C_2
REMARK    2  A    between atoms: C_2  and  N_3
REMARK    3  A    between atoms: C_4  and  S_5
REMARK    4  A    between atoms: S_5  and  C_6
REMARK    5  A    between atoms: C_6  and  C_7
REMARK    6  A    between atoms: N_9  and  N_10
REMARK    7  A    between atoms: C_11  and  C_12
REMARK                            x       y       z     vdW  Elec       q    Type
REMARK                         _______ _______ _______ _____ _____    ______ ____
ROOT
ATOM      1  C   UNL     1       7.873   6.111  18.936  0.00  0.00    +0.000 C 
ENDROOT
BRANCH   1   2
ATOM      2  C   UNL     1       8.039   7.446  18.192  0.00  0.00    +0.000 C 
ATOM      3  O   UNL     1       7.690   7.620  17.024  0.00  0.00    +0.000 OA
ATOM      4  N   UNL     1       8.628   8.454  18.967  0.00  0.00    +0.000 N 
ATOM      5  H   UNL     1       8.925   8.290  19.921  0.00  0.00    +0.000 HD
BRANCH   4   6
ATOM      6  N   UNL     1       8.858   9.674  18.382  0.00  0.00    +0.000 NA
ATOM      7  C   UNL     1       9.583  10.532  19.024  0.00  0.00    +0.000 C 
BRANCH   7   8
ATOM      8  C   UNL     1       9.898  11.857  18.432  0.00  0.00    +0.000 A 
ATOM      9  C   UNL     1      11.033  12.022  17.638  0.00  0.00    +0.000 A 
ATOM     10  C   UNL     1      11.298  13.283  17.133  0.00  0.00    +0.000 A 
ATOM     11  N   UNL     1      10.516  14.361  17.364  0.00  0.00    +0.000 NA
ATOM     12  C   UNL     1       9.421  14.170  18.130  0.00  0.00    +0.000 A 
ATOM     13  C   UNL     1       9.068  12.947  18.682  0.00  0.00    +0.000 A 
ENDBRANCH   7   8
ENDBRANCH   4   6
ENDBRANCH   1   2
BRANCH   1  14
ATOM     14  S   UNL     1       7.545   4.748  17.763  0.00  0.00    +0.000 S 
BRANCH  14  16
ATOM     15  N   UNL     1       4.949   4.154  17.151  0.00  0.00    +0.000 N 
ATOM     16  C   UNL     1       5.916   4.281  18.122  0.00  0.00    +0.000 A 
ATOM     17  N   UNL     1       5.446   4.007  19.318  0.00  0.00    +0.000 NA
ATOM     18  C   UNL     1       4.119   3.688  19.120  0.00  0.00    +0.000 A 
ATOM     19  C   UNL     1       3.140   3.305  20.049  0.00  0.00    +0.000 A 
ATOM     20  C   UNL     1       1.841   3.029  19.595  0.00  0.00    +0.000 A 
ATOM     21  C   UNL     1       1.518   3.139  18.242  0.00  0.00    +0.000 A 
ATOM     22  C   UNL     1       2.480   3.520  17.301  0.00  0.00    +0.000 A 
ATOM     23  C   UNL     1       3.774   3.782  17.774  0.00  0.00    +0.000 A 
BRANCH  15  25
ATOM     24  C   UNL     1       5.258   5.765  15.292  0.00  0.00    +0.000 C 
ATOM     25  C   UNL     1       5.084   4.315  15.712  0.00  0.00    +0.000 C 
ENDBRANCH  15  25
ENDBRANCH  14  16
ENDBRANCH   1  14
TORSDOF 6
ENDMDL
MODEL 2
REMARK VINA RESULT:      -8.0      1.392      1.624
REMARK  Name = 
REMARK  7 active torsions:
REMARK  status: ('A' for Active; 'I' for Inactive)
REMARK    1  A    between atoms: C_1  and  C_2
REMARK    2  A    between atoms: C_2  and  N_3
REMARK    3  A    between atoms: C_4  and  S_5
REMARK    4  A    between atoms: S_5  and  C_6
REMARK    5  A    between atoms: C_6  and  C_7
REMARK    6  A    between atoms: N_9  and  N_10
REMARK    7  A    between atoms: C_11  and  C_12
REMARK                            x       y       z     vdW  Elec       q    Type
REMARK                         _______ _______ _______ _____ _____    ______ ____
ROOT
ATOM      1  C   UNL     1       7.367   5.577  18.275  0.00  0.00    +0.000 C 
ENDROOT
BRANCH   1   2
ATOM      2  C   UNL     1       7.568   7.013  17.764  0.00  0.00    +0.000 C 
ATOM      3  O   UNL     1       7.108   7.426  16.699  0.00  0.00    +0.000 OA
ATOM      4  N   UNL     1       8.330   7.815  18.624  0.00  0.00    +0.000 N 
ATOM      5  H   UNL     1       8.716   7.456  19.489  0.00  0.00    +0.000 HD
BRANCH   4   6
ATOM      6  N   UNL     1       8.602   9.104  18.240  0.00  0.00    +0.000 NA
ATOM      7  C   UNL     1       9.194   9.882  19.090  0.00  0.00    +0.000 C 
BRANCH   7   8
ATOM      8  C   UNL     1       9.548  11.277  18.725  0.00  0.00    +0.000 A 
ATOM      9  C   UNL     1      10.447  11.528  17.688  0.00  0.00    +0.000 A 
ATOM     10  C   UNL     1      10.767  12.845  17.406  0.00  0.00    +0.000 A 
ATOM     11  N   UNL     1      10.253  13.899  18.077  0.00  0.00    +0.000 NA
ATOM     12  C   UNL     1       9.381  13.627  19.070  0.00  0.00    +0.000 A 
ATOM     13  C   UNL     1       8.995  12.344  19.430  0.00  0.00    +0.000 A 
ENDBRANCH   7   8
ENDBRANCH   4   6
ENDBRANCH   1   2
BRANCH   1  14
ATOM     14  S   UNL     1       6.156   4.682  17.239  0.00  0.00    +0.000 S 
BRANCH  14  16
ATOM     15  N   UNL     1       3.670   4.831  18.365  0.00  0.00    +0.000 N 
ATOM     16  C   UNL     1       4.910   4.234  18.356  0.00  0.00    +0.000 A 
ATOM     17  N   UNL     1       5.012   3.308  19.283  0.00  0.00    +0.000 NA
ATOM     18  C   UNL     1       3.791   3.301  19.922  0.00  0.00    +0.000 A 
ATOM     19  C   UNL     1       3.338   2.502  20.984  0.00  0.00    +0.000 A 
ATOM     20  C   UNL     1       2.034   2.686  21.467  0.00  0.00    +0.000 A 
ATOM     21  C   UNL     1       1.195   3.653  20.910  0.00  0.00    +0.000 A 
ATOM     22  C   UNL     1       1.628   4.459  19.852  0.00  0.00    +0.000 A 
ATOM     23  C   UNL     1       2.932   4.252  19.377  0.00  0.00    +0.000 A 
BRANCH  15  25
ATOM     24  C   UNL     1       3.367   7.263  17.990  0.00  0.00    +0.000 C 
ATOM     25  C   UNL     1       3.151   5.852  17.470  0.00  0.00    +0.000 C 
ENDBRANCH  15  25
ENDBRANCH  14  16
ENDBRANCH   1  14
TORSDOF 6
ENDMDL
MODEL 3
REMARK VINA RESULT:      -8.0      2.216      2.755
REMARK  Name = 
REMARK  7 active torsions:
REMARK  status: ('A' for Active; 'I' for Inactive)
REMARK    1  A    between atoms: C_1  and  C_2
REMARK    2  A    between atoms: C_2  and  N_3
REMARK    3  A    between atoms: C_4  and  S_5
REMARK    4  A    between atoms: S_5  and  C_6
REMARK    5  A    between atoms: C_6  and  C_7
REMARK    6  A    between atoms: N_9  and  N_10
REMARK    7  A    between atoms: C_11  and  C_12
REMARK                            x       y       z     vdW  Elec       q    Type
REMARK                         _______ _______ _______ _____ _____    ______ ____
ROOT
ATOM      1  C   UNL     1       6.315   6.171  16.881  0.00  0.00    +0.000 C 
ENDROOT
BRANCH   1   2
ATOM      2  C   UNL     1       7.384   6.830  17.767  0.00  0.00    +0.000 C 
ATOM      3  O   UNL     1       7.967   6.243  18.679  0.00  0.00    +0.000 OA
ATOM      4  N   UNL     1       7.637   8.170  17.443  0.00  0.00    +0.000 N 
ATOM      5  H   UNL     1       7.137   8.644  16.701  0.00  0.00    +0.000 HD
BRANCH   4   6
ATOM      6  N   UNL     1       8.547   8.862  18.202  0.00  0.00    +0.000 NA
ATOM      7  C   UNL     1       8.666  10.135  18.001  0.00  0.00    +0.000 C 
BRANCH   7   8
ATOM      8  C   UNL     1       9.608  10.948  18.812  0.00  0.00    +0.000 A 
ATOM      9  C   UNL     1      10.755  11.487  18.230  0.00  0.00    +0.000 A 
ATOM     10  C   UNL     1      11.616  12.212  19.035  0.00  0.00    +0.000 A 
ATOM     11  N   UNL     1      11.404  12.429  20.352  0.00  0.00    +0.000 NA
ATOM     12  C   UNL     1      10.283  11.902  20.886  0.00  0.00    +0.000 A 
ATOM     13  C   UNL     1       9.358  11.161  20.166  0.00  0.00    +0.000 A 
ENDBRANCH   7   8
ENDBRANCH   4   6
ENDBRANCH   1   2
BRANCH   1  14
ATOM     14  S   UNL     1       4.693   6.983  17.107  0.00  0.00    +0.000 S 
BRANCH  14  16
ATOM     15  N   UNL     1       2.811   5.910  18.774  0.00  0.00    +0.000 N 
ATOM     16  C   UNL     1       3.683   5.719  17.727  0.00  0.00    +0.000 A 
ATOM     17  N   UNL     1       3.644   4.485  17.278  0.00  0.00    +0.000 NA
ATOM     18  C   UNL     1       2.708   3.845  18.064  0.00  0.00    +0.000 A 
ATOM     19  C   UNL     1       2.256   2.517  18.020  0.00  0.00    +0.000 A 
ATOM     20  C   UNL     1       1.283   2.098  18.940  0.00  0.00    +0.000 A 
ATOM     21  C   UNL     1       0.773   2.981  19.893  0.00  0.00    +0.000 A 
ATOM     22  C   UNL     1       1.211   4.307  19.953  0.00  0.00    +0.000 A 
ATOM     23  C   UNL     1       2.176   4.709  19.018  0.00  0.00    +0.000 A 
BRANCH  15  25
ATOM     24  C   UNL     1       1.777   8.161  18.659  0.00  0.00    +0.000 C 
ATOM     25  C   UNL     1       2.523   7.137  19.499  0.00  0.00    +0.000 C 
ENDBRANCH  15  25
ENDBRANCH  14  16
ENDBRANCH   1  14
TORSDOF 6
ENDMDL
MODEL 4
REMARK VINA RESULT:      -7.9      2.009      2.582
REMARK  Name = 
REMARK  7 active torsions:
REMARK  status: ('A' for Active; 'I' for Inactive)
REMARK    1  A    between atoms: C_1  and  C_2
REMARK    2  A    between atoms: C_2  and  N_3
REMARK    3  A    between atoms: C_4  and  S_5
REMARK    4  A    between atoms: S_5  and  C_6
REMARK    5  A    between atoms: C_6  and  C_7
REMARK    6  A    between atoms: N_9  and  N_10
REMARK    7  A    between atoms: C_11  and  C_12
REMARK                            x       y       z     vdW  Elec       q    Type
REMARK                         _______ _______ _______ _____ _____    ______ ____
ROOT
ATOM      1  C   UNL     1       6.892   5.091  16.656  0.00  0.00    +0.000 C 
ENDROOT
BRANCH   1   2
ATOM      2  C   UNL     1       7.341   6.125  17.701  0.00  0.00    +0.000 C 
ATOM      3  O   UNL     1       7.496   5.862  18.894  0.00  0.00    +0.000 OA
ATOM      4  N   UNL     1       7.558   7.404  17.171  0.00  0.00    +0.000 N 
ATOM      5  H   UNL     1       7.410   7.609  16.190  0.00  0.00    +0.000 HD
BRANCH   4   6
ATOM      6  N   UNL     1       7.923   8.410  18.029  0.00  0.00    +0.000 NA
ATOM      7  C   UNL     1       8.544   9.435  17.540  0.00  0.00    +0.000 C 
BRANCH   7   8
ATOM      8  C   UNL     1       8.936  10.574  18.409  0.00  0.00    +0.000 A 
ATOM      9  C   UNL     1       8.920  11.877  17.913  0.00  0.00    +0.000 A 
ATOM     10  C   UNL     1       9.322  12.900  18.754  0.00  0.00    +0.000 A 
ATOM     11  N   UNL     1       9.726  12.706  20.029  0.00  0.00    +0.000 NA
ATOM     12  C   UNL     1       9.724  11.435  20.484  0.00  0.00    +0.000 A 
ATOM     13  C   UNL     1       9.340  10.342  19.722  0.00  0.00    +0.000 A 
ENDBRANCH   7   8
ENDBRANCH   4   6
ENDBRANCH   1   2
BRANCH   1  14
ATOM     14  S   UNL     1       5.260   5.535  15.962  0.00  0.00    +0.000 S 
BRANCH  14  16
ATOM     15  N   UNL     1       3.500   5.588  18.053  0.00  0.00    +0.000 N 
ATOM     16  C   UNL     1       4.134   4.845  17.083  0.00  0.00    +0.000 A 
ATOM     17  N   UNL     1       3.777   3.581  17.125  0.00  0.00    +0.000 NA
ATOM     18  C   UNL     1       2.875   3.495  18.164  0.00  0.00    +0.000 A 
ATOM     19  C   UNL     1       2.167   2.385  18.650  0.00  0.00    +0.000 A 
ATOM     20  C   UNL     1       1.293   2.555  19.735  0.00  0.00    +0.000 A 
ATOM     21  C   UNL     1       1.131   3.805  20.333  0.00  0.00    +0.000 A 
ATOM     22  C   UNL     1       1.828   4.923  19.864  0.00  0.00    +0.000 A 
ATOM     23  C   UNL     1       2.688   4.734  18.773  0.00  0.00    +0.000 A 
BRANCH  15  25
ATOM     24  C   UNL     1       2.323   7.763  17.893  0.00  0.00    +0.000 C 
ATOM     25  C   UNL     1       3.585   7.018  18.296  0.00  0.00    +0.000 C 
ENDBRANCH  15  25
ENDBRANCH  14  16
ENDBRANCH   1  14
TORSDOF 6
ENDMDL
MODEL 5
REMARK VINA RESULT:      -7.8      2.236      2.956
REMARK  Name = 
REMARK  7 active torsions:
REMARK  status: ('A' for Active; 'I' for Inactive)
REMARK    1  A    between atoms: C_1  and  C_2
REMARK    2  A    between atoms: C_2  and  N_3
REMARK    3  A    between atoms: C_4  and  S_5
REMARK    4  A    between atoms: S_5  and  C_6
REMARK    5  A    between atoms: C_6  and  C_7
REMARK    6  A    between atoms: N_9  and  N_10
REMARK    7  A    between atoms: C_11  and  C_12
REMARK                            x       y       z     vdW  Elec       q    Type
REMARK                         _______ _______ _______ _____ _____    ______ ____
ROOT
ATOM      1  C   UNL     1       6.312   6.107  16.813  0.00  0.00    +0.000 C 
ENDROOT
BRANCH   1   2
ATOM      2  C   UNL     1       7.352   6.763  17.735  0.00  0.00    +0.000 C 
ATOM      3  O   UNL     1       7.929   6.164  18.643  0.00  0.00    +0.000 OA
ATOM      4  N   UNL     1       7.586   8.115  17.448  0.00  0.00    +0.000 N 
ATOM      5  H   UNL     1       7.091   8.598  16.709  0.00  0.00    +0.000 HD
BRANCH   4   6
ATOM      6  N   UNL     1       8.468   8.805  18.241  0.00  0.00    +0.000 NA
ATOM      7  C   UNL     1       8.679  10.054  17.976  0.00  0.00    +0.000 C 
BRANCH   7   8
ATOM      8  C   UNL     1       9.596  10.866  18.816  0.00  0.00    +0.000 A 
ATOM      9  C   UNL     1       9.355  11.012  20.182  0.00  0.00    +0.000 A 
ATOM     10  C   UNL     1      10.223  11.803  20.916  0.00  0.00    +0.000 A 
ATOM     11  N   UNL     1      11.290  12.437  20.382  0.00  0.00    +0.000 NA
ATOM     12  C   UNL     1      11.501  12.272  19.059  0.00  0.00    +0.000 A 
ATOM     13  C   UNL     1      10.693  11.501  18.237  0.00  0.00    +0.000 A 
ENDBRANCH   7   8
ENDBRANCH   4   6
ENDBRANCH   1   2
BRANCH   1  14
ATOM     14  S   UNL     1       4.639   6.765  17.148  0.00  0.00    +0.000 S 
BRANCH  14  16
ATOM     15  N   UNL     1       2.830   5.909  19.009  0.00  0.00    +0.000 N 
ATOM     16  C   UNL     1       3.984   5.654  18.304  0.00  0.00    +0.000 A 
ATOM     17  N   UNL     1       4.502   4.489  18.621  0.00  0.00    +0.000 NA
ATOM     18  C   UNL     1       3.652   3.962  19.571  0.00  0.00    +0.000 A 
ATOM     19  C   UNL     1       3.713   2.735  20.249  0.00  0.00    +0.000 A 
ATOM     20  C   UNL     1       2.714   2.423  21.184  0.00  0.00    +0.000 A 
ATOM     21  C   UNL     1       1.675   3.318  21.446  0.00  0.00    +0.000 A 
ATOM     22  C   UNL     1       1.597   4.545  20.781  0.00  0.00    +0.000 A 
ATOM     23  C   UNL     1       2.600   4.834  19.843  0.00  0.00    +0.000 A 
BRANCH  15  25
ATOM     24  C   UNL     1       1.934   7.917  20.156  0.00  0.00    +0.000 C 
ATOM     25  C   UNL     1       1.941   7.054  18.904  0.00  0.00    +0.000 C 
ENDBRANCH  15  25
ENDBRANCH  14  16
ENDBRANCH   1  14
TORSDOF 6
ENDMDL
MODEL 6
REMARK VINA RESULT:      -7.6      1.970      2.513
REMARK  Name = 
REMARK  7 active torsions:
REMARK  status: ('A' for Active; 'I' for Inactive)
REMARK    1  A    between atoms: C_1  and  C_2
REMARK    2  A    between atoms: C_2  and  N_3
REMARK    3  A    between atoms: C_4  and  S_5
REMARK    4  A    between atoms: S_5  and  C_6
REMARK    5  A    between atoms: C_6  and  C_7
REMARK    6  A    between atoms: N_9  and  N_10
REMARK    7  A    between atoms: C_11  and  C_12
REMARK                            x       y       z     vdW  Elec       q    Type
REMARK                         _______ _______ _______ _____ _____    ______ ____
ROOT
ATOM      1  C   UNL     1       6.880   5.321  16.708  0.00  0.00    +0.000 C 
ENDROOT
BRANCH   1   2
ATOM      2  C   UNL     1       7.367   6.424  17.661  0.00  0.00    +0.000 C 
ATOM      3  O   UNL     1       7.882   6.197  18.756  0.00  0.00    +0.000 OA
ATOM      4  N   UNL     1       7.168   7.721  17.170  0.00  0.00    +0.000 N 
ATOM      5  H   UNL     1       6.727   7.892  16.274  0.00  0.00    +0.000 HD
BRANCH   4   6
ATOM      6  N   UNL     1       7.530   8.780  17.964  0.00  0.00    +0.000 NA
ATOM      7  C   UNL     1       8.612   9.425  17.664  0.00  0.00    +0.000 C 
BRANCH   7   8
ATOM      8  C   UNL     1       9.042  10.601  18.463  0.00  0.00    +0.000 A 
ATOM      9  C   UNL     1       9.492  10.437  19.773  0.00  0.00    +0.000 A 
ATOM     10  C   UNL     1       9.854  11.567  20.485  0.00  0.00    +0.000 A 
ATOM     11  N   UNL     1       9.797  12.820  19.980  0.00  0.00    +0.000 NA
ATOM     12  C   UNL     1       9.364  12.947  18.708  0.00  0.00    +0.000 A 
ATOM     13  C   UNL     1       8.979  11.879  17.911  0.00  0.00    +0.000 A 
ENDBRANCH   7   8
ENDBRANCH   4   6
ENDBRANCH   1   2
BRANCH   1  14
ATOM     14  S   UNL     1       5.102   5.520  16.335  0.00  0.00    +0.000 S 
BRANCH  14  16
ATOM     15  N   UNL     1       3.139   5.321  18.226  0.00  0.00    +0.000 N 
ATOM     16  C   UNL     1       4.313   4.822  17.710  0.00  0.00    +0.000 A 
ATOM     17  N   UNL     1       4.737   3.776  18.384  0.00  0.00    +0.000 NA
ATOM     18  C   UNL     1       3.802   3.585  19.379  0.00  0.00    +0.000 A 
ATOM     19  C   UNL     1       3.747   2.606  20.383  0.00  0.00    +0.000 A 
ATOM     20  C   UNL     1       2.678   2.622  21.293  0.00  0.00    +0.000 A 
ATOM     21  C   UNL     1       1.685   3.599  21.212  0.00  0.00    +0.000 A 
ATOM     22  C   UNL     1       1.724   4.584  20.220  0.00  0.00    +0.000 A 
ATOM     23  C   UNL     1       2.794   4.544  19.314  0.00  0.00    +0.000 A 
BRANCH  15  25
ATOM     24  C   UNL     1       2.596   7.727  18.473  0.00  0.00    +0.000 C 
ATOM     25  C   UNL     1       2.332   6.425  17.735  0.00  0.00    +0.000 C 
ENDBRANCH  15  25
ENDBRANCH  14  16
ENDBRANCH   1  14
TORSDOF 6
ENDMDL
MODEL 7
REMARK VINA RESULT:      -7.4      4.796      7.236
REMARK  Name = 
REMARK  7 active torsions:
REMARK  status: ('A' for Active; 'I' for Inactive)
REMARK    1  A    between atoms: C_1  and  C_2
REMARK    2  A    between atoms: C_2  and  N_3
REMARK    3  A    between atoms: C_4  and  S_5
REMARK    4  A    between atoms: S_5  and  C_6
REMARK    5  A    between atoms: C_6  and  C_7
REMARK    6  A    between atoms: N_9  and  N_10
REMARK    7  A    between atoms: C_11  and  C_12
REMARK                            x       y       z     vdW  Elec       q    Type
REMARK                         _______ _______ _______ _____ _____    ______ ____
ROOT
ATOM      1  C   UNL     1       2.848   3.078  20.982  0.00  0.00    +0.000 C 
ENDROOT
BRANCH   1   2
ATOM      2  C   UNL     1       1.816   4.196  20.768  0.00  0.00    +0.000 C 
ATOM      3  O   UNL     1       0.704   4.009  20.275  0.00  0.00    +0.000 OA
ATOM      4  N   UNL     1       2.258   5.459  21.187  0.00  0.00    +0.000 N 
ATOM      5  H   UNL     1       3.183   5.600  21.576  0.00  0.00    +0.000 HD
BRANCH   4   6
ATOM      6  N   UNL     1       1.426   6.534  21.002  0.00  0.00    +0.000 NA
ATOM      7  C   UNL     1       1.939   7.630  20.542  0.00  0.00    +0.000 C 
BRANCH   7   8
ATOM      8  C   UNL     1       1.087   8.819  20.286  0.00  0.00    +0.000 A 
ATOM      9  C   UNL     1       1.136   9.470  19.053  0.00  0.00    +0.000 A 
ATOM     10  C   UNL     1       0.344  10.591  18.875  0.00  0.00    +0.000 A 
ATOM     11  N   UNL     1      -0.476  11.087  19.828  0.00  0.00    +0.000 NA
ATOM     12  C   UNL     1      -0.508  10.433  21.008  0.00  0.00    +0.000 A 
ATOM     13  C   UNL     1       0.245   9.302  21.286  0.00  0.00    +0.000 A 
ENDBRANCH   7   8
ENDBRANCH   4   6
ENDBRANCH   1   2
BRANCH   1  14
ATOM     14  S   UNL     1       3.563   2.538  19.389  0.00  0.00    +0.000 S 
BRANCH  14  16
ATOM     15  N   UNL     1       4.456   4.703  17.979  0.00  0.00    +0.000 N 
ATOM     16  C   UNL     1       4.682   3.799  18.992  0.00  0.00    +0.000 A 
ATOM     17  N   UNL     1       5.828   4.020  19.596  0.00  0.00    +0.000 NA
ATOM     18  C   UNL     1       6.371   5.111  18.951  0.00  0.00    +0.000 A 
ATOM     19  C   UNL     1       7.580   5.785  19.189  0.00  0.00    +0.000 A 
ATOM     20  C   UNL     1       7.916   6.885  18.385  0.00  0.00    +0.000 A 
ATOM     21  C   UNL     1       7.070   7.305  17.357  0.00  0.00    +0.000 A 
ATOM     22  C   UNL     1       5.863   6.646  17.104  0.00  0.00    +0.000 A 
ATOM     23  C   UNL     1       5.540   5.555  17.925  0.00  0.00    +0.000 A 
BRANCH  15  25
ATOM     24  C   UNL     1       2.269   5.822  17.645  0.00  0.00    +0.000 C 
ATOM     25  C   UNL     1       3.289   4.826  17.120  0.00  0.00    +0.000 C 
ENDBRANCH  15  25
ENDBRANCH  14  16
ENDBRANCH   1  14
TORSDOF 6
ENDMDL
MODEL 8
REMARK VINA RESULT:      -7.4      1.868      2.566
REMARK  Name = 
REMARK  7 active torsions:
REMARK  status: ('A' for Active; 'I' for Inactive)
REMARK    1  A    between atoms: C_1  and  C_2
REMARK    2  A    between atoms: C_2  and  N_3
REMARK    3  A    between atoms: C_4  and  S_5
REMARK    4  A    between atoms: S_5  and  C_6
REMARK    5  A    between atoms: C_6  and  C_7
REMARK    6  A    between atoms: N_9  and  N_10
REMARK    7  A    between atoms: C_11  and  C_12
REMARK                            x       y       z     vdW  Elec       q    Type
REMARK                         _______ _______ _______ _____ _____    ______ ____
ROOT
ATOM      1  C   UNL     1       6.553   6.152  16.624  0.00  0.00    +0.000 C 
ENDROOT
BRANCH   1   2
ATOM      2  C   UNL     1       7.465   6.861  17.638  0.00  0.00    +0.000 C 
ATOM      3  O   UNL     1       7.932   6.309  18.634  0.00  0.00    +0.000 OA
ATOM      4  N   UNL     1       7.718   8.204  17.325  0.00  0.00    +0.000 N 
ATOM      5  H   UNL     1       7.314   8.649  16.511  0.00  0.00    +0.000 HD
BRANCH   4   6
ATOM      6  N   UNL     1       8.489   8.939  18.190  0.00  0.00    +0.000 NA
ATOM      7  C   UNL     1       8.725  10.177  17.896  0.00  0.00    +0.000 C 
BRANCH   7   8
ATOM      8  C   UNL     1       9.524  11.037  18.807  0.00  0.00    +0.000 A 
ATOM      9  C   UNL     1       9.351  10.950  20.188  0.00  0.00    +0.000 A 
ATOM     10  C   UNL     1      10.098  11.792  20.993  0.00  0.00    +0.000 A 
ATOM     11  N   UNL     1      10.986  12.692  20.514  0.00  0.00    +0.000 NA
ATOM     12  C   UNL     1      11.136  12.749  19.174  0.00  0.00    +0.000 A 
ATOM     13  C   UNL     1      10.437  11.948  18.283  0.00  0.00    +0.000 A 
ENDBRANCH   7   8
ENDBRANCH   4   6
ENDBRANCH   1   2
BRANCH   1  14
ATOM     14  S   UNL     1       6.188   4.444  17.160  0.00  0.00    +0.000 S 
BRANCH  14  16
ATOM     15  N   UNL     1       3.787   3.636  18.187  0.00  0.00    +0.000 N 
ATOM     16  C   UNL     1       4.756   4.611  18.120  0.00  0.00    +0.000 A 
ATOM     17  N   UNL     1       4.452   5.652  18.862  0.00  0.00    +0.000 NA
ATOM     18  C   UNL     1       3.236   5.344  19.436  0.00  0.00    +0.000 A 
ATOM     19  C   UNL     1       2.449   6.090  20.327  0.00  0.00    +0.000 A 
ATOM     20  C   UNL     1       1.233   5.552  20.775  0.00  0.00    +0.000 A 
ATOM     21  C   UNL     1       0.801   4.298  20.340  0.00  0.00    +0.000 A 
ATOM     22  C   UNL     1       1.571   3.541  19.452  0.00  0.00    +0.000 A 
ATOM     23  C   UNL     1       2.788   4.091  19.023  0.00  0.00    +0.000 A 
BRANCH  15  25
ATOM     24  C   UNL     1       3.936   1.189  18.559  0.00  0.00    +0.000 C 
ATOM     25  C   UNL     1       3.780   2.324  17.560  0.00  0.00    +0.000 C 
ENDBRANCH  15  25
ENDBRANCH  14  16
ENDBRANCH   1  14
TORSDOF 6
ENDMDL
MODEL 9
REMARK VINA RESULT:      -7.4      1.703      1.980
REMARK  Name = 
REMARK  7 active torsions:
REMARK  status: ('A' for Active; 'I' for Inactive)
REMARK    1  A    between atoms: C_1  and  C_2
REMARK    2  A    between atoms: C_2  and  N_3
REMARK    3  A    between atoms: C_4  and  S_5
REMARK    4  A    between atoms: S_5  and  C_6
REMARK    5  A    between atoms: C_6  and  C_7
REMARK    6  A    between atoms: N_9  and  N_10
REMARK    7  A    between atoms: C_11  and  C_12
REMARK                            x       y       z     vdW  Elec       q    Type
REMARK                         _______ _______ _______ _____ _____    ______ ____
ROOT
ATOM      1  C   UNL     1       6.529   6.185  17.058  0.00  0.00    +0.000 C 
ENDROOT
BRANCH   1   2
ATOM      2  C   UNL     1       7.503   6.976  17.946  0.00  0.00    +0.000 C 
ATOM      3  O   UNL     1       8.098   6.487  18.906  0.00  0.00    +0.000 OA
ATOM      4  N   UNL     1       7.653   8.316  17.562  0.00  0.00    +0.000 N 
ATOM      5  H   UNL     1       7.144   8.709  16.780  0.00  0.00    +0.000 HD
BRANCH   4   6
ATOM      6  N   UNL     1       8.470   9.121  18.316  0.00  0.00    +0.000 NA
ATOM      7  C   UNL     1       8.846  10.252  17.812  0.00  0.00    +0.000 C 
BRANCH   7   8
ATOM      8  C   UNL     1       9.702  11.184  18.589  0.00  0.00    +0.000 A 
ATOM      9  C   UNL     1      10.459  12.157  17.935  0.00  0.00    +0.000 A 
ATOM     10  C   UNL     1      11.263  12.982  18.702  0.00  0.00    +0.000 A 
ATOM     11  N   UNL     1      11.352  12.898  20.048  0.00  0.00    +0.000 NA
ATOM     12  C   UNL     1      10.604  11.953  20.654  0.00  0.00    +0.000 A 
ATOM     13  C   UNL     1       9.767  11.078  19.977  0.00  0.00    +0.000 A 
ENDBRANCH   7   8
ENDBRANCH   4   6
ENDBRANCH   1   2
BRANCH   1  14
ATOM     14  S   UNL     1       6.585   4.402  17.459  0.00  0.00    +0.000 S 
BRANCH  14  16
ATOM     15  N   UNL     1       4.023   4.892  18.275  0.00  0.00    +0.000 N 
ATOM     16  C   UNL     1       5.175   4.156  18.434  0.00  0.00    +0.000 A 
ATOM     17  N   UNL     1       5.058   3.269  19.396  0.00  0.00    +0.000 NA
ATOM     18  C   UNL     1       3.779   3.433  19.885  0.00  0.00    +0.000 A 
ATOM     19  C   UNL     1       3.114   2.743  20.911  0.00  0.00    +0.000 A 
ATOM     20  C   UNL     1       1.795   3.100  21.228  0.00  0.00    +0.000 A 
ATOM     21  C   UNL     1       1.148   4.130  20.544  0.00  0.00    +0.000 A 
ATOM     22  C   UNL     1       1.794   4.829  19.519  0.00  0.00    +0.000 A 
ATOM     23  C   UNL     1       3.109   4.451  19.210  0.00  0.00    +0.000 A 
BRANCH  15  25
ATOM     24  C   UNL     1       3.326   7.244  17.918  0.00  0.00    +0.000 C 
ATOM     25  C   UNL     1       3.737   5.923  17.290  0.00  0.00    +0.000 C 
ENDBRANCH  15  25
ENDBRANCH  14  16
ENDBRANCH   1  14
TORSDOF 6
ENDMDL
