MODEL 1
REMARK VINA RESULT:      -7.6      0.000      0.000
REMARK  Name = 
REMARK  14 active torsions:
REMARK  status: ('A' for Active; 'I' for Inactive)
REMARK    1  A    between atoms: C_1  and  C_2
REMARK    2  A    between atoms: C_2  and  C_3
REMARK    3  A    between atoms: C_3  and  C_4
REMARK    4  A    between atoms: C_4  and  C_5
REMARK    5  A    between atoms: C_4  and  C_7
REMARK    6  A    between atoms: C_5  and  C_6
REMARK    7  A    between atoms: N_9  and  C_10
REMARK    8  A    between atoms: C_16  and  C_17
REMARK    9  A    between atoms: C_17  and  C_18
REMARK   10  A    between atoms: C_21  and  C_22
REMARK   11  A    between atoms: C_22  and  O_24
REMARK   12  A    between atoms: C_26  and  O_27
REMARK   13  A    between atoms: O_27  and  C_28
REMARK   14  A    between atoms: N_30  and  C_31
REMARK                            x       y       z     vdW  Elec       q    Type
REMARK                         _______ _______ _______ _____ _____    ______ ____
ROOT
ATOM      1  C   UNL     1       3.948   3.751  16.948  0.00  0.00    +0.000 A 
ATOM      2  C   UNL     1       3.473   2.579  17.531  0.00  0.00    +0.000 A 
ATOM      3  C   UNL     1       2.714   2.591  18.698  0.00  0.00    +0.000 A 
ATOM      4  C   UNL     1       2.437   3.827  19.288  0.00  0.00    +0.000 A 
ATOM      5  C   UNL     1       2.946   5.027  18.785  0.00  0.00    +0.000 A 
ATOM      6  C   UNL     1       3.759   4.971  17.622  0.00  0.00    +0.000 A 
ATOM      7  C   UNL     1       2.491   6.082  19.668  0.00  0.00    +0.000 A 
ATOM      8  C   UNL     1       1.669   5.475  20.608  0.00  0.00    +0.000 A 
ATOM      9  N   UNL     1       1.698   4.125  20.409  0.00  0.00    +0.000 N 
ATOM     10  C   UNL     1       1.104   3.139  21.283  0.00  0.00    +0.000 C 
ENDROOT
BRANCH   1  13
ATOM     11  C   UNL     1       5.958   3.991  15.527  0.00  0.00    +0.000 C 
ATOM     12  O   UNL     1       6.734   4.209  16.463  0.00  0.00    +0.000 OA
ATOM     13  N   UNL     1       4.600   3.750  15.688  0.00  0.00    +0.000 N 
ATOM     14  H   UNL     1       4.099   3.341  14.908  0.00  0.00    +0.000 HD
BRANCH  11  15
ATOM     15  C   UNL     1       6.497   3.987  14.083  0.00  0.00    +0.000 C 
BRANCH  15  16
ATOM     16  C   UNL     1       7.510   5.107  13.814  0.00  0.00    +0.000 C 
ATOM     17  C   UNL     1       7.819   5.360  12.343  0.00  0.00    +0.000 C 
ENDBRANCH  15  16
BRANCH  15  18
ATOM     18  C   UNL     1       5.263   4.017  13.139  0.00  0.00    +0.000 C 
BRANCH  18  20
ATOM     19  C   UNL     1       3.967   3.180  11.173  0.00  0.00    +0.000 C 
ATOM     20  C   UNL     1       5.245   3.018  11.986  0.00  0.00    +0.000 C 
ENDBRANCH  18  20
ENDBRANCH  15  18
ENDBRANCH  11  15
ENDBRANCH   1  13
BRANCH   7  21
ATOM     21  C   UNL     1       2.911   7.520  19.686  0.00  0.00    +0.000 C 
BRANCH  21  22
ATOM     22  C   UNL     1       1.705   8.416  19.515  0.00  0.00    +0.000 A 
ATOM     23  C   UNL     1       1.389   8.773  18.182  0.00  0.00    +0.000 A 
ATOM     24  C   UNL     1       0.318   9.604  17.862  0.00  0.00    +0.000 A 
ATOM     25  C   UNL     1      -0.474  10.126  18.878  0.00  0.00    +0.000 A 
ATOM     26  C   UNL     1      -0.173   9.812  20.207  0.00  0.00    +0.000 A 
ATOM     27  C   UNL     1       0.904   8.959  20.537  0.00  0.00    +0.000 A 
BRANCH  25  28
ATOM     28  C   UNL     1      -1.576  11.044  18.491  0.00  0.00    +0.000 C 
ATOM     29  O   UNL     1      -2.684  10.643  18.175  0.00  0.00    +0.000 OA
BRANCH  28  30
ATOM     30  O   UNL     1      -1.255  12.353  18.563  0.00  0.00    +0.000 OA
ATOM     31  H   UNL     1      -1.851  12.950  18.081  0.00  0.00    +0.000 HD
ENDBRANCH  28  30
ENDBRANCH  25  28
BRANCH  27  32
ATOM     32  O   UNL     1       0.959   8.716  21.882  0.00  0.00    +0.000 OA
ATOM     33  C   UNL     1       0.087   9.425  22.747  0.00  0.00    +0.000 C 
ENDBRANCH  27  32
ENDBRANCH  21  22
ENDBRANCH   7  21
TORSDOF 10
ENDMDL
MODEL 2
REMARK VINA RESULT:      -7.3      0.989      1.106
REMARK  Name = 
REMARK  14 active torsions:
REMARK  status: ('A' for Active; 'I' for Inactive)
REMARK    1  A    between atoms: C_1  and  C_2
REMARK    2  A    between atoms: C_2  and  C_3
REMARK    3  A    between atoms: C_3  and  C_4
REMARK    4  A    between atoms: C_4  and  C_5
REMARK    5  A    between atoms: C_4  and  C_7
REMARK    6  A    between atoms: C_5  and  C_6
REMARK    7  A    between atoms: N_9  and  C_10
REMARK    8  A    between atoms: C_16  and  C_17
REMARK    9  A    between atoms: C_17  and  C_18
REMARK   10  A    between atoms: C_21  and  C_22
REMARK   11  A    between atoms: C_22  and  O_24
REMARK   12  A    between atoms: C_26  and  O_27
REMARK   13  A    between atoms: O_27  and  C_28
REMARK   14  A    between atoms: N_30  and  C_31
REMARK                            x       y       z     vdW  Elec       q    Type
REMARK                         _______ _______ _______ _____ _____    ______ ____
ROOT
ATOM      1  C   UNL     1       4.453   4.612  16.777  0.00  0.00    +0.000 A 
ATOM      2  C   UNL     1       4.299   3.557  17.673  0.00  0.00    +0.000 A 
ATOM      3  C   UNL     1       3.600   3.703  18.869  0.00  0.00    +0.000 A 
ATOM      4  C   UNL     1       3.049   4.953  19.159  0.00  0.00    +0.000 A 
ATOM      5  C   UNL     1       3.231   6.063  18.329  0.00  0.00    +0.000 A 
ATOM      6  C   UNL     1       3.994   5.889  17.143  0.00  0.00    +0.000 A 
ATOM      7  C   UNL     1       2.563   7.180  18.964  0.00  0.00    +0.000 A 
ATOM      8  C   UNL     1       1.947   6.672  20.099  0.00  0.00    +0.000 A 
ATOM      9  N   UNL     1       2.297   5.360  20.237  0.00  0.00    +0.000 N 
ATOM     10  C   UNL     1       1.993   4.529  21.380  0.00  0.00    +0.000 C 
ENDROOT
BRANCH   1  13
ATOM     11  C   UNL     1       6.413   4.380  15.286  0.00  0.00    +0.000 C 
ATOM     12  O   UNL     1       7.252   4.473  16.189  0.00  0.00    +0.000 OA
ATOM     13  N   UNL     1       5.042   4.428  15.499  0.00  0.00    +0.000 N 
ATOM     14  H   UNL     1       4.439   4.099  14.754  0.00  0.00    +0.000 HD
BRANCH  11  15
ATOM     15  C   UNL     1       6.884   4.210  13.830  0.00  0.00    +0.000 C 
BRANCH  15  16
ATOM     16  C   UNL     1       7.871   5.296  13.383  0.00  0.00    +0.000 C 
ATOM     17  C   UNL     1       7.834   5.633  11.897  0.00  0.00    +0.000 C 
ENDBRANCH  15  16
BRANCH  15  18
ATOM     18  C   UNL     1       5.607   4.122  12.948  0.00  0.00    +0.000 C 
BRANCH  18  20
ATOM     19  C   UNL     1       4.197   3.008  11.211  0.00  0.00    +0.000 C 
ATOM     20  C   UNL     1       5.499   2.932  11.997  0.00  0.00    +0.000 C 
ENDBRANCH  18  20
ENDBRANCH  15  18
ENDBRANCH  11  15
ENDBRANCH   1  13
BRANCH   7  21
ATOM     21  C   UNL     1       2.618   8.629  18.585  0.00  0.00    +0.000 C 
BRANCH  21  22
ATOM     22  C   UNL     1       1.242   9.246  18.686  0.00  0.00    +0.000 A 
ATOM     23  C   UNL     1       0.464   9.208  17.505  0.00  0.00    +0.000 A 
ATOM     24  C   UNL     1      -0.817   9.750  17.433  0.00  0.00    +0.000 A 
ATOM     25  C   UNL     1      -1.366  10.368  18.550  0.00  0.00    +0.000 A 
ATOM     26  C   UNL     1      -0.613  10.443  19.726  0.00  0.00    +0.000 A 
ATOM     27  C   UNL     1       0.682   9.885  19.808  0.00  0.00    +0.000 A 
BRANCH  25  28
ATOM     28  C   UNL     1      -2.716  10.970  18.412  0.00  0.00    +0.000 C 
ATOM     29  O   UNL     1      -3.650  10.379  17.896  0.00  0.00    +0.000 OA
BRANCH  28  30
ATOM     30  O   UNL     1      -2.827  12.205  18.945  0.00  0.00    +0.000 OA
ATOM     31  H   UNL     1      -3.684  12.400  19.359  0.00  0.00    +0.000 HD
ENDBRANCH  28  30
ENDBRANCH  25  28
BRANCH  27  32
ATOM     32  O   UNL     1       1.196   9.991  21.072  0.00  0.00    +0.000 OA
ATOM     33  C   UNL     1       0.457   9.466  22.162  0.00  0.00    +0.000 C 
ENDBRANCH  27  32
ENDBRANCH  21  22
ENDBRANCH   7  21
TORSDOF 10
ENDMDL
MODEL 3
REMARK VINA RESULT:      -7.2      2.254      4.051
REMARK  Name = 
REMARK  14 active torsions:
REMARK  status: ('A' for Active; 'I' for Inactive)
REMARK    1  A    between atoms: C_1  and  C_2
REMARK    2  A    between atoms: C_2  and  C_3
REMARK    3  A    between atoms: C_3  and  C_4
REMARK    4  A    between atoms: C_4  and  C_5
REMARK    5  A    between atoms: C_4  and  C_7
REMARK    6  A    between atoms: C_5  and  C_6
REMARK    7  A    between atoms: N_9  and  C_10
REMARK    8  A    between atoms: C_16  and  C_17
REMARK    9  A    between atoms: C_17  and  C_18
REMARK   10  A    between atoms: C_21  and  C_22
REMARK   11  A    between atoms: C_22  and  O_24
REMARK   12  A    between atoms: C_26  and  O_27
REMARK   13  A    between atoms: O_27  and  C_28
REMARK   14  A    between atoms: N_30  and  C_31
REMARK                            x       y       z     vdW  Elec       q    Type
REMARK                         _______ _______ _______ _____ _____    ______ ____
ROOT
ATOM      1  C   UNL     1       5.852   3.983  15.119  0.00  0.00    +0.000 A 
ATOM      2  C   UNL     1       7.134   4.379  15.493  0.00  0.00    +0.000 A 
ATOM      3  C   UNL     1       7.422   4.822  16.782  0.00  0.00    +0.000 A 
ATOM      4  C   UNL     1       6.378   4.866  17.709  0.00  0.00    +0.000 A 
ATOM      5  C   UNL     1       5.061   4.546  17.369  0.00  0.00    +0.000 A 
ATOM      6  C   UNL     1       4.796   4.148  16.031  0.00  0.00    +0.000 A 
ATOM      7  C   UNL     1       4.257   4.746  18.558  0.00  0.00    +0.000 A 
ATOM      8  C   UNL     1       5.140   5.097  19.570  0.00  0.00    +0.000 A 
ATOM      9  N   UNL     1       6.389   5.227  19.036  0.00  0.00    +0.000 N 
ATOM     10  C   UNL     1       7.547   5.741  19.733  0.00  0.00    +0.000 C 
ENDROOT
BRANCH   1  13
ATOM     11  C   UNL     1       6.249   3.768  12.687  0.00  0.00    +0.000 C 
ATOM     12  O   UNL     1       7.144   4.619  12.643  0.00  0.00    +0.000 OA
ATOM     13  N   UNL     1       5.588   3.402  13.852  0.00  0.00    +0.000 N 
ATOM     14  H   UNL     1       5.058   2.538  13.840  0.00  0.00    +0.000 HD
BRANCH  11  15
ATOM     15  C   UNL     1       5.814   3.060  11.390  0.00  0.00    +0.000 C 
BRANCH  15  16
ATOM     16  C   UNL     1       4.293   2.894  11.275  0.00  0.00    +0.000 C 
ATOM     17  C   UNL     1       3.602   3.887  10.347  0.00  0.00    +0.000 C 
ENDBRANCH  15  16
BRANCH  15  18
ATOM     18  C   UNL     1       6.598   1.720  11.320  0.00  0.00    +0.000 C 
BRANCH  18  20
ATOM     19  C   UNL     1       6.253  -0.750  11.491  0.00  0.00    +0.000 C 
ATOM     20  C   UNL     1       5.865   0.515  10.736  0.00  0.00    +0.000 C 
ENDBRANCH  18  20
ENDBRANCH  15  18
ENDBRANCH  11  15
ENDBRANCH   1  13
BRANCH   7  21
ATOM     21  C   UNL     1       2.764   4.728  18.680  0.00  0.00    +0.000 C 
BRANCH  21  22
ATOM     22  C   UNL     1       2.284   5.981  19.375  0.00  0.00    +0.000 A 
ATOM     23  C   UNL     1       1.736   5.797  20.666  0.00  0.00    +0.000 A 
ATOM     24  C   UNL     1       1.237   6.851  21.427  0.00  0.00    +0.000 A 
ATOM     25  C   UNL     1       1.254   8.141  20.909  0.00  0.00    +0.000 A 
ATOM     26  C   UNL     1       1.766   8.353  19.625  0.00  0.00    +0.000 A 
ATOM     27  C   UNL     1       2.285   7.290  18.854  0.00  0.00    +0.000 A 
BRANCH  25  28
ATOM     28  C   UNL     1       0.669   9.226  21.738  0.00  0.00    +0.000 C 
ATOM     29  O   UNL     1      -0.352   9.815  21.425  0.00  0.00    +0.000 OA
BRANCH  28  30
ATOM     30  O   UNL     1       1.342   9.469  22.883  0.00  0.00    +0.000 OA
ATOM     31  H   UNL     1       2.305   9.545  22.787  0.00  0.00    +0.000 HD
ENDBRANCH  28  30
ENDBRANCH  25  28
BRANCH  27  32
ATOM     32  O   UNL     1       2.815   7.735  17.674  0.00  0.00    +0.000 OA
ATOM     33  C   UNL     1       2.793   9.125  17.390  0.00  0.00    +0.000 C 
ENDBRANCH  27  32
ENDBRANCH  21  22
ENDBRANCH   7  21
TORSDOF 10
ENDMDL
MODEL 4
REMARK VINA RESULT:      -7.1      4.048      7.770
REMARK  Name = 
REMARK  14 active torsions:
REMARK  status: ('A' for Active; 'I' for Inactive)
REMARK    1  A    between atoms: C_1  and  C_2
REMARK    2  A    between atoms: C_2  and  C_3
REMARK    3  A    between atoms: C_3  and  C_4
REMARK    4  A    between atoms: C_4  and  C_5
REMARK    5  A    between atoms: C_4  and  C_7
REMARK    6  A    between atoms: C_5  and  C_6
REMARK    7  A    between atoms: N_9  and  C_10
REMARK    8  A    between atoms: C_16  and  C_17
REMARK    9  A    between atoms: C_17  and  C_18
REMARK   10  A    between atoms: C_21  and  C_22
REMARK   11  A    between atoms: C_22  and  O_24
REMARK   12  A    between atoms: C_26  and  O_27
REMARK   13  A    between atoms: O_27  and  C_28
REMARK   14  A    between atoms: N_30  and  C_31
REMARK                            x       y       z     vdW  Elec       q    Type
REMARK                         _______ _______ _______ _____ _____    ______ ____
ROOT
ATOM      1  C   UNL     1       0.584   9.003  21.522  0.00  0.00    +0.000 A 
ATOM      2  C   UNL     1       0.137   9.286  22.811  0.00  0.00    +0.000 A 
ATOM      3  C   UNL     1      -0.624  10.417  23.094  0.00  0.00    +0.000 A 
ATOM      4  C   UNL     1      -0.933  11.282  22.041  0.00  0.00    +0.000 A 
ATOM      5  C   UNL     1      -0.453  11.083  20.744  0.00  0.00    +0.000 A 
ATOM      6  C   UNL     1       0.364   9.946  20.503  0.00  0.00    +0.000 A 
ATOM      7  C   UNL     1      -0.935  12.188  19.941  0.00  0.00    +0.000 A 
ATOM      8  C   UNL     1      -1.743  12.950  20.773  0.00  0.00    +0.000 A 
ATOM      9  N   UNL     1      -1.681  12.436  22.035  0.00  0.00    +0.000 N 
ATOM     10  C   UNL     1      -2.252  13.045  23.215  0.00  0.00    +0.000 C 
ENDROOT
BRANCH   1  13
ATOM     11  C   UNL     1       1.885   7.549  20.002  0.00  0.00    +0.000 C 
ATOM     12  O   UNL     1       1.972   8.383  19.095  0.00  0.00    +0.000 OA
ATOM     13  N   UNL     1       1.239   7.784  21.208  0.00  0.00    +0.000 N 
ATOM     14  H   UNL     1       1.430   7.150  21.976  0.00  0.00    +0.000 HD
BRANCH  11  15
ATOM     15  C   UNL     1       2.514   6.156  19.812  0.00  0.00    +0.000 C 
BRANCH  15  16
ATOM     16  C   UNL     1       2.772   5.806  18.340  0.00  0.00    +0.000 C 
ATOM     17  C   UNL     1       1.906   4.684  17.781  0.00  0.00    +0.000 C 
ENDBRANCH  15  16
BRANCH  15  18
ATOM     18  C   UNL     1       1.596   5.140  20.546  0.00  0.00    +0.000 C 
BRANCH  18  20
ATOM     19  C   UNL     1       1.407   2.793  21.384  0.00  0.00    +0.000 C 
ATOM     20  C   UNL     1       2.281   4.040  21.353  0.00  0.00    +0.000 C 
ENDBRANCH  18  20
ENDBRANCH  15  18
ENDBRANCH  11  15
ENDBRANCH   1  13
BRANCH   7  21
ATOM     21  C   UNL     1      -0.551  12.550  18.539  0.00  0.00    +0.000 C 
BRANCH  21  22
ATOM     22  C   UNL     1       0.615  13.512  18.551  0.00  0.00    +0.000 A 
ATOM     23  C   UNL     1       1.889  12.937  18.329  0.00  0.00    +0.000 A 
ATOM     24  C   UNL     1       3.062  13.689  18.327  0.00  0.00    +0.000 A 
ATOM     25  C   UNL     1       3.001  15.057  18.565  0.00  0.00    +0.000 A 
ATOM     26  C   UNL     1       1.760  15.652  18.812  0.00  0.00    +0.000 A 
ATOM     27  C   UNL     1       0.567  14.897  18.803  0.00  0.00    +0.000 A 
BRANCH  25  28
ATOM     28  C   UNL     1       4.282  15.809  18.597  0.00  0.00    +0.000 C 
ATOM     29  O   UNL     1       4.328  17.025  18.675  0.00  0.00    +0.000 OA
BRANCH  28  30
ATOM     30  O   UNL     1       5.382  15.027  18.577  0.00  0.00    +0.000 OA
ATOM     31  H   UNL     1       5.320  14.214  19.104  0.00  0.00    +0.000 HD
ENDBRANCH  28  30
ENDBRANCH  25  28
BRANCH  27  32
ATOM     32  O   UNL     1      -0.534  15.692  18.976  0.00  0.00    +0.000 OA
ATOM     33  C   UNL     1      -0.610  16.923  18.276  0.00  0.00    +0.000 C 
ENDBRANCH  27  32
ENDBRANCH  21  22
ENDBRANCH   7  21
TORSDOF 10
ENDMDL
MODEL 5
REMARK VINA RESULT:      -7.1      2.253      4.366
REMARK  Name = 
REMARK  14 active torsions:
REMARK  status: ('A' for Active; 'I' for Inactive)
REMARK    1  A    between atoms: C_1  and  C_2
REMARK    2  A    between atoms: C_2  and  C_3
REMARK    3  A    between atoms: C_3  and  C_4
REMARK    4  A    between atoms: C_4  and  C_5
REMARK    5  A    between atoms: C_4  and  C_7
REMARK    6  A    between atoms: C_5  and  C_6
REMARK    7  A    between atoms: N_9  and  C_10
REMARK    8  A    between atoms: C_16  and  C_17
REMARK    9  A    between atoms: C_17  and  C_18
REMARK   10  A    between atoms: C_21  and  C_22
REMARK   11  A    between atoms: C_22  and  O_24
REMARK   12  A    between atoms: C_26  and  O_27
REMARK   13  A    between atoms: O_27  and  C_28
REMARK   14  A    between atoms: N_30  and  C_31
REMARK                            x       y       z     vdW  Elec       q    Type
REMARK                         _______ _______ _______ _____ _____    ______ ____
ROOT
ATOM      1  C   UNL     1       5.808   4.212  14.603  0.00  0.00    +0.000 A 
ATOM      2  C   UNL     1       6.989   4.942  14.717  0.00  0.00    +0.000 A 
ATOM      3  C   UNL     1       7.437   5.433  15.941  0.00  0.00    +0.000 A 
ATOM      4  C   UNL     1       6.661   5.178  17.074  0.00  0.00    +0.000 A 
ATOM      5  C   UNL     1       5.435   4.511  17.007  0.00  0.00    +0.000 A 
ATOM      6  C   UNL     1       4.985   4.070  15.734  0.00  0.00    +0.000 A 
ATOM      7  C   UNL     1       4.902   4.469  18.354  0.00  0.00    +0.000 A 
ATOM      8  C   UNL     1       5.868   5.039  19.172  0.00  0.00    +0.000 A 
ATOM      9  N   UNL     1       6.880   5.514  18.389  0.00  0.00    +0.000 N 
ATOM     10  C   UNL     1       7.987   6.320  18.853  0.00  0.00    +0.000 C 
ENDROOT
BRANCH   1  13
ATOM     11  C   UNL     1       6.222   3.576  12.250  0.00  0.00    +0.000 C 
ATOM     12  O   UNL     1       7.350   4.077  12.194  0.00  0.00    +0.000 OA
ATOM     13  N   UNL     1       5.424   3.594  13.385  0.00  0.00    +0.000 N 
ATOM     14  H   UNL     1       4.638   2.955  13.418  0.00  0.00    +0.000 HD
BRANCH  11  15
ATOM     15  C   UNL     1       5.636   2.891  11.000  0.00  0.00    +0.000 C 
BRANCH  15  16
ATOM     16  C   UNL     1       4.120   2.670  11.088  0.00  0.00    +0.000 C 
ATOM     17  C   UNL     1       3.274   3.687  10.331  0.00  0.00    +0.000 C 
ENDBRANCH  15  16
BRANCH  15  18
ATOM     18  C   UNL     1       6.448   1.585  10.777  0.00  0.00    +0.000 C 
BRANCH  18  20
ATOM     19  C   UNL     1       5.907  -0.823  11.173  0.00  0.00    +0.000 C 
ATOM     20  C   UNL     1       6.308   0.490  11.832  0.00  0.00    +0.000 C 
ENDBRANCH  18  20
ENDBRANCH  15  18
ENDBRANCH  11  15
ENDBRANCH   1  13
BRANCH   7  21
ATOM     21  C   UNL     1       3.537   4.038  18.797  0.00  0.00    +0.000 C 
BRANCH  21  22
ATOM     22  C   UNL     1       2.806   5.200  19.429  0.00  0.00    +0.000 A 
ATOM     23  C   UNL     1       2.844   6.416  18.708  0.00  0.00    +0.000 A 
ATOM     24  C   UNL     1       2.232   7.581  19.166  0.00  0.00    +0.000 A 
ATOM     25  C   UNL     1       1.565   7.572  20.385  0.00  0.00    +0.000 A 
ATOM     26  C   UNL     1       1.529   6.391  21.134  0.00  0.00    +0.000 A 
ATOM     27  C   UNL     1       2.138   5.205  20.669  0.00  0.00    +0.000 A 
BRANCH  25  28
ATOM     28  C   UNL     1       0.966   8.848  20.854  0.00  0.00    +0.000 C 
ATOM     29  O   UNL     1       0.097   9.433  20.232  0.00  0.00    +0.000 OA
BRANCH  28  30
ATOM     30  O   UNL     1       1.438   9.274  22.045  0.00  0.00    +0.000 OA
ATOM     31  H   UNL     1       1.375  10.232  22.194  0.00  0.00    +0.000 HD
ENDBRANCH  28  30
ENDBRANCH  25  28
BRANCH  27  32
ATOM     32  O   UNL     1       1.903   4.154  21.513  0.00  0.00    +0.000 OA
ATOM     33  C   UNL     1       1.140   3.053  21.046  0.00  0.00    +0.000 C 
ENDBRANCH  27  32
ENDBRANCH  21  22
ENDBRANCH   7  21
TORSDOF 10
ENDMDL
MODEL 6
REMARK VINA RESULT:      -7.1      1.317      2.280
REMARK  Name = 
REMARK  14 active torsions:
REMARK  status: ('A' for Active; 'I' for Inactive)
REMARK    1  A    between atoms: C_1  and  C_2
REMARK    2  A    between atoms: C_2  and  C_3
REMARK    3  A    between atoms: C_3  and  C_4
REMARK    4  A    between atoms: C_4  and  C_5
REMARK    5  A    between atoms: C_4  and  C_7
REMARK    6  A    between atoms: C_5  and  C_6
REMARK    7  A    between atoms: N_9  and  C_10
REMARK    8  A    between atoms: C_16  and  C_17
REMARK    9  A    between atoms: C_17  and  C_18
REMARK   10  A    between atoms: C_21  and  C_22
REMARK   11  A    between atoms: C_22  and  O_24
REMARK   12  A    between atoms: C_26  and  O_27
REMARK   13  A    between atoms: O_27  and  C_28
REMARK   14  A    between atoms: N_30  and  C_31
REMARK                            x       y       z     vdW  Elec       q    Type
REMARK                         _______ _______ _______ _____ _____    ______ ____
ROOT
ATOM      1  C   UNL     1       4.538   4.247  16.774  0.00  0.00    +0.000 A 
ATOM      2  C   UNL     1       4.522   3.229  17.724  0.00  0.00    +0.000 A 
ATOM      3  C   UNL     1       3.848   3.361  18.935  0.00  0.00    +0.000 A 
ATOM      4  C   UNL     1       3.178   4.561  19.186  0.00  0.00    +0.000 A 
ATOM      5  C   UNL     1       3.218   5.640  18.299  0.00  0.00    +0.000 A 
ATOM      6  C   UNL     1       3.959   5.487  17.096  0.00  0.00    +0.000 A 
ATOM      7  C   UNL     1       2.455   6.713  18.903  0.00  0.00    +0.000 A 
ATOM      8  C   UNL     1       1.930   6.201  20.081  0.00  0.00    +0.000 A 
ATOM      9  N   UNL     1       2.420   4.941  20.269  0.00  0.00    +0.000 N 
ATOM     10  C   UNL     1       2.239   4.142  21.460  0.00  0.00    +0.000 C 
ENDROOT
BRANCH   1  13
ATOM     11  C   UNL     1       6.431   4.340  15.185  0.00  0.00    +0.000 C 
ATOM     12  O   UNL     1       7.251   4.757  16.011  0.00  0.00    +0.000 OA
ATOM     13  N   UNL     1       5.105   4.062  15.487  0.00  0.00    +0.000 N 
ATOM     14  H   UNL     1       4.581   3.498  14.827  0.00  0.00    +0.000 HD
BRANCH  11  15
ATOM     15  C   UNL     1       6.873   4.114  13.727  0.00  0.00    +0.000 C 
BRANCH  15  16
ATOM     16  C   UNL     1       7.942   5.111  13.259  0.00  0.00    +0.000 C 
ATOM     17  C   UNL     1       7.729   5.677  11.860  0.00  0.00    +0.000 C 
ENDBRANCH  15  16
BRANCH  15  18
ATOM     18  C   UNL     1       5.586   4.120  12.857  0.00  0.00    +0.000 C 
BRANCH  18  20
ATOM     19  C   UNL     1       4.034   3.057  11.211  0.00  0.00    +0.000 C 
ATOM     20  C   UNL     1       5.390   2.949  11.897  0.00  0.00    +0.000 C 
ENDBRANCH  18  20
ENDBRANCH  15  18
ENDBRANCH  11  15
ENDBRANCH   1  13
BRANCH   7  21
ATOM     21  C   UNL     1       2.347   8.139  18.456  0.00  0.00    +0.000 C 
BRANCH  21  22
ATOM     22  C   UNL     1       1.433   8.907  19.383  0.00  0.00    +0.000 A 
ATOM     23  C   UNL     1       1.764   8.851  20.757  0.00  0.00    +0.000 A 
ATOM     24  C   UNL     1       1.011   9.492  21.738  0.00  0.00    +0.000 A 
ATOM     25  C   UNL     1      -0.123  10.209  21.373  0.00  0.00    +0.000 A 
ATOM     26  C   UNL     1      -0.490  10.265  20.025  0.00  0.00    +0.000 A 
ATOM     27  C   UNL     1       0.277   9.626  19.026  0.00  0.00    +0.000 A 
BRANCH  25  28
ATOM     28  C   UNL     1      -0.919  10.839  22.457  0.00  0.00    +0.000 C 
ATOM     29  O   UNL     1      -0.760  10.563  23.635  0.00  0.00    +0.000 OA
BRANCH  28  30
ATOM     30  O   UNL     1      -1.799  11.768  22.028  0.00  0.00    +0.000 OA
ATOM     31  H   UNL     1      -2.368  11.487  21.293  0.00  0.00    +0.000 HD
ENDBRANCH  28  30
ENDBRANCH  25  28
BRANCH  27  32
ATOM     32  O   UNL     1      -0.211   9.886  17.774  0.00  0.00    +0.000 OA
ATOM     33  C   UNL     1      -1.554  10.318  17.635  0.00  0.00    +0.000 C 
ENDBRANCH  27  32
ENDBRANCH  21  22
ENDBRANCH   7  21
TORSDOF 10
ENDMDL
MODEL 7
REMARK VINA RESULT:      -6.9      2.176      3.848
REMARK  Name = 
REMARK  14 active torsions:
REMARK  status: ('A' for Active; 'I' for Inactive)
REMARK    1  A    between atoms: C_1  and  C_2
REMARK    2  A    between atoms: C_2  and  C_3
REMARK    3  A    between atoms: C_3  and  C_4
REMARK    4  A    between atoms: C_4  and  C_5
REMARK    5  A    between atoms: C_4  and  C_7
REMARK    6  A    between atoms: C_5  and  C_6
REMARK    7  A    between atoms: N_9  and  C_10
REMARK    8  A    between atoms: C_16  and  C_17
REMARK    9  A    between atoms: C_17  and  C_18
REMARK   10  A    between atoms: C_21  and  C_22
REMARK   11  A    between atoms: C_22  and  O_24
REMARK   12  A    between atoms: C_26  and  O_27
REMARK   13  A    between atoms: O_27  and  C_28
REMARK   14  A    between atoms: N_30  and  C_31
REMARK                            x       y       z     vdW  Elec       q    Type
REMARK                         _______ _______ _______ _____ _____    ______ ____
ROOT
ATOM      1  C   UNL     1       5.878   3.987  14.827  0.00  0.00    +0.000 A 
ATOM      2  C   UNL     1       7.172   4.408  15.125  0.00  0.00    +0.000 A 
ATOM      3  C   UNL     1       7.520   4.879  16.389  0.00  0.00    +0.000 A 
ATOM      4  C   UNL     1       6.526   4.924  17.370  0.00  0.00    +0.000 A 
ATOM      5  C   UNL     1       5.198   4.579  17.106  0.00  0.00    +0.000 A 
ATOM      6  C   UNL     1       4.869   4.153  15.790  0.00  0.00    +0.000 A 
ATOM      7  C   UNL     1       4.455   4.788  18.331  0.00  0.00    +0.000 A 
ATOM      8  C   UNL     1       5.384   5.171  19.289  0.00  0.00    +0.000 A 
ATOM      9  N   UNL     1       6.601   5.310  18.687  0.00  0.00    +0.000 N 
ATOM     10  C   UNL     1       7.786   5.853  19.314  0.00  0.00    +0.000 C 
ENDROOT
BRANCH   1  13
ATOM     11  C   UNL     1       6.240   3.637  12.405  0.00  0.00    +0.000 C 
ATOM     12  O   UNL     1       7.206   4.404  12.324  0.00  0.00    +0.000 OA
ATOM     13  N   UNL     1       5.557   3.379  13.585  0.00  0.00    +0.000 N 
ATOM     14  H   UNL     1       4.954   2.565  13.611  0.00  0.00    +0.000 HD
BRANCH  11  15
ATOM     15  C   UNL     1       5.737   2.917  11.140  0.00  0.00    +0.000 C 
BRANCH  15  16
ATOM     16  C   UNL     1       4.214   2.733  11.115  0.00  0.00    +0.000 C 
ATOM     17  C   UNL     1       3.448   3.788  10.326  0.00  0.00    +0.000 C 
ENDBRANCH  15  16
BRANCH  15  18
ATOM     18  C   UNL     1       6.531   1.586  11.030  0.00  0.00    +0.000 C 
BRANCH  18  20
ATOM     19  C   UNL     1       6.044  -0.863  11.153  0.00  0.00    +0.000 C 
ATOM     20  C   UNL     1       6.097   0.440  11.941  0.00  0.00    +0.000 C 
ENDBRANCH  18  20
ENDBRANCH  15  18
ENDBRANCH  11  15
ENDBRANCH   1  13
BRANCH   7  21
ATOM     21  C   UNL     1       2.971   4.750  18.533  0.00  0.00    +0.000 C 
BRANCH  21  22
ATOM     22  C   UNL     1       2.455   6.132  18.862  0.00  0.00    +0.000 A 
ATOM     23  C   UNL     1       2.515   7.077  17.811  0.00  0.00    +0.000 A 
ATOM     24  C   UNL     1       2.094   8.396  17.962  0.00  0.00    +0.000 A 
ATOM     25  C   UNL     1       1.605   8.825  19.191  0.00  0.00    +0.000 A 
ATOM     26  C   UNL     1       1.556   7.921  20.257  0.00  0.00    +0.000 A 
ATOM     27  C   UNL     1       1.970   6.580  20.106  0.00  0.00    +0.000 A 
BRANCH  25  28
ATOM     28  C   UNL     1       1.210  10.251  19.317  0.00  0.00    +0.000 C 
ATOM     29  O   UNL     1       1.022  10.788  20.396  0.00  0.00    +0.000 OA
BRANCH  28  30
ATOM     30  O   UNL     1       1.120  10.905  18.140  0.00  0.00    +0.000 OA
ATOM     31  H   UNL     1       1.907  11.416  17.891  0.00  0.00    +0.000 HD
ENDBRANCH  28  30
ENDBRANCH  25  28
BRANCH  27  32
ATOM     32  O   UNL     1       1.750   5.854  21.245  0.00  0.00    +0.000 OA
ATOM     33  C   UNL     1       2.123   4.486  21.272  0.00  0.00    +0.000 C 
ENDBRANCH  27  32
ENDBRANCH  21  22
ENDBRANCH   7  21
TORSDOF 10
ENDMDL
MODEL 8
REMARK VINA RESULT:      -6.9      5.911     10.266
REMARK  Name = 
REMARK  14 active torsions:
REMARK  status: ('A' for Active; 'I' for Inactive)
REMARK    1  A    between atoms: C_1  and  C_2
REMARK    2  A    between atoms: C_2  and  C_3
REMARK    3  A    between atoms: C_3  and  C_4
REMARK    4  A    between atoms: C_4  and  C_5
REMARK    5  A    between atoms: C_4  and  C_7
REMARK    6  A    between atoms: C_5  and  C_6
REMARK    7  A    between atoms: N_9  and  C_10
REMARK    8  A    between atoms: C_16  and  C_17
REMARK    9  A    between atoms: C_17  and  C_18
REMARK   10  A    between atoms: C_21  and  C_22
REMARK   11  A    between atoms: C_22  and  O_24
REMARK   12  A    between atoms: C_26  and  O_27
REMARK   13  A    between atoms: O_27  and  C_28
REMARK   14  A    between atoms: N_30  and  C_31
REMARK                            x       y       z     vdW  Elec       q    Type
REMARK                         _______ _______ _______ _____ _____    ______ ____
ROOT
ATOM      1  C   UNL     1      -3.189  10.779  17.759  0.00  0.00    +0.000 A 
ATOM      2  C   UNL     1      -2.520   9.880  16.932  0.00  0.00    +0.000 A 
ATOM      3  C   UNL     1      -1.165   9.601  17.092  0.00  0.00    +0.000 A 
ATOM      4  C   UNL     1      -0.476  10.255  18.116  0.00  0.00    +0.000 A 
ATOM      5  C   UNL     1      -1.081  11.216  18.930  0.00  0.00    +0.000 A 
ATOM      6  C   UNL     1      -2.452  11.514  18.704  0.00  0.00    +0.000 A 
ATOM      7  C   UNL     1      -0.062  11.704  19.837  0.00  0.00    +0.000 A 
ATOM      8  C   UNL     1       1.079  10.958  19.578  0.00  0.00    +0.000 A 
ATOM      9  N   UNL     1       0.838  10.145  18.508  0.00  0.00    +0.000 N 
ATOM     10  C   UNL     1       1.828   9.338  17.832  0.00  0.00    +0.000 C 
ENDROOT
BRANCH   1  13
ATOM     11  C   UNL     1      -5.299  11.837  18.499  0.00  0.00    +0.000 C 
ATOM     12  O   UNL     1      -4.769  12.562  19.349  0.00  0.00    +0.000 OA
ATOM     13  N   UNL     1      -4.595  10.959  17.687  0.00  0.00    +0.000 N 
ATOM     14  H   UNL     1      -5.066  10.598  16.864  0.00  0.00    +0.000 HD
BRANCH  11  15
ATOM     15  C   UNL     1      -6.827  11.883  18.311  0.00  0.00    +0.000 C 
BRANCH  15  16
ATOM     16  C   UNL     1      -7.266  12.785  17.150  0.00  0.00    +0.000 C 
ATOM     17  C   UNL     1      -6.984  14.270  17.341  0.00  0.00    +0.000 C 
ENDBRANCH  15  16
BRANCH  15  18
ATOM     18  C   UNL     1      -7.440  12.283  19.682  0.00  0.00    +0.000 C 
BRANCH  18  20
ATOM     19  C   UNL     1      -7.469   9.841  20.214  0.00  0.00    +0.000 C 
ATOM     20  C   UNL     1      -7.381  11.245  20.800  0.00  0.00    +0.000 C 
ENDBRANCH  18  20
ENDBRANCH  15  18
ENDBRANCH  11  15
ENDBRANCH   1  13
BRANCH   7  21
ATOM     21  C   UNL     1      -0.140  12.868  20.777  0.00  0.00    +0.000 C 
BRANCH  21  22
ATOM     22  C   UNL     1      -1.245  12.650  21.785  0.00  0.00    +0.000 A 
ATOM     23  C   UNL     1      -2.380  13.483  21.642  0.00  0.00    +0.000 A 
ATOM     24  C   UNL     1      -3.474  13.414  22.502  0.00  0.00    +0.000 A 
ATOM     25  C   UNL     1      -3.463  12.509  23.557  0.00  0.00    +0.000 A 
ATOM     26  C   UNL     1      -2.346  11.688  23.739  0.00  0.00    +0.000 A 
ATOM     27  C   UNL     1      -1.239  11.745  22.864  0.00  0.00    +0.000 A 
BRANCH  25  28
ATOM     28  C   UNL     1      -4.632  12.504  24.473  0.00  0.00    +0.000 C 
ATOM     29  O   UNL     1      -5.772  12.316  24.083  0.00  0.00    +0.000 OA
BRANCH  28  30
ATOM     30  O   UNL     1      -4.315  12.681  25.773  0.00  0.00    +0.000 OA
ATOM     31  H   UNL     1      -4.837  12.154  26.400  0.00  0.00    +0.000 HD
ENDBRANCH  28  30
ENDBRANCH  25  28
BRANCH  27  32
ATOM     32  O   UNL     1      -0.304  10.796  23.173  0.00  0.00    +0.000 OA
ATOM     33  C   UNL     1      -0.538   9.449  22.796  0.00  0.00    +0.000 C 
ENDBRANCH  27  32
ENDBRANCH  21  22
ENDBRANCH   7  21
TORSDOF 10
ENDMDL
MODEL 9
REMARK VINA RESULT:      -6.8      3.885      7.438
REMARK  Name = 
REMARK  14 active torsions:
REMARK  status: ('A' for Active; 'I' for Inactive)
REMARK    1  A    between atoms: C_1  and  C_2
REMARK    2  A    between atoms: C_2  and  C_3
REMARK    3  A    between atoms: C_3  and  C_4
REMARK    4  A    between atoms: C_4  and  C_5
REMARK    5  A    between atoms: C_4  and  C_7
REMARK    6  A    between atoms: C_5  and  C_6
REMARK    7  A    between atoms: N_9  and  C_10
REMARK    8  A    between atoms: C_16  and  C_17
REMARK    9  A    between atoms: C_17  and  C_18
REMARK   10  A    between atoms: C_21  and  C_22
REMARK   11  A    between atoms: C_22  and  O_24
REMARK   12  A    between atoms: C_26  and  O_27
REMARK   13  A    between atoms: O_27  and  C_28
REMARK   14  A    between atoms: N_30  and  C_31
REMARK                            x       y       z     vdW  Elec       q    Type
REMARK                         _______ _______ _______ _____ _____    ______ ____
ROOT
ATOM      1  C   UNL     1       1.675   9.396  18.346  0.00  0.00    +0.000 A 
ATOM      2  C   UNL     1       2.619  10.408  18.189  0.00  0.00    +0.000 A 
ATOM      3  C   UNL     1       2.279  11.755  18.291  0.00  0.00    +0.000 A 
ATOM      4  C   UNL     1       0.945  12.077  18.556  0.00  0.00    +0.000 A 
ATOM      5  C   UNL     1      -0.054  11.105  18.654  0.00  0.00    +0.000 A 
ATOM      6  C   UNL     1       0.321   9.745  18.492  0.00  0.00    +0.000 A 
ATOM      7  C   UNL     1      -1.301  11.804  18.888  0.00  0.00    +0.000 A 
ATOM      8  C   UNL     1      -0.979  13.150  18.998  0.00  0.00    +0.000 A 
ATOM      9  N   UNL     1       0.351  13.304  18.734  0.00  0.00    +0.000 N 
ATOM     10  C   UNL     1       1.033  14.571  18.587  0.00  0.00    +0.000 C 
ENDROOT
BRANCH   1  13
ATOM     11  C   UNL     1       2.122   7.282  19.549  0.00  0.00    +0.000 C 
ATOM     12  O   UNL     1       1.858   7.732  20.669  0.00  0.00    +0.000 OA
ATOM     13  N   UNL     1       2.044   8.027  18.380  0.00  0.00    +0.000 N 
ATOM     14  H   UNL     1       2.033   7.522  17.501  0.00  0.00    +0.000 HD
BRANCH  11  15
ATOM     15  C   UNL     1       2.573   5.816  19.409  0.00  0.00    +0.000 C 
BRANCH  15  16
ATOM     16  C   UNL     1       2.624   5.335  17.953  0.00  0.00    +0.000 C 
ATOM     17  C   UNL     1       1.594   4.274  17.586  0.00  0.00    +0.000 C 
ENDBRANCH  15  16
BRANCH  15  18
ATOM     18  C   UNL     1       1.642   4.966  20.318  0.00  0.00    +0.000 C 
BRANCH  18  20
ATOM     19  C   UNL     1       2.820   2.823  20.835  0.00  0.00    +0.000 C 
ATOM     20  C   UNL     1       2.307   4.136  21.413  0.00  0.00    +0.000 C 
ENDBRANCH  18  20
ENDBRANCH  15  18
ENDBRANCH  11  15
ENDBRANCH   1  13
BRANCH   7  21
ATOM     21  C   UNL     1      -2.692  11.246  18.878  0.00  0.00    +0.000 C 
BRANCH  21  22
ATOM     22  C   UNL     1      -3.113  10.927  17.462  0.00  0.00    +0.000 A 
ATOM     23  C   UNL     1      -2.298   9.998  16.772  0.00  0.00    +0.000 A 
ATOM     24  C   UNL     1      -2.545   9.614  15.457  0.00  0.00    +0.000 A 
ATOM     25  C   UNL     1      -3.622  10.164  14.771  0.00  0.00    +0.000 A 
ATOM     26  C   UNL     1      -4.433  11.103  15.417  0.00  0.00    +0.000 A 
ATOM     27  C   UNL     1      -4.194  11.487  16.754  0.00  0.00    +0.000 A 
BRANCH  25  28
ATOM     28  C   UNL     1      -3.820   9.758  13.356  0.00  0.00    +0.000 C 
ATOM     29  O   UNL     1      -2.889   9.528  12.602  0.00  0.00    +0.000 OA
BRANCH  28  30
ATOM     30  O   UNL     1      -5.114   9.626  12.995  0.00  0.00    +0.000 OA
ATOM     31  H   UNL     1      -5.677   9.172  13.643  0.00  0.00    +0.000 HD
ENDBRANCH  28  30
ENDBRANCH  25  28
BRANCH  27  32
ATOM     32  O   UNL     1      -5.159  12.342  17.212  0.00  0.00    +0.000 OA
ATOM     33  C   UNL     1      -6.398  11.811  17.651  0.00  0.00    +0.000 C 
ENDBRANCH  27  32
ENDBRANCH  21  22
ENDBRANCH   7  21
TORSDOF 10
ENDMDL
