MODEL 1
REMARK VINA RESULT:      -8.1      0.000      0.000
REMARK  Name = 
REMARK  6 active torsions:
REMARK  status: ('A' for Active; 'I' for Inactive)
REMARK    1  A    between atoms: C_2  and  C_4
REMARK    2  A    between atoms: C_9  and  N_10
REMARK    3  A    between atoms: C_11  and  C_13
REMARK    4  A    between atoms: C_15  and  S_16
REMARK    5  A    between atoms: S_16  and  N_19
REMARK    6  A    between atoms: C_27  and  N_28
REMARK                            x       y       z     vdW  Elec       q    Type
REMARK                         _______ _______ _______ _____ _____    ______ ____
ROOT
ATOM      1  C   UNL     1       2.131   6.799  18.950  0.00  0.00    +0.000 A 
ATOM      2  C   UNL     1       2.049   8.183  18.698  0.00  0.00    +0.000 A 
ATOM      3  C   UNL     1       1.342   9.020  19.560  0.00  0.00    +0.000 A 
ATOM      4  C   UNL     1       0.744   8.499  20.702  0.00  0.00    +0.000 A 
ATOM      5  C   UNL     1       0.866   7.131  20.982  0.00  0.00    +0.000 A 
ATOM      6  C   UNL     1       1.564   6.241  20.134  0.00  0.00    +0.000 A 
ENDROOT
BRANCH   6   7
ATOM      7  N   UNL     1       1.707   4.912  20.510  0.00  0.00    +0.000 N 
ATOM      8  C   UNL     1       2.637   4.474  21.567  0.00  0.00    +0.000 C 
ATOM      9  C   UNL     1       3.140   3.045  21.256  0.00  0.00    +0.000 C 
ATOM     10  O   UNL     1       2.058   2.120  21.043  0.00  0.00    +0.000 OA
ATOM     11  C   UNL     1       1.228   2.577  19.957  0.00  0.00    +0.000 C 
ATOM     12  C   UNL     1       0.618   3.950  20.279  0.00  0.00    +0.000 C 
ENDBRANCH   6   7
BRANCH   1  14
ATOM     13  N   UNL     1       4.253   6.503  17.741  0.00  0.00    +0.000 N 
ATOM     14  C   UNL     1       2.968   6.012  17.983  0.00  0.00    +0.000 C 
ATOM     15  O   UNL     1       2.491   5.005  17.474  0.00  0.00    +0.000 OA
ATOM     16  H   UNL     1       4.520   7.399  18.152  0.00  0.00    +0.000 HD
BRANCH  13  22
ATOM     17  C   UNL     1       6.435   5.347  17.586  0.00  0.00    +0.000 A 
ATOM     18  C   UNL     1       7.430   4.738  16.788  0.00  0.00    +0.000 A 
ATOM     19  C   UNL     1       7.303   4.677  15.402  0.00  0.00    +0.000 A 
ATOM     20  C   UNL     1       6.174   5.202  14.796  0.00  0.00    +0.000 A 
ATOM     21  C   UNL     1       5.171   5.792  15.571  0.00  0.00    +0.000 A 
ATOM     22  C   UNL     1       5.278   5.888  16.966  0.00  0.00    +0.000 A 
BRANCH  17  24
ATOM     23  N   UNL     1       7.861   5.631  19.568  0.00  0.00    +0.000 N 
ATOM     24  C   UNL     1       6.606   5.369  19.074  0.00  0.00    +0.000 C 
ATOM     25  O   UNL     1       5.663   5.177  19.836  0.00  0.00    +0.000 OA
ATOM     26  H   UNL     1       7.980   5.641  20.573  0.00  0.00    +0.000 HD
ATOM     27  H   UNL     1       8.621   5.997  19.014  0.00  0.00    +0.000 HD
ENDBRANCH  17  24
ENDBRANCH  13  22
ENDBRANCH   1  14
BRANCH   3  28
ATOM     28  S   UNL     1       1.338  10.780  19.242  0.00  0.00    +0.000 S 
ATOM     29  O   UNL     1       1.483  11.449  20.516  0.00  0.00    +0.000 OA
ATOM     30  O   UNL     1       2.281  11.015  18.164  0.00  0.00    +0.000 OA
BRANCH  28  31
ATOM     31  N   UNL     1      -0.242  11.074  18.647  0.00  0.00    +0.000 NA
ATOM     32  C   UNL     1      -0.781  10.035  17.725  0.00  0.00    +0.000 C 
ATOM     33  C   UNL     1      -2.101  10.476  17.102  0.00  0.00    +0.000 C 
ATOM     34  C   UNL     1      -3.104  10.878  18.174  0.00  0.00    +0.000 C 
ATOM     35  C   UNL     1      -2.517  12.001  19.017  0.00  0.00    +0.000 C 
ATOM     36  C   UNL     1      -1.203  11.575  19.662  0.00  0.00    +0.000 C 
ENDBRANCH  28  31
ENDBRANCH   3  28
TORSDOF 6
ENDMDL
MODEL 2
REMARK VINA RESULT:      -7.8      1.156      1.469
REMARK  Name = 
REMARK  6 active torsions:
REMARK  status: ('A' for Active; 'I' for Inactive)
REMARK    1  A    between atoms: C_2  and  C_4
REMARK    2  A    between atoms: C_9  and  N_10
REMARK    3  A    between atoms: C_11  and  C_13
REMARK    4  A    between atoms: C_15  and  S_16
REMARK    5  A    between atoms: S_16  and  N_19
REMARK    6  A    between atoms: C_27  and  N_28
REMARK                            x       y       z     vdW  Elec       q    Type
REMARK                         _______ _______ _______ _____ _____    ______ ____
ROOT
ATOM      1  C   UNL     1       2.376   7.195  18.931  0.00  0.00    +0.000 A 
ATOM      2  C   UNL     1       2.041   8.542  19.172  0.00  0.00    +0.000 A 
ATOM      3  C   UNL     1       1.173   8.883  20.208  0.00  0.00    +0.000 A 
ATOM      4  C   UNL     1       0.660   7.895  21.040  0.00  0.00    +0.000 A 
ATOM      5  C   UNL     1       1.029   6.558  20.833  0.00  0.00    +0.000 A 
ATOM      6  C   UNL     1       1.899   6.162  19.792  0.00  0.00    +0.000 A 
ENDROOT
BRANCH   6   7
ATOM      7  N   UNL     1       2.280   4.831  19.691  0.00  0.00    +0.000 N 
ATOM      8  C   UNL     1       3.049   4.136  20.739  0.00  0.00    +0.000 C 
ATOM      9  C   UNL     1       3.939   3.047  20.095  0.00  0.00    +0.000 C 
ATOM     10  O   UNL     1       3.182   2.147  19.264  0.00  0.00    +0.000 OA
ATOM     11  C   UNL     1       2.510   2.885  18.225  0.00  0.00    +0.000 C 
ATOM     12  C   UNL     1       1.531   3.903  18.828  0.00  0.00    +0.000 C 
ENDBRANCH   6   7
BRANCH   1  14
ATOM     13  N   UNL     1       4.278   5.922  18.027  0.00  0.00    +0.000 N 
ATOM     14  C   UNL     1       3.365   6.960  17.825  0.00  0.00    +0.000 C 
ATOM     15  O   UNL     1       3.315   7.671  16.829  0.00  0.00    +0.000 OA
ATOM     16  H   UNL     1       4.287   5.448  18.931  0.00  0.00    +0.000 HD
BRANCH  13  22
ATOM     17  C   UNL     1       6.608   5.339  17.436  0.00  0.00    +0.000 A 
ATOM     18  C   UNL     1       7.528   4.832  16.490  0.00  0.00    +0.000 A 
ATOM     19  C   UNL     1       7.111   4.430  15.224  0.00  0.00    +0.000 A 
ATOM     20  C   UNL     1       5.768   4.508  14.891  0.00  0.00    +0.000 A 
ATOM     21  C   UNL     1       4.842   4.990  15.820  0.00  0.00    +0.000 A 
ATOM     22  C   UNL     1       5.233   5.422  17.096  0.00  0.00    +0.000 A 
BRANCH  17  24
ATOM     23  N   UNL     1       8.077   6.705  18.858  0.00  0.00    +0.000 N 
ATOM     24  C   UNL     1       7.102   5.738  18.792  0.00  0.00    +0.000 C 
ATOM     25  O   UNL     1       6.649   5.239  19.819  0.00  0.00    +0.000 OA
ATOM     26  H   UNL     1       8.416   6.972  19.773  0.00  0.00    +0.000 HD
ATOM     27  H   UNL     1       8.340   7.295  18.083  0.00  0.00    +0.000 HD
ENDBRANCH  17  24
ENDBRANCH  13  22
ENDBRANCH   1  14
BRANCH   3  28
ATOM     28  S   UNL     1       0.846  10.612  20.525  0.00  0.00    +0.000 S 
ATOM     29  O   UNL     1       0.804  10.786  21.961  0.00  0.00    +0.000 OA
ATOM     30  O   UNL     1       1.773  11.373  19.708  0.00  0.00    +0.000 OA
BRANCH  28  31
ATOM     31  N   UNL     1      -0.733  10.841  19.901  0.00  0.00    +0.000 NA
ATOM     32  C   UNL     1      -1.343  12.172  20.178  0.00  0.00    +0.000 C 
ATOM     33  C   UNL     1      -2.808  12.212  19.757  0.00  0.00    +0.000 C 
ATOM     34  C   UNL     1      -2.969  11.791  18.303  0.00  0.00    +0.000 C 
ATOM     35  C   UNL     1      -2.404  10.389  18.119  0.00  0.00    +0.000 C 
ATOM     36  C   UNL     1      -0.934  10.332  18.521  0.00  0.00    +0.000 C 
ENDBRANCH  28  31
ENDBRANCH   3  28
TORSDOF 6
ENDMDL
MODEL 3
REMARK VINA RESULT:      -7.7      1.766      2.086
REMARK  Name = 
REMARK  6 active torsions:
REMARK  status: ('A' for Active; 'I' for Inactive)
REMARK    1  A    between atoms: C_2  and  C_4
REMARK    2  A    between atoms: C_9  and  N_10
REMARK    3  A    between atoms: C_11  and  C_13
REMARK    4  A    between atoms: C_15  and  S_16
REMARK    5  A    between atoms: S_16  and  N_19
REMARK    6  A    between atoms: C_27  and  N_28
REMARK                            x       y       z     vdW  Elec       q    Type
REMARK                         _______ _______ _______ _____ _____    ______ ____
ROOT
ATOM      1  C   UNL     1       2.542   6.440  19.140  0.00  0.00    +0.000 A 
ATOM      2  C   UNL     1       2.180   7.685  19.694  0.00  0.00    +0.000 A 
ATOM      3  C   UNL     1       1.292   7.752  20.767  0.00  0.00    +0.000 A 
ATOM      4  C   UNL     1       0.786   6.584  21.327  0.00  0.00    +0.000 A 
ATOM      5  C   UNL     1       1.183   5.342  20.810  0.00  0.00    +0.000 A 
ATOM      6  C   UNL     1       2.073   5.223  19.718  0.00  0.00    +0.000 A 
ENDROOT
BRANCH   6   7
ATOM      7  N   UNL     1       2.479   3.962  19.305  0.00  0.00    +0.000 N 
ATOM      8  C   UNL     1       3.364   3.101  20.111  0.00  0.00    +0.000 C 
ATOM      9  C   UNL     1       4.217   2.213  19.176  0.00  0.00    +0.000 C 
ATOM     10  O   UNL     1       3.411   1.470  18.243  0.00  0.00    +0.000 OA
ATOM     11  C   UNL     1       2.622   2.376  17.446  0.00  0.00    +0.000 C 
ATOM     12  C   UNL     1       1.677   3.200  18.334  0.00  0.00    +0.000 C 
ENDBRANCH   6   7
BRANCH   1  14
ATOM     13  N   UNL     1       4.320   5.345  17.840  0.00  0.00    +0.000 N 
ATOM     14  C   UNL     1       3.549   6.494  18.027  0.00  0.00    +0.000 C 
ATOM     15  O   UNL     1       3.634   7.517  17.358  0.00  0.00    +0.000 OA
ATOM     16  H   UNL     1       4.227   4.579  18.509  0.00  0.00    +0.000 HD
BRANCH  13  22
ATOM     17  C   UNL     1       6.643   5.304  16.990  0.00  0.00    +0.000 A 
ATOM     18  C   UNL     1       7.542   5.040  15.932  0.00  0.00    +0.000 A 
ATOM     19  C   UNL     1       7.085   4.597  14.693  0.00  0.00    +0.000 A 
ATOM     20  C   UNL     1       5.729   4.390  14.500  0.00  0.00    +0.000 A 
ATOM     21  C   UNL     1       4.828   4.629  15.540  0.00  0.00    +0.000 A 
ATOM     22  C   UNL     1       5.253   5.095  16.793  0.00  0.00    +0.000 A 
BRANCH  17  24
ATOM     23  N   UNL     1       7.879   6.943  18.342  0.00  0.00    +0.000 N 
ATOM     24  C   UNL     1       7.184   5.758  18.310  0.00  0.00    +0.000 C 
ATOM     25  O   UNL     1       7.007   5.112  19.339  0.00  0.00    +0.000 OA
ATOM     26  H   UNL     1       8.251   7.249  19.232  0.00  0.00    +0.000 HD
ATOM     27  H   UNL     1       7.882   7.616  17.590  0.00  0.00    +0.000 HD
ENDBRANCH  17  24
ENDBRANCH  13  22
ENDBRANCH   1  14
BRANCH   3  28
ATOM     28  S   UNL     1       0.930   9.348  21.487  0.00  0.00    +0.000 S 
ATOM     29  O   UNL     1      -0.277   9.204  22.271  0.00  0.00    +0.000 OA
ATOM     30  O   UNL     1       2.160   9.826  22.092  0.00  0.00    +0.000 OA
BRANCH  28  31
ATOM     31  N   UNL     1       0.584  10.331  20.127  0.00  0.00    +0.000 NA
ATOM     32  C   UNL     1      -0.793  10.194  19.574  0.00  0.00    +0.000 C 
ATOM     33  C   UNL     1      -0.944  10.954  18.261  0.00  0.00    +0.000 C 
ATOM     34  C   UNL     1      -0.525  12.409  18.422  0.00  0.00    +0.000 C 
ATOM     35  C   UNL     1       0.918  12.467  18.903  0.00  0.00    +0.000 C 
ATOM     36  C   UNL     1       1.086  11.724  20.224  0.00  0.00    +0.000 C 
ENDBRANCH  28  31
ENDBRANCH   3  28
TORSDOF 6
ENDMDL
MODEL 4
REMARK VINA RESULT:      -7.5      0.793      1.191
REMARK  Name = 
REMARK  6 active torsions:
REMARK  status: ('A' for Active; 'I' for Inactive)
REMARK    1  A    between atoms: C_2  and  C_4
REMARK    2  A    between atoms: C_9  and  N_10
REMARK    3  A    between atoms: C_11  and  C_13
REMARK    4  A    between atoms: C_15  and  S_16
REMARK    5  A    between atoms: S_16  and  N_19
REMARK    6  A    between atoms: C_27  and  N_28
REMARK                            x       y       z     vdW  Elec       q    Type
REMARK                         _______ _______ _______ _____ _____    ______ ____
ROOT
ATOM      1  C   UNL     1       2.423   6.619  18.830  0.00  0.00    +0.000 A 
ATOM      2  C   UNL     1       2.134   7.969  18.545  0.00  0.00    +0.000 A 
ATOM      3  C   UNL     1       1.497   8.773  19.488  0.00  0.00    +0.000 A 
ATOM      4  C   UNL     1       1.175   8.258  20.739  0.00  0.00    +0.000 A 
ATOM      5  C   UNL     1       1.505   6.929  21.044  0.00  0.00    +0.000 A 
ATOM      6  C   UNL     1       2.143   6.073  20.118  0.00  0.00    +0.000 A 
ENDROOT
BRANCH   6   7
ATOM      7  N   UNL     1       2.506   4.792  20.513  0.00  0.00    +0.000 N 
ATOM      8  C   UNL     1       3.881   4.274  20.387  0.00  0.00    +0.000 C 
ATOM      9  C   UNL     1       3.841   2.746  20.158  0.00  0.00    +0.000 C 
ATOM     10  O   UNL     1       3.076   2.064  21.168  0.00  0.00    +0.000 OA
ATOM     11  C   UNL     1       1.728   2.574  21.191  0.00  0.00    +0.000 C 
ATOM     12  C   UNL     1       1.720   4.073  21.528  0.00  0.00    +0.000 C 
ENDBRANCH   6   7
BRANCH   1  14
ATOM     13  N   UNL     1       4.423   6.372  17.420  0.00  0.00    +0.000 N 
ATOM     14  C   UNL     1       3.163   5.873  17.758  0.00  0.00    +0.000 C 
ATOM     15  O   UNL     1       2.636   4.889  17.253  0.00  0.00    +0.000 OA
ATOM     16  H   UNL     1       4.731   7.249  17.842  0.00  0.00    +0.000 HD
BRANCH  13  22
ATOM     17  C   UNL     1       6.698   5.520  16.950  0.00  0.00    +0.000 A 
ATOM     18  C   UNL     1       7.609   4.935  16.042  0.00  0.00    +0.000 A 
ATOM     19  C   UNL     1       7.231   4.636  14.735  0.00  0.00    +0.000 A 
ATOM     20  C   UNL     1       5.935   4.896  14.323  0.00  0.00    +0.000 A 
ATOM     21  C   UNL     1       5.015   5.457  15.213  0.00  0.00    +0.000 A 
ATOM     22  C   UNL     1       5.369   5.789  16.529  0.00  0.00    +0.000 A 
BRANCH  17  24
ATOM     23  N   UNL     1       7.977   6.879  18.550  0.00  0.00    +0.000 N 
ATOM     24  C   UNL     1       7.145   5.804  18.351  0.00  0.00    +0.000 C 
ATOM     25  O   UNL     1       6.776   5.117  19.299  0.00  0.00    +0.000 OA
ATOM     26  H   UNL     1       8.285   7.069  19.495  0.00  0.00    +0.000 HD
ATOM     27  H   UNL     1       8.148   7.596  17.861  0.00  0.00    +0.000 HD
ENDBRANCH  17  24
ENDBRANCH  13  22
ENDBRANCH   1  14
BRANCH   3  28
ATOM     28  S   UNL     1       1.229  10.500  19.109  0.00  0.00    +0.000 S 
ATOM     29  O   UNL     1       1.514  11.254  20.310  0.00  0.00    +0.000 OA
ATOM     30  O   UNL     1       1.933  10.774  17.870  0.00  0.00    +0.000 OA
BRANCH  28  31
ATOM     31  N   UNL     1      -0.455  10.584  18.800  0.00  0.00    +0.000 NA
ATOM     32  C   UNL     1      -1.087  11.908  19.060  0.00  0.00    +0.000 C 
ATOM     33  C   UNL     1      -2.605  11.832  18.944  0.00  0.00    +0.000 C 
ATOM     34  C   UNL     1      -3.021  11.244  17.602  0.00  0.00    +0.000 C 
ATOM     35  C   UNL     1      -2.409   9.859  17.449  0.00  0.00    +0.000 C 
ATOM     36  C   UNL     1      -0.889   9.915  17.547  0.00  0.00    +0.000 C 
ENDBRANCH  28  31
ENDBRANCH   3  28
TORSDOF 6
ENDMDL
MODEL 5
REMARK VINA RESULT:      -7.3      1.792      2.227
REMARK  Name = 
REMARK  6 active torsions:
REMARK  status: ('A' for Active; 'I' for Inactive)
REMARK    1  A    between atoms: C_2  and  C_4
REMARK    2  A    between atoms: C_9  and  N_10
REMARK    3  A    between atoms: C_11  and  C_13
REMARK    4  A    between atoms: C_15  and  S_16
REMARK    5  A    between atoms: S_16  and  N_19
REMARK    6  A    between atoms: C_27  and  N_28
REMARK                            x       y       z     vdW  Elec       q    Type
REMARK                         _______ _______ _______ _____ _____    ______ ____
ROOT
ATOM      1  C   UNL     1       2.532   6.373  18.583  0.00  0.00    +0.000 A 
ATOM      2  C   UNL     1       2.133   7.666  18.187  0.00  0.00    +0.000 A 
ATOM      3  C   UNL     1       1.521   8.529  19.095  0.00  0.00    +0.000 A 
ATOM      4  C   UNL     1       1.336   8.133  20.415  0.00  0.00    +0.000 A 
ATOM      5  C   UNL     1       1.776   6.866  20.825  0.00  0.00    +0.000 A 
ATOM      6  C   UNL     1       2.393   5.953  19.940  0.00  0.00    +0.000 A 
ENDROOT
BRANCH   6   7
ATOM      7  N   UNL     1       2.870   4.745  20.430  0.00  0.00    +0.000 N 
ATOM      8  C   UNL     1       4.238   4.259  20.171  0.00  0.00    +0.000 C 
ATOM      9  C   UNL     1       4.242   2.714  20.137  0.00  0.00    +0.000 C 
ATOM     10  O   UNL     1       3.659   2.141  21.323  0.00  0.00    +0.000 OA
ATOM     11  C   UNL     1       2.304   2.608  21.478  0.00  0.00    +0.000 C 
ATOM     12  C   UNL     1       2.270   4.137  21.627  0.00  0.00    +0.000 C 
ENDBRANCH   6   7
BRANCH   1  14
ATOM     13  N   UNL     1       4.386   6.125  16.985  0.00  0.00    +0.000 N 
ATOM     14  C   UNL     1       3.231   5.560  17.532  0.00  0.00    +0.000 C 
ATOM     15  O   UNL     1       2.765   4.470  17.223  0.00  0.00    +0.000 OA
ATOM     16  H   UNL     1       4.639   7.077  17.253  0.00  0.00    +0.000 HD
BRANCH  13  22
ATOM     17  C   UNL     1       6.693   5.667  16.219  0.00  0.00    +0.000 A 
ATOM     18  C   UNL     1       7.562   5.045  15.294  0.00  0.00    +0.000 A 
ATOM     19  C   UNL     1       7.065   4.302  14.226  0.00  0.00    +0.000 A 
ATOM     20  C   UNL     1       5.696   4.152  14.079  0.00  0.00    +0.000 A 
ATOM     21  C   UNL     1       4.822   4.745  14.994  0.00  0.00    +0.000 A 
ATOM     22  C   UNL     1       5.290   5.517  16.068  0.00  0.00    +0.000 A 
BRANCH  17  24
ATOM     23  N   UNL     1       7.721   7.714  17.113  0.00  0.00    +0.000 N 
ATOM     24  C   UNL     1       7.276   6.438  17.363  0.00  0.00    +0.000 C 
ATOM     25  O   UNL     1       7.346   5.964  18.493  0.00  0.00    +0.000 OA
ATOM     26  H   UNL     1       8.121   8.235  17.883  0.00  0.00    +0.000 HD
ATOM     27  H   UNL     1       7.507   8.232  16.274  0.00  0.00    +0.000 HD
ENDBRANCH  17  24
ENDBRANCH  13  22
ENDBRANCH   1  14
BRANCH   3  28
ATOM     28  S   UNL     1       1.110  10.187  18.566  0.00  0.00    +0.000 S 
ATOM     29  O   UNL     1       2.303  10.761  17.983  0.00  0.00    +0.000 OA
ATOM     30  O   UNL     1      -0.122  10.093  17.805  0.00  0.00    +0.000 OA
BRANCH  28  31
ATOM     31  N   UNL     1       0.774  11.002  20.034  0.00  0.00    +0.000 NA
ATOM     32  C   UNL     1       1.070  12.463  20.037  0.00  0.00    +0.000 C 
ATOM     33  C   UNL     1       0.923  13.058  21.433  0.00  0.00    +0.000 C 
ATOM     34  C   UNL     1      -0.446  12.742  22.020  0.00  0.00    +0.000 C 
ATOM     35  C   UNL     1      -0.637  11.233  22.066  0.00  0.00    +0.000 C 
ATOM     36  C   UNL     1      -0.509  10.620  20.676  0.00  0.00    +0.000 C 
ENDBRANCH  28  31
ENDBRANCH   3  28
TORSDOF 6
ENDMDL
MODEL 6
REMARK VINA RESULT:      -7.1      1.411      1.446
REMARK  Name = 
REMARK  6 active torsions:
REMARK  status: ('A' for Active; 'I' for Inactive)
REMARK    1  A    between atoms: C_2  and  C_4
REMARK    2  A    between atoms: C_9  and  N_10
REMARK    3  A    between atoms: C_11  and  C_13
REMARK    4  A    between atoms: C_15  and  S_16
REMARK    5  A    between atoms: S_16  and  N_19
REMARK    6  A    between atoms: C_27  and  N_28
REMARK                            x       y       z     vdW  Elec       q    Type
REMARK                         _______ _______ _______ _____ _____    ______ ____
ROOT
ATOM      1  C   UNL     1       2.537   7.443  18.529  0.00  0.00    +0.000 A 
ATOM      2  C   UNL     1       2.197   8.799  18.710  0.00  0.00    +0.000 A 
ATOM      3  C   UNL     1       1.392   9.193  19.778  0.00  0.00    +0.000 A 
ATOM      4  C   UNL     1       0.949   8.251  20.700  0.00  0.00    +0.000 A 
ATOM      5  C   UNL     1       1.326   6.908  20.551  0.00  0.00    +0.000 A 
ATOM      6  C   UNL     1       2.133   6.460  19.481  0.00  0.00    +0.000 A 
ENDROOT
BRANCH   6   7
ATOM      7  N   UNL     1       2.528   5.130  19.435  0.00  0.00    +0.000 N 
ATOM      8  C   UNL     1       3.499   4.550  20.381  0.00  0.00    +0.000 C 
ATOM      9  C   UNL     1       4.285   3.413  19.686  0.00  0.00    +0.000 C 
ATOM     10  O   UNL     1       3.414   2.427  19.102  0.00  0.00    +0.000 OA
ATOM     11  C   UNL     1       2.538   3.052  18.143  0.00  0.00    +0.000 C 
ATOM     12  C   UNL     1       1.659   4.113  18.821  0.00  0.00    +0.000 C 
ENDBRANCH   6   7
BRANCH   1  14
ATOM     13  N   UNL     1       4.337   6.083  17.549  0.00  0.00    +0.000 N 
ATOM     14  C   UNL     1       3.456   7.153  17.378  0.00  0.00    +0.000 C 
ATOM     15  O   UNL     1       3.380   7.850  16.373  0.00  0.00    +0.000 OA
ATOM     16  H   UNL     1       4.376   5.623  18.460  0.00  0.00    +0.000 HD
BRANCH  13  22
ATOM     17  C   UNL     1       6.607   5.839  16.596  0.00  0.00    +0.000 A 
ATOM     18  C   UNL     1       7.458   5.269  15.622  0.00  0.00    +0.000 A 
ATOM     19  C   UNL     1       6.956   4.427  14.632  0.00  0.00    +0.000 A 
ATOM     20  C   UNL     1       5.604   4.125  14.615  0.00  0.00    +0.000 A 
ATOM     21  C   UNL     1       4.751   4.665  15.581  0.00  0.00    +0.000 A 
ATOM     22  C   UNL     1       5.222   5.532  16.578  0.00  0.00    +0.000 A 
BRANCH  17  24
ATOM     23  N   UNL     1       7.514   8.012  17.303  0.00  0.00    +0.000 N 
ATOM     24  C   UNL     1       7.197   6.721  17.653  0.00  0.00    +0.000 C 
ATOM     25  O   UNL     1       7.382   6.322  18.800  0.00  0.00    +0.000 OA
ATOM     26  H   UNL     1       7.918   8.608  18.014  0.00  0.00    +0.000 HD
ATOM     27  H   UNL     1       7.202   8.460  16.455  0.00  0.00    +0.000 HD
ENDBRANCH  17  24
ENDBRANCH  13  22
ENDBRANCH   1  14
BRANCH   3  28
ATOM     28  S   UNL     1       1.059  10.934  20.011  0.00  0.00    +0.000 S 
ATOM     29  O   UNL     1       0.816  11.141  21.422  0.00  0.00    +0.000 OA
ATOM     30  O   UNL     1       2.108  11.660  19.320  0.00  0.00    +0.000 OA
BRANCH  28  31
ATOM     31  N   UNL     1      -0.410  11.176  19.163  0.00  0.00    +0.000 NA
ATOM     32  C   UNL     1      -0.758  10.119  18.172  0.00  0.00    +0.000 C 
ATOM     33  C   UNL     1      -1.970  10.516  17.337  0.00  0.00    +0.000 C 
ATOM     34  C   UNL     1      -3.148  10.887  18.228  0.00  0.00    +0.000 C 
ATOM     35  C   UNL     1      -2.743  12.029  19.147  0.00  0.00    +0.000 C 
ATOM     36  C   UNL     1      -1.541  11.647  20.003  0.00  0.00    +0.000 C 
ENDBRANCH  28  31
ENDBRANCH   3  28
TORSDOF 6
ENDMDL
MODEL 7
REMARK VINA RESULT:      -7.0      1.913      2.391
REMARK  Name = 
REMARK  6 active torsions:
REMARK  status: ('A' for Active; 'I' for Inactive)
REMARK    1  A    between atoms: C_2  and  C_4
REMARK    2  A    between atoms: C_9  and  N_10
REMARK    3  A    between atoms: C_11  and  C_13
REMARK    4  A    between atoms: C_15  and  S_16
REMARK    5  A    between atoms: S_16  and  N_19
REMARK    6  A    between atoms: C_27  and  N_28
REMARK                            x       y       z     vdW  Elec       q    Type
REMARK                         _______ _______ _______ _____ _____    ______ ____
ROOT
ATOM      1  C   UNL     1       2.673   6.412  18.959  0.00  0.00    +0.000 A 
ATOM      2  C   UNL     1       2.255   7.628  19.536  0.00  0.00    +0.000 A 
ATOM      3  C   UNL     1       1.430   7.634  20.660  0.00  0.00    +0.000 A 
ATOM      4  C   UNL     1       1.044   6.434  21.246  0.00  0.00    +0.000 A 
ATOM      5  C   UNL     1       1.498   5.223  20.705  0.00  0.00    +0.000 A 
ATOM      6  C   UNL     1       2.328   5.165  19.562  0.00  0.00    +0.000 A 
ENDROOT
BRANCH   6   7
ATOM      7  N   UNL     1       2.799   3.935  19.123  0.00  0.00    +0.000 N 
ATOM      8  C   UNL     1       2.326   3.291  17.884  0.00  0.00    +0.000 C 
ATOM      9  C   UNL     1       2.392   1.755  18.039  0.00  0.00    +0.000 C 
ATOM     10  O   UNL     1       3.699   1.303  18.441  0.00  0.00    +0.000 OA
ATOM     11  C   UNL     1       4.070   1.922  19.690  0.00  0.00    +0.000 C 
ATOM     12  C   UNL     1       4.124   3.451  19.543  0.00  0.00    +0.000 C 
ENDBRANCH   6   7
BRANCH   1  14
ATOM     13  N   UNL     1       4.444   5.443  17.553  0.00  0.00    +0.000 N 
ATOM     14  C   UNL     1       3.606   6.535  17.789  0.00  0.00    +0.000 C 
ATOM     15  O   UNL     1       3.578   7.561  17.119  0.00  0.00    +0.000 OA
ATOM     16  H   UNL     1       4.446   4.674  18.224  0.00  0.00    +0.000 HD
BRANCH  13  22
ATOM     17  C   UNL     1       6.621   5.845  16.449  0.00  0.00    +0.000 A 
ATOM     18  C   UNL     1       7.476   5.637  15.343  0.00  0.00    +0.000 A 
ATOM     19  C   UNL     1       7.064   4.882  14.247  0.00  0.00    +0.000 A 
ATOM     20  C   UNL     1       5.804   4.308  14.249  0.00  0.00    +0.000 A 
ATOM     21  C   UNL     1       4.952   4.488  15.342  0.00  0.00    +0.000 A 
ATOM     22  C   UNL     1       5.328   5.259  16.451  0.00  0.00    +0.000 A 
BRANCH  17  24
ATOM     23  N   UNL     1       7.463   7.956  17.386  0.00  0.00    +0.000 N 
ATOM     24  C   UNL     1       7.117   6.646  17.614  0.00  0.00    +0.000 C 
ATOM     25  O   UNL     1       7.202   6.165  18.740  0.00  0.00    +0.000 OA
ATOM     26  H   UNL     1       7.804   8.498  18.170  0.00  0.00    +0.000 HD
ATOM     27  H   UNL     1       7.226   8.466  16.549  0.00  0.00    +0.000 HD
ENDBRANCH  17  24
ENDBRANCH  13  22
ENDBRANCH   1  14
BRANCH   3  28
ATOM     28  S   UNL     1       0.997   9.202  21.403  0.00  0.00    +0.000 S 
ATOM     29  O   UNL     1      -0.213   8.996  22.169  0.00  0.00    +0.000 OA
ATOM     30  O   UNL     1       2.200   9.716  22.032  0.00  0.00    +0.000 OA
BRANCH  28  31
ATOM     31  N   UNL     1       0.629  10.194  20.056  0.00  0.00    +0.000 NA
ATOM     32  C   UNL     1      -0.754  10.054  19.518  0.00  0.00    +0.000 C 
ATOM     33  C   UNL     1      -0.925  10.825  18.214  0.00  0.00    +0.000 C 
ATOM     34  C   UNL     1      -0.512  12.281  18.383  0.00  0.00    +0.000 C 
ATOM     35  C   UNL     1       0.936  12.342  18.847  0.00  0.00    +0.000 C 
ATOM     36  C   UNL     1       1.125  11.589  20.159  0.00  0.00    +0.000 C 
ENDBRANCH  28  31
ENDBRANCH   3  28
TORSDOF 6
ENDMDL
MODEL 8
REMARK VINA RESULT:      -6.9      4.792      8.369
REMARK  Name = 
REMARK  6 active torsions:
REMARK  status: ('A' for Active; 'I' for Inactive)
REMARK    1  A    between atoms: C_2  and  C_4
REMARK    2  A    between atoms: C_9  and  N_10
REMARK    3  A    between atoms: C_11  and  C_13
REMARK    4  A    between atoms: C_15  and  S_16
REMARK    5  A    between atoms: S_16  and  N_19
REMARK    6  A    between atoms: C_27  and  N_28
REMARK                            x       y       z     vdW  Elec       q    Type
REMARK                         _______ _______ _______ _____ _____    ______ ____
ROOT
ATOM      1  C   UNL     1      -0.950  13.324  21.218  0.00  0.00    +0.000 A 
ATOM      2  C   UNL     1      -2.183  12.857  21.718  0.00  0.00    +0.000 A 
ATOM      3  C   UNL     1      -3.246  13.735  21.918  0.00  0.00    +0.000 A 
ATOM      4  C   UNL     1      -3.111  15.079  21.586  0.00  0.00    +0.000 A 
ATOM      5  C   UNL     1      -1.903  15.538  21.041  0.00  0.00    +0.000 A 
ATOM      6  C   UNL     1      -0.794  14.688  20.829  0.00  0.00    +0.000 A 
ENDROOT
BRANCH   6   7
ATOM      7  N   UNL     1       0.346  15.194  20.219  0.00  0.00    +0.000 N 
ATOM      8  C   UNL     1       0.599  15.076  18.771  0.00  0.00    +0.000 C 
ATOM      9  C   UNL     1       2.122  15.000  18.515  0.00  0.00    +0.000 C 
ATOM     10  O   UNL     1       2.832  16.096  19.121  0.00  0.00    +0.000 OA
ATOM     11  C   UNL     1       2.591  16.111  20.542  0.00  0.00    +0.000 C 
ATOM     12  C   UNL     1       1.095  16.299  20.837  0.00  0.00    +0.000 C 
ENDBRANCH   6   7
BRANCH   1  14
ATOM     13  N   UNL     1      -0.302  11.153  20.260  0.00  0.00    +0.000 N 
ATOM     14  C   UNL     1       0.098  12.273  20.991  0.00  0.00    +0.000 C 
ATOM     15  O   UNL     1       1.222  12.454  21.446  0.00  0.00    +0.000 OA
ATOM     16  H   UNL     1      -1.286  11.064  20.001  0.00  0.00    +0.000 HD
BRANCH  13  22
ATOM     17  C   UNL     1       0.959   9.073  20.709  0.00  0.00    +0.000 A 
ATOM     18  C   UNL     1       1.768   8.018  20.228  0.00  0.00    +0.000 A 
ATOM     19  C   UNL     1       2.156   7.960  18.892  0.00  0.00    +0.000 A 
ATOM     20  C   UNL     1       1.725   8.940  18.013  0.00  0.00    +0.000 A 
ATOM     21  C   UNL     1       0.910   9.981  18.467  0.00  0.00    +0.000 A 
ATOM     22  C   UNL     1       0.519  10.079  19.810  0.00  0.00    +0.000 A 
BRANCH  17  24
ATOM     23  N   UNL     1      -0.689   8.579  22.464  0.00  0.00    +0.000 N 
ATOM     24  C   UNL     1       0.551   9.080  22.150  0.00  0.00    +0.000 C 
ATOM     25  O   UNL     1       1.295   9.501  23.031  0.00  0.00    +0.000 OA
ATOM     26  H   UNL     1      -0.969   8.588  23.437  0.00  0.00    +0.000 HD
ATOM     27  H   UNL     1      -1.256   8.036  21.831  0.00  0.00    +0.000 HD
ENDBRANCH  17  24
ENDBRANCH  13  22
ENDBRANCH   1  14
BRANCH   3  28
ATOM     28  S   UNL     1      -4.813  13.079  22.475  0.00  0.00    +0.000 S 
ATOM     29  O   UNL     1      -4.535  12.155  23.553  0.00  0.00    +0.000 OA
ATOM     30  O   UNL     1      -5.698  14.212  22.673  0.00  0.00    +0.000 OA
BRANCH  28  31
ATOM     31  N   UNL     1      -5.376  12.188  21.124  0.00  0.00    +0.000 NA
ATOM     32  C   UNL     1      -6.813  11.797  21.169  0.00  0.00    +0.000 C 
ATOM     33  C   UNL     1      -7.169  10.851  20.028  0.00  0.00    +0.000 C 
ATOM     34  C   UNL     1      -6.770  11.443  18.683  0.00  0.00    +0.000 C 
ATOM     35  C   UNL     1      -5.276  11.733  18.683  0.00  0.00    +0.000 C 
ATOM     36  C   UNL     1      -4.902  12.690  19.809  0.00  0.00    +0.000 C 
ENDBRANCH  28  31
ENDBRANCH   3  28
TORSDOF 6
ENDMDL
MODEL 9
REMARK VINA RESULT:      -6.9      4.359     10.842
REMARK  Name = 
REMARK  6 active torsions:
REMARK  status: ('A' for Active; 'I' for Inactive)
REMARK    1  A    between atoms: C_2  and  C_4
REMARK    2  A    between atoms: C_9  and  N_10
REMARK    3  A    between atoms: C_11  and  C_13
REMARK    4  A    between atoms: C_15  and  S_16
REMARK    5  A    between atoms: S_16  and  N_19
REMARK    6  A    between atoms: C_27  and  N_28
REMARK                            x       y       z     vdW  Elec       q    Type
REMARK                         _______ _______ _______ _____ _____    ______ ____
ROOT
ATOM      1  C   UNL     1      -2.863  12.148  19.750  0.00  0.00    +0.000 A 
ATOM      2  C   UNL     1      -1.493  11.952  20.014  0.00  0.00    +0.000 A 
ATOM      3  C   UNL     1      -0.760  11.007  19.297  0.00  0.00    +0.000 A 
ATOM      4  C   UNL     1      -1.370  10.277  18.284  0.00  0.00    +0.000 A 
ATOM      5  C   UNL     1      -2.721  10.505  17.984  0.00  0.00    +0.000 A 
ATOM      6  C   UNL     1      -3.507  11.445  18.689  0.00  0.00    +0.000 A 
ENDROOT
BRANCH   6   7
ATOM      7  N   UNL     1      -4.818  11.671  18.292  0.00  0.00    +0.000 N 
ATOM      8  C   UNL     1      -5.173  12.184  16.956  0.00  0.00    +0.000 C 
ATOM      9  C   UNL     1      -6.471  13.020  17.049  0.00  0.00    +0.000 C 
ATOM     10  O   UNL     1      -7.544  12.293  17.674  0.00  0.00    +0.000 OA
ATOM     11  C   UNL     1      -7.152  11.880  18.998  0.00  0.00    +0.000 C 
ATOM     12  C   UNL     1      -5.928  10.952  18.937  0.00  0.00    +0.000 C 
ENDBRANCH   6   7
BRANCH   1  14
ATOM     13  N   UNL     1      -3.047  13.426  21.844  0.00  0.00    +0.000 N 
ATOM     14  C   UNL     1      -3.528  13.233  20.548  0.00  0.00    +0.000 C 
ATOM     15  O   UNL     1      -4.431  13.878  20.027  0.00  0.00    +0.000 OA
ATOM     16  H   UNL     1      -2.349  12.776  22.209  0.00  0.00    +0.000 HD
BRANCH  13  22
ATOM     17  C   UNL     1      -4.445  14.240  23.716  0.00  0.00    +0.000 A 
ATOM     18  C   UNL     1      -4.786  15.280  24.612  0.00  0.00    +0.000 A 
ATOM     19  C   UNL     1      -4.146  16.516  24.557  0.00  0.00    +0.000 A 
ATOM     20  C   UNL     1      -3.144  16.724  23.623  0.00  0.00    +0.000 A 
ATOM     21  C   UNL     1      -2.782  15.702  22.742  0.00  0.00    +0.000 A 
ATOM     22  C   UNL     1      -3.421  14.454  22.758  0.00  0.00    +0.000 A 
BRANCH  17  24
ATOM     23  N   UNL     1      -4.926  12.175  24.961  0.00  0.00    +0.000 N 
ATOM     24  C   UNL     1      -5.147  12.922  23.829  0.00  0.00    +0.000 C 
ATOM     25  O   UNL     1      -5.908  12.517  22.954  0.00  0.00    +0.000 OA
ATOM     26  H   UNL     1      -5.395  11.282  25.037  0.00  0.00    +0.000 HD
ATOM     27  H   UNL     1      -4.487  12.533  25.796  0.00  0.00    +0.000 HD
ENDBRANCH  17  24
ENDBRANCH  13  22
ENDBRANCH   1  14
BRANCH   3  28
ATOM     28  S   UNL     1       0.993  10.855  19.612  0.00  0.00    +0.000 S 
ATOM     29  O   UNL     1       1.684  11.541  18.543  0.00  0.00    +0.000 OA
ATOM     30  O   UNL     1       1.206  11.228  20.999  0.00  0.00    +0.000 OA
BRANCH  28  31
ATOM     31  N   UNL     1       1.282   9.173  19.458  0.00  0.00    +0.000 NA
ATOM     32  C   UNL     1       2.205   8.782  18.355  0.00  0.00    +0.000 C 
ATOM     33  C   UNL     1       2.247   7.269  18.176  0.00  0.00    +0.000 C 
ATOM     34  C   UNL     1       2.581   6.572  19.487  0.00  0.00    +0.000 C 
ATOM     35  C   UNL     1       1.546   6.951  20.536  0.00  0.00    +0.000 C 
ATOM     36  C   UNL     1       1.499   8.461  20.742  0.00  0.00    +0.000 C 
ENDBRANCH  28  31
ENDBRANCH   3  28
TORSDOF 6
ENDMDL
