MODEL 1
REMARK VINA RESULT:      -7.5      0.000      0.000
REMARK  Name = 
REMARK  9 active torsions:
REMARK  status: ('A' for Active; 'I' for Inactive)
REMARK    1  A    between atoms: C_1  and  C_2
REMARK    2  A    between atoms: C_2  and  C_3
REMARK    3  A    between atoms: C_3  and  N_4
REMARK    4  A    between atoms: C_3  and  C_17
REMARK    5  A    between atoms: C_5  and  C_7
REMARK    6  A    between atoms: C_7  and  N_8
REMARK    7  A    between atoms: N_13  and  C_14
REMARK    8  A    between atoms: C_20  and  O_21
REMARK    9  A    between atoms: O_21  and  C_22
REMARK                            x       y       z     vdW  Elec       q    Type
REMARK                         _______ _______ _______ _____ _____    ______ ____
ROOT
ATOM      1  N   UNL     1       4.723   5.260  18.184  0.00  0.00    +0.000 N 
ATOM      2  C   UNL     1       4.067   6.387  17.725  0.00  0.00    +0.000 C 
ATOM      3  O   UNL     1       4.604   7.244  17.026  0.00  0.00    +0.000 OA
ATOM      4  H   UNL     1       4.187   4.535  18.644  0.00  0.00    +0.000 HD
ENDROOT
BRANCH   1   5
ATOM      5  C   UNL     1       6.101   4.950  17.819  0.00  0.00    +0.000 C 
BRANCH   5   6
ATOM      6  C   UNL     1       6.189   4.647  16.325  0.00  0.00    +0.000 A 
ATOM      7  C   UNL     1       5.249   3.794  15.727  0.00  0.00    +0.000 A 
ATOM      8  C   UNL     1       5.337   3.474  14.367  0.00  0.00    +0.000 A 
ATOM      9  C   UNL     1       6.346   4.017  13.572  0.00  0.00    +0.000 A 
ATOM     10  C   UNL     1       7.289   4.862  14.153  0.00  0.00    +0.000 A 
ATOM     11  C   UNL     1       7.209   5.176  15.516  0.00  0.00    +0.000 A 
BRANCH   9  12
ATOM     12  O   UNL     1       6.349   3.607  12.266  0.00  0.00    +0.000 OA
ATOM     13  C   UNL     1       5.100   3.147  11.759  0.00  0.00    +0.000 C 
ENDBRANCH   9  12
ENDBRANCH   5   6
BRANCH   5  15
ATOM     14  C   UNL     1       7.960   5.759  19.409  0.00  0.00    +0.000 C 
ATOM     15  C   UNL     1       7.088   6.075  18.202  0.00  0.00    +0.000 C 
ENDBRANCH   5  15
ENDBRANCH   1   5
BRANCH   2  16
ATOM     16  C   UNL     1       2.607   6.510  18.176  0.00  0.00    +0.000 C 
BRANCH  16  17
ATOM     17  N   UNL     1       2.208   5.429  19.084  0.00  0.00    +0.000 N 
ATOM     18  C   UNL     1       2.458   5.540  20.433  0.00  0.00    +0.000 A 
ATOM     19  C   UNL     1       2.145   4.570  21.287  0.00  0.00    +0.000 A 
ATOM     20  C   UNL     1       1.523   3.334  20.784  0.00  0.00    +0.000 A 
ATOM     21  O   UNL     1       1.256   2.440  21.584  0.00  0.00    +0.000 OA
ATOM     22  N   UNL     1       1.293   3.280  19.422  0.00  0.00    +0.000 N 
ATOM     23  C   UNL     1       0.706   2.077  18.865  0.00  0.00    +0.000 C 
ATOM     24  C   UNL     1       1.578   4.316  18.533  0.00  0.00    +0.000 A 
ATOM     25  O   UNL     1       1.311   4.254  17.332  0.00  0.00    +0.000 OA
ENDBRANCH  16  17
ENDBRANCH   2  16
TORSDOF 6
ENDMDL
MODEL 2
REMARK VINA RESULT:      -7.3      4.926      6.734
REMARK  Name = 
REMARK  9 active torsions:
REMARK  status: ('A' for Active; 'I' for Inactive)
REMARK    1  A    between atoms: C_1  and  C_2
REMARK    2  A    between atoms: C_2  and  C_3
REMARK    3  A    between atoms: C_3  and  N_4
REMARK    4  A    between atoms: C_3  and  C_17
REMARK    5  A    between atoms: C_5  and  C_7
REMARK    6  A    between atoms: C_7  and  N_8
REMARK    7  A    between atoms: N_13  and  C_14
REMARK    8  A    between atoms: C_20  and  O_21
REMARK    9  A    between atoms: O_21  and  C_22
REMARK                            x       y       z     vdW  Elec       q    Type
REMARK                         _______ _______ _______ _____ _____    ______ ____
ROOT
ATOM      1  N   UNL     1       2.208   7.453  20.685  0.00  0.00    +0.000 N 
ATOM      2  C   UNL     1       1.083   8.012  21.262  0.00  0.00    +0.000 C 
ATOM      3  O   UNL     1      -0.043   7.531  21.150  0.00  0.00    +0.000 OA
ATOM      4  H   UNL     1       3.117   7.828  20.924  0.00  0.00    +0.000 HD
ENDROOT
BRANCH   1   5
ATOM      5  C   UNL     1       2.170   6.197  19.946  0.00  0.00    +0.000 C 
BRANCH   5   6
ATOM      6  C   UNL     1       3.395   6.088  19.041  0.00  0.00    +0.000 A 
ATOM      7  C   UNL     1       4.474   5.275  19.418  0.00  0.00    +0.000 A 
ATOM      8  C   UNL     1       5.621   5.192  18.620  0.00  0.00    +0.000 A 
ATOM      9  C   UNL     1       5.706   5.898  17.420  0.00  0.00    +0.000 A 
ATOM     10  C   UNL     1       4.644   6.714  17.035  0.00  0.00    +0.000 A 
ATOM     11  C   UNL     1       3.499   6.805  17.837  0.00  0.00    +0.000 A 
BRANCH   9  12
ATOM     12  O   UNL     1       6.887   5.764  16.742  0.00  0.00    +0.000 OA
ATOM     13  C   UNL     1       6.925   4.732  15.761  0.00  0.00    +0.000 C 
ENDBRANCH   9  12
ENDBRANCH   5   6
BRANCH   5  15
ATOM     14  C   UNL     1       1.013   3.950  20.449  0.00  0.00    +0.000 C 
ATOM     15  C   UNL     1       2.069   4.962  20.870  0.00  0.00    +0.000 C 
ENDBRANCH   5  15
ENDBRANCH   1   5
BRANCH   2  16
ATOM     16  C   UNL     1       1.334   9.308  22.041  0.00  0.00    +0.000 C 
BRANCH  16  17
ATOM     17  N   UNL     1       0.451  10.398  21.616  0.00  0.00    +0.000 N 
ATOM     18  C   UNL     1       0.630  10.985  20.385  0.00  0.00    +0.000 A 
ATOM     19  C   UNL     1      -0.126  12.000  19.973  0.00  0.00    +0.000 A 
ATOM     20  C   UNL     1      -1.180  12.523  20.857  0.00  0.00    +0.000 A 
ATOM     21  O   UNL     1      -1.858  13.472  20.469  0.00  0.00    +0.000 OA
ATOM     22  N   UNL     1      -1.316  11.893  22.080  0.00  0.00    +0.000 N 
ATOM     23  C   UNL     1      -2.321  12.382  23.004  0.00  0.00    +0.000 C 
ATOM     24  C   UNL     1      -0.555  10.799  22.492  0.00  0.00    +0.000 A 
ATOM     25  O   UNL     1      -0.739  10.229  23.568  0.00  0.00    +0.000 OA
ENDBRANCH  16  17
ENDBRANCH   2  16
TORSDOF 6
ENDMDL
MODEL 3
REMARK VINA RESULT:      -7.3      1.502      2.247
REMARK  Name = 
REMARK  9 active torsions:
REMARK  status: ('A' for Active; 'I' for Inactive)
REMARK    1  A    between atoms: C_1  and  C_2
REMARK    2  A    between atoms: C_2  and  C_3
REMARK    3  A    between atoms: C_3  and  N_4
REMARK    4  A    between atoms: C_3  and  C_17
REMARK    5  A    between atoms: C_5  and  C_7
REMARK    6  A    between atoms: C_7  and  N_8
REMARK    7  A    between atoms: N_13  and  C_14
REMARK    8  A    between atoms: C_20  and  O_21
REMARK    9  A    between atoms: O_21  and  C_22
REMARK                            x       y       z     vdW  Elec       q    Type
REMARK                         _______ _______ _______ _____ _____    ______ ____
ROOT
ATOM      1  N   UNL     1       5.367   6.160  17.665  0.00  0.00    +0.000 N 
ATOM      2  C   UNL     1       5.072   5.817  18.972  0.00  0.00    +0.000 C 
ATOM      3  O   UNL     1       5.878   5.274  19.725  0.00  0.00    +0.000 OA
ATOM      4  H   UNL     1       4.702   6.717  17.145  0.00  0.00    +0.000 HD
ENDROOT
BRANCH   1   5
ATOM      5  C   UNL     1       6.690   5.970  17.082  0.00  0.00    +0.000 C 
BRANCH   5   6
ATOM      6  C   UNL     1       6.572   5.225  15.754  0.00  0.00    +0.000 A 
ATOM      7  C   UNL     1       7.540   5.417  14.757  0.00  0.00    +0.000 A 
ATOM      8  C   UNL     1       7.428   4.773  13.519  0.00  0.00    +0.000 A 
ATOM      9  C   UNL     1       6.366   3.907  13.260  0.00  0.00    +0.000 A 
ATOM     10  C   UNL     1       5.394   3.711  14.239  0.00  0.00    +0.000 A 
ATOM     11  C   UNL     1       5.499   4.362  15.476  0.00  0.00    +0.000 A 
BRANCH   9  12
ATOM     12  O   UNL     1       6.346   3.361  12.005  0.00  0.00    +0.000 OA
ATOM     13  C   UNL     1       5.093   2.834  11.579  0.00  0.00    +0.000 C 
ENDBRANCH   9  12
ENDBRANCH   5   6
BRANCH   5  15
ATOM     14  C   UNL     1       8.110   7.832  18.158  0.00  0.00    +0.000 C 
ATOM     15  C   UNL     1       7.456   7.298  16.891  0.00  0.00    +0.000 C 
ENDBRANCH   5  15
ENDBRANCH   1   5
BRANCH   2  16
ATOM     16  C   UNL     1       3.641   6.142  19.416  0.00  0.00    +0.000 C 
BRANCH  16  17
ATOM     17  N   UNL     1       2.734   5.000  19.262  0.00  0.00    +0.000 N 
ATOM     18  C   UNL     1       2.242   4.679  18.017  0.00  0.00    +0.000 A 
ATOM     19  C   UNL     1       1.390   3.674  17.837  0.00  0.00    +0.000 A 
ATOM     20  C   UNL     1       0.946   2.883  18.996  0.00  0.00    +0.000 A 
ATOM     21  O   UNL     1       0.144   1.969  18.814  0.00  0.00    +0.000 OA
ATOM     22  N   UNL     1       1.475   3.249  20.220  0.00  0.00    +0.000 N 
ATOM     23  C   UNL     1       1.054   2.523  21.402  0.00  0.00    +0.000 C 
ATOM     24  C   UNL     1       2.404   4.272  20.402  0.00  0.00    +0.000 A 
ATOM     25  O   UNL     1       2.895   4.537  21.501  0.00  0.00    +0.000 OA
ENDBRANCH  16  17
ENDBRANCH   2  16
TORSDOF 6
ENDMDL
MODEL 4
REMARK VINA RESULT:      -7.2      2.588      7.188
REMARK  Name = 
REMARK  9 active torsions:
REMARK  status: ('A' for Active; 'I' for Inactive)
REMARK    1  A    between atoms: C_1  and  C_2
REMARK    2  A    between atoms: C_2  and  C_3
REMARK    3  A    between atoms: C_3  and  N_4
REMARK    4  A    between atoms: C_3  and  C_17
REMARK    5  A    between atoms: C_5  and  C_7
REMARK    6  A    between atoms: C_7  and  N_8
REMARK    7  A    between atoms: N_13  and  C_14
REMARK    8  A    between atoms: C_20  and  O_21
REMARK    9  A    between atoms: O_21  and  C_22
REMARK                            x       y       z     vdW  Elec       q    Type
REMARK                         _______ _______ _______ _____ _____    ______ ____
ROOT
ATOM      1  N   UNL     1       3.247   4.638  19.566  0.00  0.00    +0.000 N 
ATOM      2  C   UNL     1       2.899   4.091  18.345  0.00  0.00    +0.000 C 
ATOM      3  O   UNL     1       1.735   3.894  18.000  0.00  0.00    +0.000 OA
ATOM      4  H   UNL     1       4.212   4.891  19.731  0.00  0.00    +0.000 HD
ENDROOT
BRANCH   1   5
ATOM      5  C   UNL     1       2.256   5.097  20.532  0.00  0.00    +0.000 C 
BRANCH   5   6
ATOM      6  C   UNL     1       1.897   6.555  20.258  0.00  0.00    +0.000 A 
ATOM      7  C   UNL     1       1.149   7.280  21.198  0.00  0.00    +0.000 A 
ATOM      8  C   UNL     1       0.778   8.607  20.947  0.00  0.00    +0.000 A 
ATOM      9  C   UNL     1       1.164   9.244  19.769  0.00  0.00    +0.000 A 
ATOM     10  C   UNL     1       1.902   8.535  18.823  0.00  0.00    +0.000 A 
ATOM     11  C   UNL     1       2.267   7.204  19.068  0.00  0.00    +0.000 A 
BRANCH   9  12
ATOM     12  O   UNL     1       0.716  10.528  19.621  0.00  0.00    +0.000 OA
ATOM     13  C   UNL     1       0.750  11.335  20.794  0.00  0.00    +0.000 C 
ENDBRANCH   9  12
ENDBRANCH   5   6
BRANCH   5  15
ATOM     14  C   UNL     1       1.147   2.891  21.271  0.00  0.00    +0.000 C 
ATOM     15  C   UNL     1       0.983   4.220  20.547  0.00  0.00    +0.000 C 
ENDBRANCH   5  15
ENDBRANCH   1   5
BRANCH   2  16
ATOM     16  C   UNL     1       4.083   3.718  17.445  0.00  0.00    +0.000 C 
BRANCH  16  17
ATOM     17  N   UNL     1       5.070   4.797  17.343  0.00  0.00    +0.000 N 
ATOM     18  C   UNL     1       5.004   5.689  16.297  0.00  0.00    +0.000 A 
ATOM     19  C   UNL     1       5.899   6.661  16.146  0.00  0.00    +0.000 A 
ATOM     20  C   UNL     1       7.002   6.789  17.113  0.00  0.00    +0.000 A 
ATOM     21  O   UNL     1       7.830   7.682  16.949  0.00  0.00    +0.000 OA
ATOM     22  N   UNL     1       7.016   5.867  18.144  0.00  0.00    +0.000 N 
ATOM     23  C   UNL     1       8.092   5.927  19.112  0.00  0.00    +0.000 C 
ATOM     24  C   UNL     1       6.051   4.878  18.328  0.00  0.00    +0.000 A 
ATOM     25  O   UNL     1       6.065   4.106  19.289  0.00  0.00    +0.000 OA
ENDBRANCH  16  17
ENDBRANCH   2  16
TORSDOF 6
ENDMDL
MODEL 5
REMARK VINA RESULT:      -7.1      2.479      7.032
REMARK  Name = 
REMARK  9 active torsions:
REMARK  status: ('A' for Active; 'I' for Inactive)
REMARK    1  A    between atoms: C_1  and  C_2
REMARK    2  A    between atoms: C_2  and  C_3
REMARK    3  A    between atoms: C_3  and  N_4
REMARK    4  A    between atoms: C_3  and  C_17
REMARK    5  A    between atoms: C_5  and  C_7
REMARK    6  A    between atoms: C_7  and  N_8
REMARK    7  A    between atoms: N_13  and  C_14
REMARK    8  A    between atoms: C_20  and  O_21
REMARK    9  A    between atoms: O_21  and  C_22
REMARK                            x       y       z     vdW  Elec       q    Type
REMARK                         _______ _______ _______ _____ _____    ______ ____
ROOT
ATOM      1  N   UNL     1       3.187   4.503  19.859  0.00  0.00    +0.000 N 
ATOM      2  C   UNL     1       3.777   3.319  20.257  0.00  0.00    +0.000 C 
ATOM      3  O   UNL     1       3.451   2.711  21.275  0.00  0.00    +0.000 OA
ATOM      4  H   UNL     1       3.413   4.880  18.948  0.00  0.00    +0.000 HD
ENDROOT
BRANCH   1   5
ATOM      5  C   UNL     1       2.071   5.106  20.578  0.00  0.00    +0.000 C 
BRANCH   5   6
ATOM      6  C   UNL     1       1.884   6.555  20.132  0.00  0.00    +0.000 A 
ATOM      7  C   UNL     1       1.242   7.471  20.978  0.00  0.00    +0.000 A 
ATOM      8  C   UNL     1       1.028   8.793  20.571  0.00  0.00    +0.000 A 
ATOM      9  C   UNL     1       1.471   9.234  19.324  0.00  0.00    +0.000 A 
ATOM     10  C   UNL     1       2.105   8.335  18.471  0.00  0.00    +0.000 A 
ATOM     11  C   UNL     1       2.313   7.008  18.873  0.00  0.00    +0.000 A 
BRANCH   9  12
ATOM     12  O   UNL     1       1.177  10.536  19.024  0.00  0.00    +0.000 OA
ATOM     13  C   UNL     1      -0.055  11.028  19.544  0.00  0.00    +0.000 C 
ENDBRANCH   9  12
ENDBRANCH   5   6
BRANCH   5  15
ATOM     14  C   UNL     1       0.727   3.392  19.202  0.00  0.00    +0.000 C 
ATOM     15  C   UNL     1       0.754   4.315  20.411  0.00  0.00    +0.000 C 
ENDBRANCH   5  15
ENDBRANCH   1   5
BRANCH   2  16
ATOM     16  C   UNL     1       4.901   2.819  19.342  0.00  0.00    +0.000 C 
BRANCH  16  17
ATOM     17  N   UNL     1       5.197   3.758  18.256  0.00  0.00    +0.000 N 
ATOM     18  C   UNL     1       4.644   3.562  17.011  0.00  0.00    +0.000 A 
ATOM     19  C   UNL     1       4.914   4.369  15.988  0.00  0.00    +0.000 A 
ATOM     20  C   UNL     1       5.836   5.500  16.180  0.00  0.00    +0.000 A 
ATOM     21  O   UNL     1       6.089   6.225  15.220  0.00  0.00    +0.000 OA
ATOM     22  N   UNL     1       6.359   5.649  17.451  0.00  0.00    +0.000 N 
ATOM     23  C   UNL     1       7.295   6.729  17.694  0.00  0.00    +0.000 C 
ATOM     24  C   UNL     1       6.040   4.831  18.535  0.00  0.00    +0.000 A 
ATOM     25  O   UNL     1       6.484   5.025  19.667  0.00  0.00    +0.000 OA
ENDBRANCH  16  17
ENDBRANCH   2  16
TORSDOF 6
ENDMDL
MODEL 6
REMARK VINA RESULT:      -7.0      2.752      7.434
REMARK  Name = 
REMARK  9 active torsions:
REMARK  status: ('A' for Active; 'I' for Inactive)
REMARK    1  A    between atoms: C_1  and  C_2
REMARK    2  A    between atoms: C_2  and  C_3
REMARK    3  A    between atoms: C_3  and  N_4
REMARK    4  A    between atoms: C_3  and  C_17
REMARK    5  A    between atoms: C_5  and  C_7
REMARK    6  A    between atoms: C_7  and  N_8
REMARK    7  A    between atoms: N_13  and  C_14
REMARK    8  A    between atoms: C_20  and  O_21
REMARK    9  A    between atoms: O_21  and  C_22
REMARK                            x       y       z     vdW  Elec       q    Type
REMARK                         _______ _______ _______ _____ _____    ______ ____
ROOT
ATOM      1  N   UNL     1       4.039   5.799  18.291  0.00  0.00    +0.000 N 
ATOM      2  C   UNL     1       5.067   5.007  18.768  0.00  0.00    +0.000 C 
ATOM      3  O   UNL     1       4.947   4.254  19.732  0.00  0.00    +0.000 OA
ATOM      4  H   UNL     1       4.169   6.295  17.418  0.00  0.00    +0.000 HD
ENDROOT
BRANCH   1   5
ATOM      5  C   UNL     1       2.693   5.761  18.850  0.00  0.00    +0.000 C 
BRANCH   5   6
ATOM      6  C   UNL     1       2.172   7.182  19.052  0.00  0.00    +0.000 A 
ATOM      7  C   UNL     1       1.776   7.607  20.329  0.00  0.00    +0.000 A 
ATOM      8  C   UNL     1       1.260   8.893  20.526  0.00  0.00    +0.000 A 
ATOM      9  C   UNL     1       1.152   9.788  19.462  0.00  0.00    +0.000 A 
ATOM     10  C   UNL     1       1.536   9.378  18.187  0.00  0.00    +0.000 A 
ATOM     11  C   UNL     1       2.044   8.088  17.985  0.00  0.00    +0.000 A 
BRANCH   9  12
ATOM     12  O   UNL     1       0.604  11.003  19.771  0.00  0.00    +0.000 OA
ATOM     13  C   UNL     1      -0.036  11.090  21.040  0.00  0.00    +0.000 C 
ENDBRANCH   9  12
ENDBRANCH   5   6
BRANCH   5  15
ATOM     14  C   UNL     1       2.026   3.455  17.912  0.00  0.00    +0.000 C 
ATOM     15  C   UNL     1       1.709   4.942  17.985  0.00  0.00    +0.000 C 
ENDBRANCH   5  15
ENDBRANCH   1   5
BRANCH   2  16
ATOM     16  C   UNL     1       6.395   5.152  18.015  0.00  0.00    +0.000 C 
BRANCH  16  17
ATOM     17  N   UNL     1       6.295   4.725  16.616  0.00  0.00    +0.000 N 
ATOM     18  C   UNL     1       5.449   3.695  16.273  0.00  0.00    +0.000 A 
ATOM     19  C   UNL     1       5.353   3.252  15.022  0.00  0.00    +0.000 A 
ATOM     20  C   UNL     1       6.180   3.866  13.970  0.00  0.00    +0.000 A 
ATOM     21  O   UNL     1       6.093   3.434  12.823  0.00  0.00    +0.000 OA
ATOM     22  N   UNL     1       7.009   4.897  14.373  0.00  0.00    +0.000 N 
ATOM     23  C   UNL     1       7.866   5.523  13.386  0.00  0.00    +0.000 C 
ATOM     24  C   UNL     1       7.074   5.392  15.675  0.00  0.00    +0.000 A 
ATOM     25  O   UNL     1       7.786   6.348  15.988  0.00  0.00    +0.000 OA
ENDBRANCH  16  17
ENDBRANCH   2  16
TORSDOF 6
ENDMDL
MODEL 7
REMARK VINA RESULT:      -7.0      3.090      4.710
REMARK  Name = 
REMARK  9 active torsions:
REMARK  status: ('A' for Active; 'I' for Inactive)
REMARK    1  A    between atoms: C_1  and  C_2
REMARK    2  A    between atoms: C_2  and  C_3
REMARK    3  A    between atoms: C_3  and  N_4
REMARK    4  A    between atoms: C_3  and  C_17
REMARK    5  A    between atoms: C_5  and  C_7
REMARK    6  A    between atoms: C_7  and  N_8
REMARK    7  A    between atoms: N_13  and  C_14
REMARK    8  A    between atoms: C_20  and  O_21
REMARK    9  A    between atoms: O_21  and  C_22
REMARK                            x       y       z     vdW  Elec       q    Type
REMARK                         _______ _______ _______ _____ _____    ______ ____
ROOT
ATOM      1  N   UNL     1       3.588   5.245  19.183  0.00  0.00    +0.000 N 
ATOM      2  C   UNL     1       2.331   5.506  19.698  0.00  0.00    +0.000 C 
ATOM      3  O   UNL     1       1.328   4.869  19.384  0.00  0.00    +0.000 OA
ATOM      4  H   UNL     1       4.387   5.721  19.580  0.00  0.00    +0.000 HD
ENDROOT
BRANCH   1   5
ATOM      5  C   UNL     1       3.848   4.138  18.270  0.00  0.00    +0.000 C 
BRANCH   5   6
ATOM      6  C   UNL     1       4.924   4.537  17.262  0.00  0.00    +0.000 A 
ATOM      7  C   UNL     1       4.939   3.953  15.986  0.00  0.00    +0.000 A 
ATOM      8  C   UNL     1       5.939   4.277  15.063  0.00  0.00    +0.000 A 
ATOM      9  C   UNL     1       6.929   5.207  15.382  0.00  0.00    +0.000 A 
ATOM     10  C   UNL     1       6.930   5.791  16.646  0.00  0.00    +0.000 A 
ATOM     11  C   UNL     1       5.935   5.461  17.577  0.00  0.00    +0.000 A 
BRANCH   9  12
ATOM     12  O   UNL     1       7.870   5.418  14.411  0.00  0.00    +0.000 OA
ATOM     13  C   UNL     1       7.512   4.996  13.099  0.00  0.00    +0.000 C 
ENDBRANCH   9  12
ENDBRANCH   5   6
BRANCH   5  15
ATOM     14  C   UNL     1       3.520   1.595  18.517  0.00  0.00    +0.000 C 
ATOM     15  C   UNL     1       4.250   2.839  19.003  0.00  0.00    +0.000 C 
ENDBRANCH   5  15
ENDBRANCH   1   5
BRANCH   2  16
ATOM     16  C   UNL     1       2.270   6.680  20.682  0.00  0.00    +0.000 C 
BRANCH  16  17
ATOM     17  N   UNL     1       1.776   7.910  20.056  0.00  0.00    +0.000 N 
ATOM     18  C   UNL     1       2.060   8.168  18.734  0.00  0.00    +0.000 A 
ATOM     19  C   UNL     1       1.662   9.288  18.136  0.00  0.00    +0.000 A 
ATOM     20  C   UNL     1       0.905  10.290  18.904  0.00  0.00    +0.000 A 
ATOM     21  O   UNL     1       0.561  11.327  18.341  0.00  0.00    +0.000 OA
ATOM     22  N   UNL     1       0.647   9.976  20.226  0.00  0.00    +0.000 N 
ATOM     23  C   UNL     1      -0.071  10.937  21.039  0.00  0.00    +0.000 C 
ATOM     24  C   UNL     1       1.024   8.782  20.839  0.00  0.00    +0.000 A 
ATOM     25  O   UNL     1       0.731   8.513  22.005  0.00  0.00    +0.000 OA
ENDBRANCH  16  17
ENDBRANCH   2  16
TORSDOF 6
ENDMDL
MODEL 8
REMARK VINA RESULT:      -7.0      3.095      4.738
REMARK  Name = 
REMARK  9 active torsions:
REMARK  status: ('A' for Active; 'I' for Inactive)
REMARK    1  A    between atoms: C_1  and  C_2
REMARK    2  A    between atoms: C_2  and  C_3
REMARK    3  A    between atoms: C_3  and  N_4
REMARK    4  A    between atoms: C_3  and  C_17
REMARK    5  A    between atoms: C_5  and  C_7
REMARK    6  A    between atoms: C_7  and  N_8
REMARK    7  A    between atoms: N_13  and  C_14
REMARK    8  A    between atoms: C_20  and  O_21
REMARK    9  A    between atoms: O_21  and  C_22
REMARK                            x       y       z     vdW  Elec       q    Type
REMARK                         _______ _______ _______ _____ _____    ______ ____
ROOT
ATOM      1  N   UNL     1       3.622   5.346  18.818  0.00  0.00    +0.000 N 
ATOM      2  C   UNL     1       2.445   5.586  19.501  0.00  0.00    +0.000 C 
ATOM      3  O   UNL     1       1.432   4.902  19.362  0.00  0.00    +0.000 OA
ATOM      4  H   UNL     1       4.451   5.866  19.076  0.00  0.00    +0.000 HD
ENDROOT
BRANCH   1   5
ATOM      5  C   UNL     1       3.791   4.212  17.917  0.00  0.00    +0.000 C 
BRANCH   5   6
ATOM      6  C   UNL     1       4.922   4.495  16.930  0.00  0.00    +0.000 A 
ATOM      7  C   UNL     1       5.898   5.454  17.240  0.00  0.00    +0.000 A 
ATOM      8  C   UNL     1       6.920   5.753  16.332  0.00  0.00    +0.000 A 
ATOM      9  C   UNL     1       7.005   5.087  15.110  0.00  0.00    +0.000 A 
ATOM     10  C   UNL     1       6.039   4.137  14.786  0.00  0.00    +0.000 A 
ATOM     11  C   UNL     1       5.009   3.841  15.689  0.00  0.00    +0.000 A 
BRANCH   9  12
ATOM     12  O   UNL     1       8.026   5.487  14.292  0.00  0.00    +0.000 OA
ATOM     13  C   UNL     1       7.853   5.215  12.905  0.00  0.00    +0.000 C 
ENDBRANCH   9  12
ENDBRANCH   5   6
BRANCH   5  15
ATOM     14  C   UNL     1       3.219   1.712  18.160  0.00  0.00    +0.000 C 
ATOM     15  C   UNL     1       4.046   2.885  18.666  0.00  0.00    +0.000 C 
ENDBRANCH   5  15
ENDBRANCH   1   5
BRANCH   2  16
ATOM     16  C   UNL     1       2.480   6.797  20.441  0.00  0.00    +0.000 C 
BRANCH  16  17
ATOM     17  N   UNL     1       1.802   7.966  19.873  0.00  0.00    +0.000 N 
ATOM     18  C   UNL     1       1.969   8.276  18.543  0.00  0.00    +0.000 A 
ATOM     19  C   UNL     1       1.401   9.347  17.995  0.00  0.00    +0.000 A 
ATOM     20  C   UNL     1       0.577  10.238  18.828  0.00  0.00    +0.000 A 
ATOM     21  O   UNL     1       0.074  11.232  18.311  0.00  0.00    +0.000 OA
ATOM     22  N   UNL     1       0.442   9.875  20.156  0.00  0.00    +0.000 N 
ATOM     23  C   UNL     1      -0.336  10.728  21.032  0.00  0.00    +0.000 C 
ATOM     24  C   UNL     1       0.999   8.727  20.719  0.00  0.00    +0.000 A 
ATOM     25  O   UNL     1       0.815   8.407  21.894  0.00  0.00    +0.000 OA
ENDBRANCH  16  17
ENDBRANCH   2  16
TORSDOF 6
ENDMDL
MODEL 9
REMARK VINA RESULT:      -6.9      2.450      3.714
REMARK  Name = 
REMARK  9 active torsions:
REMARK  status: ('A' for Active; 'I' for Inactive)
REMARK    1  A    between atoms: C_1  and  C_2
REMARK    2  A    between atoms: C_2  and  C_3
REMARK    3  A    between atoms: C_3  and  N_4
REMARK    4  A    between atoms: C_3  and  C_17
REMARK    5  A    between atoms: C_5  and  C_7
REMARK    6  A    between atoms: C_7  and  N_8
REMARK    7  A    between atoms: N_13  and  C_14
REMARK    8  A    between atoms: C_20  and  O_21
REMARK    9  A    between atoms: O_21  and  C_22
REMARK                            x       y       z     vdW  Elec       q    Type
REMARK                         _______ _______ _______ _____ _____    ______ ____
ROOT
ATOM      1  N   UNL     1       4.519   5.777  17.272  0.00  0.00    +0.000 N 
ATOM      2  C   UNL     1       3.996   5.737  18.551  0.00  0.00    +0.000 C 
ATOM      3  O   UNL     1       4.682   5.558  19.555  0.00  0.00    +0.000 OA
ATOM      4  H   UNL     1       3.918   6.055  16.507  0.00  0.00    +0.000 HD
ENDROOT
BRANCH   1   5
ATOM      5  C   UNL     1       5.949   5.679  17.004  0.00  0.00    +0.000 C 
BRANCH   5   6
ATOM      6  C   UNL     1       6.180   5.098  15.611  0.00  0.00    +0.000 A 
ATOM      7  C   UNL     1       5.231   4.231  15.049  0.00  0.00    +0.000 A 
ATOM      8  C   UNL     1       5.444   3.658  13.789  0.00  0.00    +0.000 A 
ATOM      9  C   UNL     1       6.592   3.957  13.056  0.00  0.00    +0.000 A 
ATOM     10  C   UNL     1       7.545   4.812  13.604  0.00  0.00    +0.000 A 
ATOM     11  C   UNL     1       7.339   5.380  14.868  0.00  0.00    +0.000 A 
BRANCH   9  12
ATOM     12  O   UNL     1       6.705   3.313  11.854  0.00  0.00    +0.000 OA
ATOM     13  C   UNL     1       5.716   2.323  11.586  0.00  0.00    +0.000 C 
ENDBRANCH   9  12
ENDBRANCH   5   6
BRANCH   5  15
ATOM     14  C   UNL     1       7.793   7.033  18.191  0.00  0.00    +0.000 C 
ATOM     15  C   UNL     1       6.679   7.033  17.153  0.00  0.00    +0.000 C 
ENDBRANCH   5  15
ENDBRANCH   1   5
BRANCH   2  16
ATOM     16  C   UNL     1       2.475   5.907  18.631  0.00  0.00    +0.000 C 
BRANCH  16  17
ATOM     17  N   UNL     1       2.079   7.300  18.862  0.00  0.00    +0.000 N 
ATOM     18  C   UNL     1       2.147   8.212  17.833  0.00  0.00    +0.000 A 
ATOM     19  C   UNL     1       1.831   9.492  18.007  0.00  0.00    +0.000 A 
ATOM     20  C   UNL     1       1.405   9.959  19.337  0.00  0.00    +0.000 A 
ATOM     21  O   UNL     1       1.134  11.149  19.485  0.00  0.00    +0.000 OA
ATOM     22  N   UNL     1       1.352   8.999  20.331  0.00  0.00    +0.000 N 
ATOM     23  C   UNL     1       0.965   9.406  21.667  0.00  0.00    +0.000 C 
ATOM     24  C   UNL     1       1.639   7.648  20.136  0.00  0.00    +0.000 A 
ATOM     25  O   UNL     1       1.530   6.810  21.033  0.00  0.00    +0.000 OA
ENDBRANCH  16  17
ENDBRANCH   2  16
TORSDOF 6
ENDMDL
