MODEL 1
REMARK VINA RESULT:      -8.0      0.000      0.000
REMARK  Name = 
REMARK  6 active torsions:
REMARK  status: ('A' for Active; 'I' for Inactive)
REMARK    1  A    between atoms: N_6  and  C_7
REMARK    2  A    between atoms: C_7  and  C_8
REMARK    3  A    between atoms: C_8  and  C_9
REMARK    4  A    between atoms: C_9  and  N_10
REMARK    5  A    between atoms: N_10  and  C_11
REMARK    6  A    between atoms: N_19  and  C_20
REMARK                            x       y       z     vdW  Elec       q    Type
REMARK                         _______ _______ _______ _____ _____    ______ ____
ROOT
ATOM      1  C   UNL     1       3.606   4.979  18.656  0.00  0.00    +0.000 A 
ATOM      2  N   UNL     1       3.231   4.123  19.636  0.00  0.00    +0.000 NA
ATOM      3  C   UNL     1       2.411   4.569  20.605  0.00  0.00    +0.000 A 
ATOM      4  N   UNL     1       1.883   5.794  20.741  0.00  0.00    +0.000 NA
ATOM      5  C   UNL     1       2.265   6.627  19.751  0.00  0.00    +0.000 A 
ATOM      6  C   UNL     1       3.100   6.285  18.701  0.00  0.00    +0.000 A 
ATOM      7  C   UNL     1       3.195   7.450  17.925  0.00  0.00    +0.000 A 
ATOM      8  N   UNL     1       2.469   8.459  18.406  0.00  0.00    +0.000 NA
ATOM      9  N   UNL     1       1.916   7.964  19.556  0.00  0.00    +0.000 N 
ENDROOT
BRANCH   9  10
ATOM     10  C   UNL     1       1.105   8.815  20.369  0.00  0.00    +0.000 A 
ATOM     11  C   UNL     1       1.186   8.709  21.770  0.00  0.00    +0.000 A 
ATOM     12  C   UNL     1       0.412   9.533  22.591  0.00  0.00    +0.000 A 
ATOM     13  C   UNL     1      -0.455  10.461  22.020  0.00  0.00    +0.000 A 
ATOM     14 CL   UNL     1      -1.408  11.477  23.028  0.00  0.00    +0.000 Cl
ATOM     15  C   UNL     1      -0.553  10.570  20.636  0.00  0.00    +0.000 A 
ATOM     16  C   UNL     1       0.224   9.751  19.810  0.00  0.00    +0.000 A 
ENDBRANCH   9  10
BRANCH   1  17
ATOM     17  N   UNL     1       4.483   4.571  17.657  0.00  0.00    +0.000 N 
ATOM     18  H   UNL     1       4.252   3.667  17.257  0.00  0.00    +0.000 HD
BRANCH  17  19
ATOM     19  C   UNL     1       5.901   4.787  17.892  0.00  0.00    +0.000 C 
BRANCH  19  20
ATOM     20  C   UNL     1       6.703   4.287  16.689  0.00  0.00    +0.000 C 
BRANCH  20  21
ATOM     21  C   UNL     1       6.774   5.337  15.581  0.00  0.00    +0.000 C 
BRANCH  21  27
ATOM     22  O   UNL     1       8.633   5.853  13.370  0.00  0.00    +0.000 OA
ATOM     23  C   UNL     1       7.682   5.097  13.258  0.00  0.00    +0.000 C 
ATOM     24  C   UNL     1       7.238   4.429  11.979  0.00  0.00    +0.000 C 
ATOM     25  C   UNL     1       6.228   3.393  12.463  0.00  0.00    +0.000 C 
ATOM     26  C   UNL     1       5.660   4.008  13.727  0.00  0.00    +0.000 C 
ATOM     27  N   UNL     1       6.776   4.751  14.252  0.00  0.00    +0.000 N 
ENDBRANCH  21  27
ENDBRANCH  20  21
ENDBRANCH  19  20
ENDBRANCH  17  19
ENDBRANCH   1  17
TORSDOF 6
ENDMDL
MODEL 2
REMARK VINA RESULT:      -7.9      0.496      1.081
REMARK  Name = 
REMARK  6 active torsions:
REMARK  status: ('A' for Active; 'I' for Inactive)
REMARK    1  A    between atoms: N_6  and  C_7
REMARK    2  A    between atoms: C_7  and  C_8
REMARK    3  A    between atoms: C_8  and  C_9
REMARK    4  A    between atoms: C_9  and  N_10
REMARK    5  A    between atoms: N_10  and  C_11
REMARK    6  A    between atoms: N_19  and  C_20
REMARK                            x       y       z     vdW  Elec       q    Type
REMARK                         _______ _______ _______ _____ _____    ______ ____
ROOT
ATOM      1  C   UNL     1       3.349   5.326  18.604  0.00  0.00    +0.000 A 
ATOM      2  N   UNL     1       3.009   4.427  19.557  0.00  0.00    +0.000 NA
ATOM      3  C   UNL     1       2.224   4.828  20.574  0.00  0.00    +0.000 A 
ATOM      4  N   UNL     1       1.701   6.045  20.783  0.00  0.00    +0.000 NA
ATOM      5  C   UNL     1       2.048   6.921  19.818  0.00  0.00    +0.000 A 
ATOM      6  C   UNL     1       2.844   6.628  18.725  0.00  0.00    +0.000 A 
ATOM      7  C   UNL     1       2.911   7.827  17.999  0.00  0.00    +0.000 A 
ATOM      8  N   UNL     1       2.202   8.812  18.550  0.00  0.00    +0.000 NA
ATOM      9  N   UNL     1       1.691   8.266  19.696  0.00  0.00    +0.000 N 
ENDROOT
BRANCH   9  10
ATOM     10  C   UNL     1       0.909   9.078  20.574  0.00  0.00    +0.000 A 
ATOM     11  C   UNL     1       0.314  10.252  20.076  0.00  0.00    +0.000 A 
ATOM     12  C   UNL     1      -0.465  11.062  20.908  0.00  0.00    +0.000 A 
ATOM     13  C   UNL     1      -0.645  10.711  22.243  0.00  0.00    +0.000 A 
ATOM     14 CL   UNL     1      -1.603  11.705  23.269  0.00  0.00    +0.000 Cl
ATOM     15  C   UNL     1      -0.054   9.558  22.752  0.00  0.00    +0.000 A 
ATOM     16  C   UNL     1       0.721   8.741  21.921  0.00  0.00    +0.000 A 
ENDBRANCH   9  10
BRANCH   1  17
ATOM     17  N   UNL     1       4.190   4.965  17.557  0.00  0.00    +0.000 N 
ATOM     18  H   UNL     1       4.173   3.972  17.347  0.00  0.00    +0.000 HD
BRANCH  17  19
ATOM     19  C   UNL     1       5.511   5.571  17.530  0.00  0.00    +0.000 C 
BRANCH  19  20
ATOM     20  C   UNL     1       5.900   5.888  16.084  0.00  0.00    +0.000 C 
BRANCH  20  21
ATOM     21  C   UNL     1       7.094   5.053  15.624  0.00  0.00    +0.000 C 
BRANCH  21  27
ATOM     22  O   UNL     1       8.708   5.867  13.312  0.00  0.00    +0.000 OA
ATOM     23  C   UNL     1       7.767   5.096  13.211  0.00  0.00    +0.000 C 
ATOM     24  C   UNL     1       7.210   4.556  11.916  0.00  0.00    +0.000 C 
ATOM     25  C   UNL     1       6.278   3.441  12.379  0.00  0.00    +0.000 C 
ATOM     26  C   UNL     1       5.827   3.897  13.753  0.00  0.00    +0.000 C 
ATOM     27  N   UNL     1       6.974   4.615  14.244  0.00  0.00    +0.000 N 
ENDBRANCH  21  27
ENDBRANCH  20  21
ENDBRANCH  19  20
ENDBRANCH  17  19
ENDBRANCH   1  17
TORSDOF 6
ENDMDL
MODEL 3
REMARK VINA RESULT:      -7.7      1.849      2.743
REMARK  Name = 
REMARK  6 active torsions:
REMARK  status: ('A' for Active; 'I' for Inactive)
REMARK    1  A    between atoms: N_6  and  C_7
REMARK    2  A    between atoms: C_7  and  C_8
REMARK    3  A    between atoms: C_8  and  C_9
REMARK    4  A    between atoms: C_9  and  N_10
REMARK    5  A    between atoms: N_10  and  C_11
REMARK    6  A    between atoms: N_19  and  C_20
REMARK                            x       y       z     vdW  Elec       q    Type
REMARK                         _______ _______ _______ _____ _____    ______ ____
ROOT
ATOM      1  C   UNL     1       3.486   4.083  19.337  0.00  0.00    +0.000 A 
ATOM      2  N   UNL     1       2.825   3.390  20.293  0.00  0.00    +0.000 NA
ATOM      3  C   UNL     1       1.936   4.040  21.065  0.00  0.00    +0.000 A 
ATOM      4  N   UNL     1       1.590   5.335  21.017  0.00  0.00    +0.000 NA
ATOM      5  C   UNL     1       2.257   6.004  20.054  0.00  0.00    +0.000 A 
ATOM      6  C   UNL     1       3.190   5.446  19.197  0.00  0.00    +0.000 A 
ATOM      7  C   UNL     1       3.593   6.505  18.369  0.00  0.00    +0.000 A 
ATOM      8  N   UNL     1       2.965   7.649  18.639  0.00  0.00    +0.000 NA
ATOM      9  N   UNL     1       2.159   7.352  19.705  0.00  0.00    +0.000 N 
ENDROOT
BRANCH   9  10
ATOM     10  C   UNL     1       1.367   8.385  20.296  0.00  0.00    +0.000 A 
ATOM     11  C   UNL     1       0.753   9.340  19.466  0.00  0.00    +0.000 A 
ATOM     12  C   UNL     1      -0.036  10.357  20.014  0.00  0.00    +0.000 A 
ATOM     13  C   UNL     1      -0.206  10.431  21.394  0.00  0.00    +0.000 A 
ATOM     14 CL   UNL     1      -1.175  11.680  22.072  0.00  0.00    +0.000 Cl
ATOM     15  C   UNL     1       0.404   9.498  22.228  0.00  0.00    +0.000 A 
ATOM     16  C   UNL     1       1.189   8.476  21.683  0.00  0.00    +0.000 A 
ENDBRANCH   9  10
BRANCH   1  17
ATOM     17  N   UNL     1       4.442   3.460  18.542  0.00  0.00    +0.000 N 
ATOM     18  H   UNL     1       5.342   3.928  18.547  0.00  0.00    +0.000 HD
BRANCH  17  19
ATOM     19  C   UNL     1       4.009   2.984  17.238  0.00  0.00    +0.000 C 
BRANCH  19  20
ATOM     20  C   UNL     1       4.510   3.939  16.152  0.00  0.00    +0.000 C 
BRANCH  20  21
ATOM     21  C   UNL     1       6.036   3.950  16.068  0.00  0.00    +0.000 C 
BRANCH  21  27
ATOM     22  O   UNL     1       5.897   6.870  15.819  0.00  0.00    +0.000 OA
ATOM     23  C   UNL     1       6.545   6.321  16.694  0.00  0.00    +0.000 C 
ATOM     24  C   UNL     1       7.456   7.016  17.678  0.00  0.00    +0.000 C 
ATOM     25  C   UNL     1       7.756   5.926  18.701  0.00  0.00    +0.000 C 
ATOM     26  C   UNL     1       7.649   4.642  17.901  0.00  0.00    +0.000 C 
ATOM     27  N   UNL     1       6.638   4.955  16.926  0.00  0.00    +0.000 N 
ENDBRANCH  21  27
ENDBRANCH  20  21
ENDBRANCH  19  20
ENDBRANCH  17  19
ENDBRANCH   1  17
TORSDOF 6
ENDMDL
MODEL 4
REMARK VINA RESULT:      -7.7      3.295      4.917
REMARK  Name = 
REMARK  6 active torsions:
REMARK  status: ('A' for Active; 'I' for Inactive)
REMARK    1  A    between atoms: N_6  and  C_7
REMARK    2  A    between atoms: C_7  and  C_8
REMARK    3  A    between atoms: C_8  and  C_9
REMARK    4  A    between atoms: C_9  and  N_10
REMARK    5  A    between atoms: N_10  and  C_11
REMARK    6  A    between atoms: N_19  and  C_20
REMARK                            x       y       z     vdW  Elec       q    Type
REMARK                         _______ _______ _______ _____ _____    ______ ____
ROOT
ATOM      1  C   UNL     1       2.078   6.844  20.041  0.00  0.00    +0.000 A 
ATOM      2  N   UNL     1       2.495   6.789  18.754  0.00  0.00    +0.000 NA
ATOM      3  C   UNL     1       2.398   7.895  17.994  0.00  0.00    +0.000 A 
ATOM      4  N   UNL     1       1.932   9.102  18.348  0.00  0.00    +0.000 NA
ATOM      5  C   UNL     1       1.527   9.135  19.634  0.00  0.00    +0.000 A 
ATOM      6  C   UNL     1       1.580   8.067  20.513  0.00  0.00    +0.000 A 
ATOM      7  C   UNL     1       1.079   8.573  21.722  0.00  0.00    +0.000 A 
ATOM      8  N   UNL     1       0.750   9.863  21.652  0.00  0.00    +0.000 NA
ATOM      9  N   UNL     1       0.996  10.208  20.351  0.00  0.00    +0.000 N 
ENDROOT
BRANCH   9  10
ATOM     10  C   UNL     1       0.698  11.534  19.907  0.00  0.00    +0.000 A 
ATOM     11  C   UNL     1      -0.382  11.737  19.029  0.00  0.00    +0.000 A 
ATOM     12  C   UNL     1      -0.705  13.023  18.584  0.00  0.00    +0.000 A 
ATOM     13  C   UNL     1       0.055  14.111  19.006  0.00  0.00    +0.000 A 
ATOM     14 CL   UNL     1      -0.338  15.694  18.461  0.00  0.00    +0.000 Cl
ATOM     15  C   UNL     1       1.133  13.923  19.866  0.00  0.00    +0.000 A 
ATOM     16  C   UNL     1       1.455  12.639  20.319  0.00  0.00    +0.000 A 
ENDBRANCH   9  10
BRANCH   1  17
ATOM     17  N   UNL     1       2.124   5.715  20.850  0.00  0.00    +0.000 N 
ATOM     18  H   UNL     1       3.066   5.431  21.098  0.00  0.00    +0.000 HD
BRANCH  17  19
ATOM     19  C   UNL     1       1.227   4.622  20.511  0.00  0.00    +0.000 C 
BRANCH  19  20
ATOM     20  C   UNL     1       1.857   3.292  20.934  0.00  0.00    +0.000 C 
BRANCH  20  21
ATOM     21  C   UNL     1       2.303   2.469  19.726  0.00  0.00    +0.000 C 
BRANCH  21  27
ATOM     22  O   UNL     1       2.110   3.163  16.882  0.00  0.00    +0.000 OA
ATOM     23  C   UNL     1       3.103   3.408  17.546  0.00  0.00    +0.000 C 
ATOM     24  C   UNL     1       4.401   3.965  17.011  0.00  0.00    +0.000 C 
ATOM     25  C   UNL     1       5.160   4.349  18.277  0.00  0.00    +0.000 C 
ATOM     26  C   UNL     1       4.638   3.378  19.318  0.00  0.00    +0.000 C 
ATOM     27  N   UNL     1       3.277   3.164  18.902  0.00  0.00    +0.000 N 
ENDBRANCH  21  27
ENDBRANCH  20  21
ENDBRANCH  19  20
ENDBRANCH  17  19
ENDBRANCH   1  17
TORSDOF 6
ENDMDL
MODEL 5
REMARK VINA RESULT:      -7.7      1.800      2.869
REMARK  Name = 
REMARK  6 active torsions:
REMARK  status: ('A' for Active; 'I' for Inactive)
REMARK    1  A    between atoms: N_6  and  C_7
REMARK    2  A    between atoms: C_7  and  C_8
REMARK    3  A    between atoms: C_8  and  C_9
REMARK    4  A    between atoms: C_9  and  N_10
REMARK    5  A    between atoms: N_10  and  C_11
REMARK    6  A    between atoms: N_19  and  C_20
REMARK                            x       y       z     vdW  Elec       q    Type
REMARK                         _______ _______ _______ _____ _____    ______ ____
ROOT
ATOM      1  C   UNL     1       3.254   5.694  18.335  0.00  0.00    +0.000 A 
ATOM      2  N   UNL     1       3.025   4.773  19.300  0.00  0.00    +0.000 NA
ATOM      3  C   UNL     1       2.296   5.129  20.374  0.00  0.00    +0.000 A 
ATOM      4  N   UNL     1       1.733   6.318  20.633  0.00  0.00    +0.000 NA
ATOM      5  C   UNL     1       1.970   7.217  19.655  0.00  0.00    +0.000 A 
ATOM      6  C   UNL     1       2.700   6.970  18.505  0.00  0.00    +0.000 A 
ATOM      7  C   UNL     1       2.659   8.176  17.790  0.00  0.00    +0.000 A 
ATOM      8  N   UNL     1       1.947   9.123  18.400  0.00  0.00    +0.000 NA
ATOM      9  N   UNL     1       1.544   8.544  19.573  0.00  0.00    +0.000 N 
ENDROOT
BRANCH   9  10
ATOM     10  C   UNL     1       0.790   9.312  20.513  0.00  0.00    +0.000 A 
ATOM     11  C   UNL     1       0.023  10.399  20.053  0.00  0.00    +0.000 A 
ATOM     12  C   UNL     1      -0.734  11.164  20.947  0.00  0.00    +0.000 A 
ATOM     13  C   UNL     1      -0.721  10.854  22.304  0.00  0.00    +0.000 A 
ATOM     14 CL   UNL     1      -1.650  11.792  23.406  0.00  0.00    +0.000 Cl
ATOM     15  C   UNL     1       0.042   9.788  22.774  0.00  0.00    +0.000 A 
ATOM     16  C   UNL     1       0.795   9.017  21.882  0.00  0.00    +0.000 A 
ENDBRANCH   9  10
BRANCH   1  17
ATOM     17  N   UNL     1       4.035   5.380  17.228  0.00  0.00    +0.000 N 
ATOM     18  H   UNL     1       3.639   5.699  16.349  0.00  0.00    +0.000 HD
BRANCH  17  19
ATOM     19  C   UNL     1       4.620   4.051  17.186  0.00  0.00    +0.000 C 
BRANCH  19  20
ATOM     20  C   UNL     1       5.601   3.959  16.015  0.00  0.00    +0.000 C 
BRANCH  20  21
ATOM     21  C   UNL     1       6.426   5.237  15.867  0.00  0.00    +0.000 C 
BRANCH  21  27
ATOM     22  O   UNL     1       7.023   7.954  16.799  0.00  0.00    +0.000 OA
ATOM     23  C   UNL     1       7.334   6.963  17.439  0.00  0.00    +0.000 C 
ATOM     24  C   UNL     1       8.163   6.958  18.701  0.00  0.00    +0.000 C 
ATOM     25  C   UNL     1       7.988   5.536  19.224  0.00  0.00    +0.000 C 
ATOM     26  C   UNL     1       7.751   4.718  17.969  0.00  0.00    +0.000 C 
ATOM     27  N   UNL     1       7.059   5.642  17.110  0.00  0.00    +0.000 N 
ENDBRANCH  21  27
ENDBRANCH  20  21
ENDBRANCH  19  20
ENDBRANCH  17  19
ENDBRANCH   1  17
TORSDOF 6
ENDMDL
MODEL 6
REMARK VINA RESULT:      -7.7      1.800      2.615
REMARK  Name = 
REMARK  6 active torsions:
REMARK  status: ('A' for Active; 'I' for Inactive)
REMARK    1  A    between atoms: N_6  and  C_7
REMARK    2  A    between atoms: C_7  and  C_8
REMARK    3  A    between atoms: C_8  and  C_9
REMARK    4  A    between atoms: C_9  and  N_10
REMARK    5  A    between atoms: N_10  and  C_11
REMARK    6  A    between atoms: N_19  and  C_20
REMARK                            x       y       z     vdW  Elec       q    Type
REMARK                         _______ _______ _______ _____ _____    ______ ____
ROOT
ATOM      1  C   UNL     1       3.443   4.464  19.124  0.00  0.00    +0.000 A 
ATOM      2  N   UNL     1       2.959   3.721  20.146  0.00  0.00    +0.000 NA
ATOM      3  C   UNL     1       2.139   4.306  21.039  0.00  0.00    +0.000 A 
ATOM      4  N   UNL     1       1.708   5.575  21.058  0.00  0.00    +0.000 NA
ATOM      5  C   UNL     1       2.199   6.295  20.027  0.00  0.00    +0.000 A 
ATOM      6  C   UNL     1       3.045   5.806  19.046  0.00  0.00    +0.000 A 
ATOM      7  C   UNL     1       3.267   6.895  18.190  0.00  0.00    +0.000 A 
ATOM      8  N   UNL     1       2.608   7.993  18.559  0.00  0.00    +0.000 NA
ATOM      9  N   UNL     1       1.969   7.636  19.716  0.00  0.00    +0.000 N 
ENDROOT
BRANCH   9  10
ATOM     10  C   UNL     1       1.198   8.610  20.423  0.00  0.00    +0.000 A 
ATOM     11  C   UNL     1       1.187   8.587  21.830  0.00  0.00    +0.000 A 
ATOM     12  C   UNL     1       0.450   9.532  22.550  0.00  0.00    +0.000 A 
ATOM     13  C   UNL     1      -0.288  10.497  21.870  0.00  0.00    +0.000 A 
ATOM     14 CL   UNL     1      -1.197  11.661  22.753  0.00  0.00    +0.000 Cl
ATOM     15  C   UNL     1      -0.295  10.524  20.478  0.00  0.00    +0.000 A 
ATOM     16  C   UNL     1       0.446   9.585  19.754  0.00  0.00    +0.000 A 
ENDBRANCH   9  10
BRANCH   1  17
ATOM     17  N   UNL     1       4.324   3.911  18.201  0.00  0.00    +0.000 N 
ATOM     18  H   UNL     1       5.272   4.265  18.282  0.00  0.00    +0.000 HD
BRANCH  17  19
ATOM     19  C   UNL     1       3.844   3.759  16.838  0.00  0.00    +0.000 C 
BRANCH  19  20
ATOM     20  C   UNL     1       4.808   4.455  15.874  0.00  0.00    +0.000 C 
BRANCH  20  21
ATOM     21  C   UNL     1       6.265   4.121  16.193  0.00  0.00    +0.000 C 
BRANCH  21  27
ATOM     22  O   UNL     1       6.177   7.054  16.168  0.00  0.00    +0.000 OA
ATOM     23  C   UNL     1       6.791   6.428  17.016  0.00  0.00    +0.000 C 
ATOM     24  C   UNL     1       7.684   7.029  18.076  0.00  0.00    +0.000 C 
ATOM     25  C   UNL     1       7.938   5.857  19.019  0.00  0.00    +0.000 C 
ATOM     26  C   UNL     1       7.836   4.642  18.118  0.00  0.00    +0.000 C 
ATOM     27  N   UNL     1       6.857   5.047  17.143  0.00  0.00    +0.000 N 
ENDBRANCH  21  27
ENDBRANCH  20  21
ENDBRANCH  19  20
ENDBRANCH  17  19
ENDBRANCH   1  17
TORSDOF 6
ENDMDL
MODEL 7
REMARK VINA RESULT:      -7.6      3.008      5.209
REMARK  Name = 
REMARK  6 active torsions:
REMARK  status: ('A' for Active; 'I' for Inactive)
REMARK    1  A    between atoms: N_6  and  C_7
REMARK    2  A    between atoms: C_7  and  C_8
REMARK    3  A    between atoms: C_8  and  C_9
REMARK    4  A    between atoms: C_9  and  N_10
REMARK    5  A    between atoms: N_10  and  C_11
REMARK    6  A    between atoms: N_19  and  C_20
REMARK                            x       y       z     vdW  Elec       q    Type
REMARK                         _______ _______ _______ _____ _____    ______ ____
ROOT
ATOM      1  C   UNL     1       1.059   9.127  19.882  0.00  0.00    +0.000 A 
ATOM      2  N   UNL     1       0.753   9.806  18.751  0.00  0.00    +0.000 NA
ATOM      3  C   UNL     1       0.003  10.919  18.849  0.00  0.00    +0.000 A 
ATOM      4  N   UNL     1      -0.502  11.481  19.957  0.00  0.00    +0.000 NA
ATOM      5  C   UNL     1      -0.179  10.790  21.071  0.00  0.00    +0.000 A 
ATOM      6  C   UNL     1       0.586   9.637  21.098  0.00  0.00    +0.000 A 
ATOM      7  C   UNL     1       0.670   9.296  22.457  0.00  0.00    +0.000 A 
ATOM      8  N   UNL     1       0.039  10.159  23.253  0.00  0.00    +0.000 NA
ATOM      9  N   UNL     1      -0.517  11.070  22.396  0.00  0.00    +0.000 N 
ENDROOT
BRANCH   9  10
ATOM     10  C   UNL     1      -1.324  12.127  22.920  0.00  0.00    +0.000 A 
ATOM     11  C   UNL     1      -2.639  11.845  23.335  0.00  0.00    +0.000 A 
ATOM     12  C   UNL     1      -3.450  12.855  23.861  0.00  0.00    +0.000 A 
ATOM     13  C   UNL     1      -2.958  14.153  23.965  0.00  0.00    +0.000 A 
ATOM     14 CL   UNL     1      -3.952  15.398  24.612  0.00  0.00    +0.000 Cl
ATOM     15  C   UNL     1      -1.663  14.448  23.548  0.00  0.00    +0.000 A 
ATOM     16  C   UNL     1      -0.845  13.439  23.028  0.00  0.00    +0.000 A 
ENDBRANCH   9  10
BRANCH   1  17
ATOM     17  N   UNL     1       1.799   7.951  19.823  0.00  0.00    +0.000 N 
ATOM     18  H   UNL     1       2.348   7.774  20.658  0.00  0.00    +0.000 HD
BRANCH  17  19
ATOM     19  C   UNL     1       2.480   7.660  18.572  0.00  0.00    +0.000 C 
BRANCH  19  20
ATOM     20  C   UNL     1       2.719   6.152  18.457  0.00  0.00    +0.000 C 
BRANCH  20  21
ATOM     21  C   UNL     1       3.976   5.720  19.212  0.00  0.00    +0.000 C 
BRANCH  21  27
ATOM     22  O   UNL     1       6.818   5.300  19.808  0.00  0.00    +0.000 OA
ATOM     23  C   UNL     1       6.346   5.092  18.702  0.00  0.00    +0.000 C 
ATOM     24  C   UNL     1       7.134   4.726  17.466  0.00  0.00    +0.000 C 
ATOM     25  C   UNL     1       6.052   4.296  16.481  0.00  0.00    +0.000 C 
ATOM     26  C   UNL     1       4.838   5.100  16.907  0.00  0.00    +0.000 C 
ATOM     27  N   UNL     1       5.014   5.214  18.331  0.00  0.00    +0.000 N 
ENDBRANCH  21  27
ENDBRANCH  20  21
ENDBRANCH  19  20
ENDBRANCH  17  19
ENDBRANCH   1  17
TORSDOF 6
ENDMDL
MODEL 8
REMARK VINA RESULT:      -7.6      1.004      1.404
REMARK  Name = 
REMARK  6 active torsions:
REMARK  status: ('A' for Active; 'I' for Inactive)
REMARK    1  A    between atoms: N_6  and  C_7
REMARK    2  A    between atoms: C_7  and  C_8
REMARK    3  A    between atoms: C_8  and  C_9
REMARK    4  A    between atoms: C_9  and  N_10
REMARK    5  A    between atoms: N_10  and  C_11
REMARK    6  A    between atoms: N_19  and  C_20
REMARK                            x       y       z     vdW  Elec       q    Type
REMARK                         _______ _______ _______ _____ _____    ______ ____
ROOT
ATOM      1  C   UNL     1       3.695   4.081  19.325  0.00  0.00    +0.000 A 
ATOM      2  N   UNL     1       3.053   3.442  20.332  0.00  0.00    +0.000 NA
ATOM      3  C   UNL     1       2.150   4.125  21.059  0.00  0.00    +0.000 A 
ATOM      4  N   UNL     1       1.773   5.404  20.919  0.00  0.00    +0.000 NA
ATOM      5  C   UNL     1       2.420   6.018  19.907  0.00  0.00    +0.000 A 
ATOM      6  C   UNL     1       3.364   5.423  19.089  0.00  0.00    +0.000 A 
ATOM      7  C   UNL     1       3.739   6.429  18.185  0.00  0.00    +0.000 A 
ATOM      8  N   UNL     1       3.083   7.573  18.375  0.00  0.00    +0.000 NA
ATOM      9  N   UNL     1       2.287   7.334  19.462  0.00  0.00    +0.000 N 
ENDROOT
BRANCH   9  10
ATOM     10  C   UNL     1       1.472   8.387  19.981  0.00  0.00    +0.000 A 
ATOM     11  C   UNL     1       1.033   9.406  19.116  0.00  0.00    +0.000 A 
ATOM     12  C   UNL     1       0.226  10.444  19.592  0.00  0.00    +0.000 A 
ATOM     13  C   UNL     1      -0.138  10.477  20.935  0.00  0.00    +0.000 A 
ATOM     14 CL   UNL     1      -1.131  11.752  21.524  0.00  0.00    +0.000 Cl
ATOM     15  C   UNL     1       0.297   9.481  21.804  0.00  0.00    +0.000 A 
ATOM     16  C   UNL     1       1.099   8.436  21.331  0.00  0.00    +0.000 A 
ENDBRANCH   9  10
BRANCH   1  17
ATOM     17  N   UNL     1       4.663   3.426  18.574  0.00  0.00    +0.000 N 
ATOM     18  H   UNL     1       5.614   3.650  18.852  0.00  0.00    +0.000 HD
BRANCH  17  19
ATOM     19  C   UNL     1       4.450   3.354  17.138  0.00  0.00    +0.000 C 
BRANCH  19  20
ATOM     20  C   UNL     1       5.704   3.841  16.407  0.00  0.00    +0.000 C 
BRANCH  20  21
ATOM     21  C   UNL     1       5.356   4.781  15.254  0.00  0.00    +0.000 C 
BRANCH  21  27
ATOM     22  O   UNL     1       7.918   5.582  14.069  0.00  0.00    +0.000 OA
ATOM     23  C   UNL     1       7.144   4.831  13.499  0.00  0.00    +0.000 C 
ATOM     24  C   UNL     1       7.300   4.313  12.090  0.00  0.00    +0.000 C 
ATOM     25  C   UNL     1       6.247   3.213  12.007  0.00  0.00    +0.000 C 
ATOM     26  C   UNL     1       5.177   3.666  12.981  0.00  0.00    +0.000 C 
ATOM     27  N   UNL     1       5.934   4.357  13.991  0.00  0.00    +0.000 N 
ENDBRANCH  21  27
ENDBRANCH  20  21
ENDBRANCH  19  20
ENDBRANCH  17  19
ENDBRANCH   1  17
TORSDOF 6
ENDMDL
MODEL 9
REMARK VINA RESULT:      -7.5      3.792      5.908
REMARK  Name = 
REMARK  6 active torsions:
REMARK  status: ('A' for Active; 'I' for Inactive)
REMARK    1  A    between atoms: N_6  and  C_7
REMARK    2  A    between atoms: C_7  and  C_8
REMARK    3  A    between atoms: C_8  and  C_9
REMARK    4  A    between atoms: C_9  and  N_10
REMARK    5  A    between atoms: N_10  and  C_11
REMARK    6  A    between atoms: N_19  and  C_20
REMARK                            x       y       z     vdW  Elec       q    Type
REMARK                         _______ _______ _______ _____ _____    ______ ____
ROOT
ATOM      1  C   UNL     1       1.448   8.645  19.987  0.00  0.00    +0.000 A 
ATOM      2  N   UNL     1       1.196   9.213  18.785  0.00  0.00    +0.000 NA
ATOM      3  C   UNL     1       0.459  10.338  18.743  0.00  0.00    +0.000 A 
ATOM      4  N   UNL     1      -0.081  11.011  19.769  0.00  0.00    +0.000 NA
ATOM      5  C   UNL     1       0.188  10.430  20.957  0.00  0.00    +0.000 A 
ATOM      6  C   UNL     1       0.936   9.277  21.128  0.00  0.00    +0.000 A 
ATOM      7  C   UNL     1       0.961   9.071  22.516  0.00  0.00    +0.000 A 
ATOM      8  N   UNL     1       0.312  10.015  23.197  0.00  0.00    +0.000 NA
ATOM      9  N   UNL     1      -0.197  10.842  22.234  0.00  0.00    +0.000 N 
ENDROOT
BRANCH   9  10
ATOM     10  C   UNL     1      -1.009  11.954  22.619  0.00  0.00    +0.000 A 
ATOM     11  C   UNL     1      -2.287  11.716  23.159  0.00  0.00    +0.000 A 
ATOM     12  C   UNL     1      -3.101  12.782  23.554  0.00  0.00    +0.000 A 
ATOM     13  C   UNL     1      -2.649  14.090  23.402  0.00  0.00    +0.000 A 
ATOM     14 CL   UNL     1      -3.648  15.404  23.887  0.00  0.00    +0.000 Cl
ATOM     15  C   UNL     1      -1.392  14.340  22.859  0.00  0.00    +0.000 A 
ATOM     16  C   UNL     1      -0.571  13.276  22.469  0.00  0.00    +0.000 A 
ENDBRANCH   9  10
BRANCH   1  17
ATOM     17  N   UNL     1       2.173   7.461  20.074  0.00  0.00    +0.000 N 
ATOM     18  H   UNL     1       2.785   7.418  20.882  0.00  0.00    +0.000 HD
BRANCH  17  19
ATOM     19  C   UNL     1       2.751   6.948  18.843  0.00  0.00    +0.000 C 
BRANCH  19  20
ATOM     20  C   UNL     1       3.919   6.016  19.175  0.00  0.00    +0.000 C 
BRANCH  20  21
ATOM     21  C   UNL     1       3.716   4.623  18.580  0.00  0.00    +0.000 C 
BRANCH  21  27
ATOM     22  O   UNL     1       1.138   3.734  17.496  0.00  0.00    +0.000 OA
ATOM     23  C   UNL     1       1.460   3.536  18.656  0.00  0.00    +0.000 C 
ATOM     24  C   UNL     1       0.573   2.944  19.725  0.00  0.00    +0.000 C 
ATOM     25  C   UNL     1       1.548   2.649  20.860  0.00  0.00    +0.000 C 
ATOM     26  C   UNL     1       2.636   3.689  20.678  0.00  0.00    +0.000 C 
ATOM     27  N   UNL     1       2.669   3.873  19.251  0.00  0.00    +0.000 N 
ENDBRANCH  21  27
ENDBRANCH  20  21
ENDBRANCH  19  20
ENDBRANCH  17  19
ENDBRANCH   1  17
TORSDOF 6
ENDMDL
